MODEL 1
REMARK VINA RESULT:     -10.8      0.000      0.000
REMARK  Name = 11538455
REMARK  6 active torsions:
REMARK  status: ('A' for Active; 'I' for Inactive)
REMARK    1  A    between atoms: C_4  and  C_19
REMARK    2  A    between atoms: C_12  and  C_15
REMARK    3  A    between atoms: N_14  and  O_17
REMARK    4  A    between atoms: C_19  and  N_20
REMARK    5  A    between atoms: N_20  and  C_23
REMARK    6  A    between atoms: C_23  and  C_25
REMARK                            x       y       z     vdW  Elec       q    Type
REMARK                         _______ _______ _______ _____ _____    ______ ____
ROOT
ATOM      1  N   UNL     1      33.620 -21.750 -18.390  0.00  0.00    -0.253 N 
ATOM      2  N   UNL     1      33.653 -23.327 -16.634  0.00  0.00    -0.203 NA
ATOM      3  N   UNL     1      31.612 -22.193 -17.231  0.00  0.00    -0.180 NA
ATOM      4  C   UNL     1      34.980 -20.407 -20.565  0.00  0.00    -0.018 C 
ATOM      5  C   UNL     1      35.709 -20.790 -19.273  0.00  0.00    +0.020 C 
ATOM      6  C   UNL     1      33.501 -20.150 -20.259  0.00  0.00    +0.020 C 
ATOM      7  C   UNL     1      35.053 -21.990 -18.591  0.00  0.00    +0.101 C 
ATOM      8  C   UNL     1      32.853 -21.355 -19.579  0.00  0.00    +0.101 C 
ATOM      9  C   UNL     1      32.938 -22.446 -17.385  0.00  0.00    +0.090 C 
ATOM     10  C   UNL     1      32.966 -23.978 -15.673  0.00  0.00    +0.170 C 
ATOM     11  C   UNL     1      30.987 -22.880 -16.252  0.00  0.00    +0.113 C 
ATOM     12  C   UNL     1      31.620 -23.794 -15.434  0.00  0.00    +0.078 C 
ENDROOT
BRANCH  12  15
ATOM     13  O   UNL     1      30.104 -25.419 -14.676  0.00  0.00    -0.268 OA
ATOM     14  N   UNL     1      31.170 -24.146 -13.077  0.00  0.00    -0.194 N 
ATOM     15  C   UNL     1      30.914 -24.514 -14.393  0.00  0.00    +0.267 C 
ATOM     16  H   UNL     1      31.812 -23.431 -12.859  0.00  0.00    +0.183 HD
BRANCH  14  17
ATOM     17  O   UNL     1      30.474 -24.838 -12.076  0.00  0.00    -0.295 OA
ATOM     18  H   UNL     1      29.522 -24.681 -12.175  0.00  0.00    +0.241 HD
ENDBRANCH  14  17
ENDBRANCH  12  15
BRANCH   4  19
ATOM     19  C   UNL     1      35.623 -19.181 -21.210  0.00  0.00    -0.081 C 
BRANCH  19  20
ATOM     20  N   UNL     1      34.760 -18.624 -22.240  0.00  0.00    +0.386 N 
ATOM     21  H   UNL     1      34.040 -18.052 -21.798  0.00  0.00    -0.084 HD
ATOM     22  H   UNL     1      34.337 -19.392 -22.760  0.00  0.00    -0.084 HD
BRANCH  20  23
ATOM     23  C   UNL     1      35.522 -17.798 -23.169  0.00  0.00    -0.053 C 
BRANCH  23  25
ATOM     24  N   UNL     1      33.911 -14.720 -24.293  0.00  0.00    -0.284 N 
ATOM     25  C   UNL     1      34.858 -16.462 -23.352  0.00  0.00    -0.028 C 
ATOM     26  C   UNL     1      34.543 -15.555 -22.324  0.00  0.00    +0.009 C 
ATOM     27  C   UNL     1      34.468 -15.944 -24.549  0.00  0.00    +0.059 C 
ATOM     28  C   UNL     1      33.943 -14.456 -22.942  0.00  0.00    +0.051 C 
ATOM     29  C   UNL     1      34.701 -15.542 -20.924  0.00  0.00    +0.001 C 
ATOM     30  C   UNL     1      33.491 -13.340 -22.228  0.00  0.00    +0.015 C 
ATOM     31  C   UNL     1      33.369 -13.843 -25.308  0.00  0.00    +0.117 C 
ATOM     32  C   UNL     1      34.255 -14.432 -20.195  0.00  0.00    +0.000 C 
ATOM     33  C   UNL     1      33.659 -13.349 -20.840  0.00  0.00    +0.001 C 
ENDBRANCH  23  25
ENDBRANCH  20  23
ENDBRANCH  19  20
ENDBRANCH   4  19
TORSDOF 6
ENDMDL
MODEL 2
REMARK VINA RESULT:     -10.5      1.123      1.362
REMARK  Name = 11538455
REMARK  6 active torsions:
REMARK  status: ('A' for Active; 'I' for Inactive)
REMARK    1  A    between atoms: C_4  and  C_19
REMARK    2  A    between atoms: C_12  and  C_15
REMARK    3  A    between atoms: N_14  and  O_17
REMARK    4  A    between atoms: C_19  and  N_20
REMARK    5  A    between atoms: N_20  and  C_23
REMARK    6  A    between atoms: C_23  and  C_25
REMARK                            x       y       z     vdW  Elec       q    Type
REMARK                         _______ _______ _______ _____ _____    ______ ____
ROOT
ATOM      1  N   UNL     1      34.309 -21.216 -19.008  0.00  0.00    -0.253 N 
ATOM      2  N   UNL     1      34.481 -22.691 -17.173  0.00  0.00    -0.203 NA
ATOM      3  N   UNL     1      32.347 -21.777 -17.820  0.00  0.00    -0.180 NA
ATOM      4  C   UNL     1      35.545 -19.871 -21.254  0.00  0.00    -0.018 C 
ATOM      5  C   UNL     1      36.304 -20.120 -19.947  0.00  0.00    +0.020 C 
ATOM      6  C   UNL     1      34.048 -19.732 -20.957  0.00  0.00    +0.020 C 
ATOM      7  C   UNL     1      35.757 -21.337 -19.201  0.00  0.00    +0.101 C 
ATOM      8  C   UNL     1      33.510 -20.953 -20.213  0.00  0.00    +0.101 C 
ATOM      9  C   UNL     1      33.691 -21.918 -17.966  0.00  0.00    +0.090 C 
ATOM     10  C   UNL     1      33.855 -23.351 -16.178  0.00  0.00    +0.170 C 
ATOM     11  C   UNL     1      31.786 -22.465 -16.805  0.00  0.00    +0.113 C 
ATOM     12  C   UNL     1      32.497 -23.276 -15.944  0.00  0.00    +0.078 C 
ENDROOT
BRANCH  12  15
ATOM     13  O   UNL     1      30.619 -24.143 -14.831  0.00  0.00    -0.268 OA
ATOM     14  N   UNL     1      32.679 -24.519 -13.869  0.00  0.00    -0.194 N 
ATOM     15  C   UNL     1      31.858 -24.002 -14.864  0.00  0.00    +0.267 C 
ATOM     16  H   UNL     1      33.658 -24.406 -13.899  0.00  0.00    +0.183 HD
BRANCH  14  17
ATOM     17  O   UNL     1      32.053 -25.209 -12.821  0.00  0.00    -0.295 OA
ATOM     18  H   UNL     1      32.082 -26.162 -12.998  0.00  0.00    +0.241 HD
ENDBRANCH  14  17
ENDBRANCH  12  15
BRANCH   4  19
ATOM     19  C   UNL     1      36.076 -18.627 -21.963  0.00  0.00    -0.081 C 
BRANCH  19  20
ATOM     20  N   UNL     1      35.010 -17.664 -22.189  0.00  0.00    +0.386 N 
ATOM     21  H   UNL     1      34.170 -17.975 -21.701  0.00  0.00    -0.084 HD
ATOM     22  H   UNL     1      34.836 -17.600 -23.193  0.00  0.00    -0.084 HD
BRANCH  20  23
ATOM     23  C   UNL     1      35.385 -16.344 -21.699  0.00  0.00    -0.053 C 
BRANCH  23  25
ATOM     24  N   UNL     1      33.692 -14.029 -23.959  0.00  0.00    -0.284 N 
ATOM     25  C   UNL     1      34.582 -15.276 -22.388  0.00  0.00    -0.028 C 
ATOM     26  C   UNL     1      33.780 -14.313 -21.749  0.00  0.00    +0.009 C 
ATOM     27  C   UNL     1      34.522 -15.095 -23.735  0.00  0.00    +0.059 C 
ATOM     28  C   UNL     1      33.224 -13.532 -22.764  0.00  0.00    +0.051 C 
ATOM     29  C   UNL     1      33.459 -14.013 -20.410  0.00  0.00    +0.001 C 
ATOM     30  C   UNL     1      32.360 -12.461 -22.507  0.00  0.00    +0.015 C 
ATOM     31  C   UNL     1      33.363 -13.514 -25.271  0.00  0.00    +0.117 C 
ATOM     32  C   UNL     1      32.596 -12.945 -20.137  0.00  0.00    +0.000 C 
ATOM     33  C   UNL     1      32.056 -12.182 -21.171  0.00  0.00    +0.001 C 
ENDBRANCH  23  25
ENDBRANCH  20  23
ENDBRANCH  19  20
ENDBRANCH   4  19
TORSDOF 6
ENDMDL
MODEL 3
REMARK VINA RESULT:     -10.3      7.781     12.335
REMARK  Name = 11538455
REMARK  6 active torsions:
REMARK  status: ('A' for Active; 'I' for Inactive)
REMARK    1  A    between atoms: C_4  and  C_19
REMARK    2  A    between atoms: C_12  and  C_15
REMARK    3  A    between atoms: N_14  and  O_17
REMARK    4  A    between atoms: C_19  and  N_20
REMARK    5  A    between atoms: N_20  and  C_23
REMARK    6  A    between atoms: C_23  and  C_25
REMARK                            x       y       z     vdW  Elec       q    Type
REMARK                         _______ _______ _______ _____ _____    ______ ____
ROOT
ATOM      1  N   UNL     1      32.781 -10.718 -22.503  0.00  0.00    -0.253 N 
ATOM      2  N   UNL     1      33.590 -12.239 -24.116  0.00  0.00    -0.203 NA
ATOM      3  N   UNL     1      33.290 -12.921 -21.824  0.00  0.00    -0.180 NA
ATOM      4  C   UNL     1      31.703  -8.111 -21.849  0.00  0.00    -0.018 C 
ATOM      5  C   UNL     1      32.763  -8.295 -22.940  0.00  0.00    +0.020 C 
ATOM      6  C   UNL     1      31.869  -9.203 -20.788  0.00  0.00    +0.020 C 
ATOM      7  C   UNL     1      32.707  -9.695 -23.551  0.00  0.00    +0.101 C 
ATOM      8  C   UNL     1      31.810 -10.598 -21.406  0.00  0.00    +0.101 C 
ATOM      9  C   UNL     1      33.235 -12.003 -22.825  0.00  0.00    +0.090 C 
ATOM     10  C   UNL     1      34.026 -13.486 -24.391  0.00  0.00    +0.170 C 
ATOM     11  C   UNL     1      33.735 -14.147 -22.169  0.00  0.00    +0.113 C 
ATOM     12  C   UNL     1      34.120 -14.490 -23.449  0.00  0.00    +0.078 C 
ENDROOT
BRANCH  12  15
ATOM     13  O   UNL     1      34.317 -16.341 -24.881  0.00  0.00    -0.268 OA
ATOM     14  N   UNL     1      35.346 -16.487 -22.824  0.00  0.00    -0.194 N 
ATOM     15  C   UNL     1      34.592 -15.820 -23.781  0.00  0.00    +0.267 C 
ATOM     16  H   UNL     1      35.562 -16.071 -21.957  0.00  0.00    +0.183 HD
BRANCH  14  17
ATOM     17  O   UNL     1      35.789 -17.777 -23.148  0.00  0.00    -0.295 OA
ATOM     18  H   UNL     1      36.564 -17.718 -23.728  0.00  0.00    +0.241 HD
ENDBRANCH  14  17
ENDBRANCH  12  15
BRANCH   4  19
ATOM     19  C   UNL     1      31.803  -6.723 -21.222  0.00  0.00    -0.081 C 
BRANCH  19  20
ATOM     20  N   UNL     1      30.996  -5.762 -21.958  0.00  0.00    +0.386 N 
ATOM     21  H   UNL     1      30.067  -5.716 -21.538  0.00  0.00    -0.084 HD
ATOM     22  H   UNL     1      30.934  -6.065 -22.930  0.00  0.00    -0.084 HD
BRANCH  20  23
ATOM     23  C   UNL     1      31.600  -4.436 -21.923  0.00  0.00    -0.053 C 
BRANCH  23  25
ATOM     24  N   UNL     1      31.765  -2.887 -25.226  0.00  0.00    -0.284 N 
ATOM     25  C   UNL     1      31.905  -3.958 -23.316  0.00  0.00    -0.028 C 
ATOM     26  C   UNL     1      32.996  -4.370 -24.103  0.00  0.00    +0.009 C 
ATOM     27  C   UNL     1      31.161  -3.054 -24.009  0.00  0.00    +0.059 C 
ATOM     28  C   UNL     1      32.888  -3.678 -25.311  0.00  0.00    +0.051 C 
ATOM     29  C   UNL     1      34.074  -5.259 -23.924  0.00  0.00    +0.001 C 
ATOM     30  C   UNL     1      33.808  -3.833 -26.355  0.00  0.00    +0.015 C 
ATOM     31  C   UNL     1      31.280  -2.001 -26.262  0.00  0.00    +0.117 C 
ATOM     32  C   UNL     1      35.002  -5.425 -24.960  0.00  0.00    +0.000 C 
ATOM     33  C   UNL     1      34.869  -4.721 -26.156  0.00  0.00    +0.001 C 
ENDBRANCH  23  25
ENDBRANCH  20  23
ENDBRANCH  19  20
ENDBRANCH   4  19
TORSDOF 6
ENDMDL
MODEL 4
REMARK VINA RESULT:     -10.3      6.466     10.442
REMARK  Name = 11538455
REMARK  6 active torsions:
REMARK  status: ('A' for Active; 'I' for Inactive)
REMARK    1  A    between atoms: C_4  and  C_19
REMARK    2  A    between atoms: C_12  and  C_15
REMARK    3  A    between atoms: N_14  and  O_17
REMARK    4  A    between atoms: C_19  and  N_20
REMARK    5  A    between atoms: N_20  and  C_23
REMARK    6  A    between atoms: C_23  and  C_25
REMARK                            x       y       z     vdW  Elec       q    Type
REMARK                         _______ _______ _______ _____ _____    ______ ____
ROOT
ATOM      1  N   UNL     1      33.256 -12.698 -21.940  0.00  0.00    -0.253 N 
ATOM      2  N   UNL     1      34.413 -14.468 -22.989  0.00  0.00    -0.203 NA
ATOM      3  N   UNL     1      33.962 -14.526 -20.623  0.00  0.00    -0.180 NA
ATOM      4  C   UNL     1      31.800 -10.204 -22.137  0.00  0.00    -0.018 C 
ATOM      5  C   UNL     1      32.982 -10.522 -23.058  0.00  0.00    +0.020 C 
ATOM      6  C   UNL     1      31.989 -10.921 -20.797  0.00  0.00    +0.020 C 
ATOM      7  C   UNL     1      33.165 -12.028 -23.241  0.00  0.00    +0.101 C 
ATOM      8  C   UNL     1      32.169 -12.426 -20.989  0.00  0.00    +0.101 C 
ATOM      9  C   UNL     1      33.898 -13.939 -21.847  0.00  0.00    +0.090 C 
ATOM     10  C   UNL     1      35.027 -15.663 -22.863  0.00  0.00    +0.170 C 
ATOM     11  C   UNL     1      34.590 -15.718 -20.569  0.00  0.00    +0.113 C 
ATOM     12  C   UNL     1      35.146 -16.341 -21.668  0.00  0.00    +0.078 C 
ENDROOT
BRANCH  12  15
ATOM     13  O   UNL     1      36.100 -18.276 -22.596  0.00  0.00    -0.268 OA
ATOM     14  N   UNL     1      36.102 -18.099 -20.297  0.00  0.00    -0.194 N 
ATOM     15  C   UNL     1      35.813 -17.625 -21.571  0.00  0.00    +0.267 C 
ATOM     16  H   UNL     1      35.873 -17.581 -19.492  0.00  0.00    +0.183 HD
BRANCH  14  17
ATOM     17  O   UNL     1      36.735 -19.348 -20.212  0.00  0.00    -0.295 OA
ATOM     18  H   UNL     1      36.239 -19.921 -19.607  0.00  0.00    +0.241 HD
ENDBRANCH  14  17
ENDBRANCH  12  15
BRANCH   4  19
ATOM     19  C   UNL     1      31.659  -8.697 -21.933  0.00  0.00    -0.081 C 
BRANCH  19  20
ATOM     20  N   UNL     1      32.024  -8.322 -20.575  0.00  0.00    +0.386 N 
ATOM     21  H   UNL     1      32.303  -9.158 -20.061  0.00  0.00    -0.084 HD
ATOM     22  H   UNL     1      31.218  -7.882 -20.131  0.00  0.00    -0.084 HD
BRANCH  20  23
ATOM     23  C   UNL     1      33.130  -7.372 -20.575  0.00  0.00    -0.053 C 
BRANCH  23  25
ATOM     24  N   UNL     1      31.914  -4.345 -22.216  0.00  0.00    -0.284 N 
ATOM     25  C   UNL     1      32.816  -6.196 -21.458  0.00  0.00    -0.028 C 
ATOM     26  C   UNL     1      33.414  -5.922 -22.702  0.00  0.00    +0.009 C 
ATOM     27  C   UNL     1      31.903  -5.228 -21.171  0.00  0.00    +0.059 C 
ATOM     28  C   UNL     1      32.827  -4.743 -23.166  0.00  0.00    +0.051 C 
ATOM     29  C   UNL     1      34.396  -6.548 -23.494  0.00  0.00    +0.001 C 
ATOM     30  C   UNL     1      33.174  -4.156 -24.388  0.00  0.00    +0.015 C 
ATOM     31  C   UNL     1      31.080  -3.165 -22.295  0.00  0.00    +0.117 C 
ATOM     32  C   UNL     1      34.755  -5.973 -24.720  0.00  0.00    +0.000 C 
ATOM     33  C   UNL     1      34.152  -4.795 -25.157  0.00  0.00    +0.001 C 
ENDBRANCH  23  25
ENDBRANCH  20  23
ENDBRANCH  19  20
ENDBRANCH   4  19
TORSDOF 6
ENDMDL
MODEL 5
REMARK VINA RESULT:     -10.2      2.779      3.795
REMARK  Name = 11538455
REMARK  6 active torsions:
REMARK  status: ('A' for Active; 'I' for Inactive)
REMARK    1  A    between atoms: C_4  and  C_19
REMARK    2  A    between atoms: C_12  and  C_15
REMARK    3  A    between atoms: N_14  and  O_17
REMARK    4  A    between atoms: C_19  and  N_20
REMARK    5  A    between atoms: N_20  and  C_23
REMARK    6  A    between atoms: C_23  and  C_25
REMARK                            x       y       z     vdW  Elec       q    Type
REMARK                         _______ _______ _______ _____ _____    ______ ____
ROOT
ATOM      1  N   UNL     1      35.462 -19.843 -20.524  0.00  0.00    -0.253 N 
ATOM      2  N   UNL     1      36.680 -20.724 -18.704  0.00  0.00    -0.203 NA
ATOM      3  N   UNL     1      34.369 -21.321 -19.042  0.00  0.00    -0.180 NA
ATOM      4  C   UNL     1      35.396 -18.281 -22.961  0.00  0.00    -0.018 C 
ATOM      5  C   UNL     1      36.288 -17.891 -21.778  0.00  0.00    +0.020 C 
ATOM      6  C   UNL     1      34.157 -19.020 -22.445  0.00  0.00    +0.020 C 
ATOM      7  C   UNL     1      36.664 -19.107 -20.931  0.00  0.00    +0.101 C 
ATOM      8  C   UNL     1      34.542 -20.234 -21.601  0.00  0.00    +0.101 C 
ATOM      9  C   UNL     1      35.504 -20.657 -19.386  0.00  0.00    +0.090 C 
ATOM     10  C   UNL     1      36.685 -21.514 -17.610  0.00  0.00    +0.170 C 
ATOM     11  C   UNL     1      34.445 -22.093 -17.939  0.00  0.00    +0.113 C 
ATOM     12  C   UNL     1      35.587 -22.230 -17.176  0.00  0.00    +0.078 C 
ENDROOT
BRANCH  12  15
ATOM     13  O   UNL     1      34.787 -23.972 -15.821  0.00  0.00    -0.268 OA
ATOM     14  N   UNL     1      36.639 -22.821 -15.073  0.00  0.00    -0.194 N 
ATOM     15  C   UNL     1      35.631 -23.071 -15.997  0.00  0.00    +0.267 C 
ATOM     16  H   UNL     1      37.304 -22.109 -15.216  0.00  0.00    +0.183 HD
BRANCH  14  17
ATOM     17  O   UNL     1      36.667 -23.630 -13.928  0.00  0.00    -0.295 OA
ATOM     18  H   UNL     1      35.792 -24.026 -13.789  0.00  0.00    +0.241 HD
ENDBRANCH  14  17
ENDBRANCH  12  15
BRANCH   4  19
ATOM     19  C   UNL     1      34.996 -17.049 -23.770  0.00  0.00    -0.081 C 
BRANCH  19  20
ATOM     20  N   UNL     1      35.467 -15.832 -23.128  0.00  0.00    +0.386 N 
ATOM     21  H   UNL     1      35.649 -15.127 -23.843  0.00  0.00    -0.084 HD
ATOM     22  H   UNL     1      36.320 -16.045 -22.611  0.00  0.00    -0.084 HD
BRANCH  20  23
ATOM     23  C   UNL     1      34.474 -15.317 -22.193  0.00  0.00    -0.053 C 
BRANCH  23  25
ATOM     24  N   UNL     1      33.685 -12.144 -23.819  0.00  0.00    -0.284 N 
ATOM     25  C   UNL     1      34.001 -13.955 -22.622  0.00  0.00    -0.028 C 
ATOM     26  C   UNL     1      33.184 -13.095 -21.865  0.00  0.00    +0.009 C 
ATOM     27  C   UNL     1      34.300 -13.366 -23.812  0.00  0.00    +0.059 C 
ATOM     28  C   UNL     1      32.996 -11.951 -22.643  0.00  0.00    +0.051 C 
ATOM     29  C   UNL     1      32.577 -13.160 -20.596  0.00  0.00    +0.001 C 
ATOM     30  C   UNL     1      32.228 -10.863 -22.213  0.00  0.00    +0.015 C 
ATOM     31  C   UNL     1      33.757 -11.201 -24.915  0.00  0.00    +0.117 C 
ATOM     32  C   UNL     1      31.806 -12.078 -20.151  0.00  0.00    +0.000 C 
ATOM     33  C   UNL     1      31.635 -10.948 -20.950  0.00  0.00    +0.001 C 
ENDBRANCH  23  25
ENDBRANCH  20  23
ENDBRANCH  19  20
ENDBRANCH   4  19
TORSDOF 6
ENDMDL
MODEL 6
REMARK VINA RESULT:     -10.1      5.299     10.917
REMARK  Name = 11538455
REMARK  6 active torsions:
REMARK  status: ('A' for Active; 'I' for Inactive)
REMARK    1  A    between atoms: C_4  and  C_19
REMARK    2  A    between atoms: C_12  and  C_15
REMARK    3  A    between atoms: N_14  and  O_17
REMARK    4  A    between atoms: C_19  and  N_20
REMARK    5  A    between atoms: N_20  and  C_23
REMARK    6  A    between atoms: C_23  and  C_25
REMARK                            x       y       z     vdW  Elec       q    Type
REMARK                         _______ _______ _______ _____ _____    ______ ____
ROOT
ATOM      1  N   UNL     1      34.630 -16.619 -22.677  0.00  0.00    -0.253 N 
ATOM      2  N   UNL     1      33.979 -15.120 -24.380  0.00  0.00    -0.203 NA
ATOM      3  N   UNL     1      34.457 -14.323 -22.156  0.00  0.00    -0.180 NA
ATOM      4  C   UNL     1      35.361 -19.298 -21.855  0.00  0.00    -0.018 C 
ATOM      5  C   UNL     1      34.296 -19.046 -22.927  0.00  0.00    +0.020 C 
ATOM      6  C   UNL     1      35.388 -18.120 -20.876  0.00  0.00    +0.020 C 
ATOM      7  C   UNL     1      34.522 -17.716 -23.645  0.00  0.00    +0.101 C 
ATOM      8  C   UNL     1      35.616 -16.795 -21.602  0.00  0.00    +0.101 C 
ATOM      9  C   UNL     1      34.346 -15.310 -23.084  0.00  0.00    +0.090 C 
ATOM     10  C   UNL     1      33.709 -13.847 -24.737  0.00  0.00    +0.170 C 
ATOM     11  C   UNL     1      34.173 -13.075 -22.581  0.00  0.00    +0.113 C 
ATOM     12  C   UNL     1      33.791 -12.774 -23.873  0.00  0.00    +0.078 C 
ENDROOT
BRANCH  12  15
ATOM     13  O   UNL     1      33.468 -11.115 -25.503  0.00  0.00    -0.268 OA
ATOM     14  N   UNL     1      33.258 -10.479 -23.297  0.00  0.00    -0.194 N 
ATOM     15  C   UNL     1      33.495 -11.419 -24.294  0.00  0.00    +0.267 C 
ATOM     16  H   UNL     1      33.279 -10.724 -22.343  0.00  0.00    +0.183 HD
BRANCH  14  17
ATOM     17  O   UNL     1      32.985  -9.168 -23.712  0.00  0.00    -0.295 OA
ATOM     18  H   UNL     1      33.525  -8.547 -23.198  0.00  0.00    +0.241 HD
ENDBRANCH  14  17
ENDBRANCH  12  15
BRANCH   4  19
ATOM     19  C   UNL     1      35.094 -20.609 -21.121  0.00  0.00    -0.081 C 
BRANCH  19  20
ATOM     20  N   UNL     1      34.358 -20.374 -19.888  0.00  0.00    +0.386 N 
ATOM     21  H   UNL     1      33.655 -19.652 -20.052  0.00  0.00    -0.084 HD
ATOM     22  H   UNL     1      35.016 -20.074 -19.169  0.00  0.00    -0.084 HD
BRANCH  20  23
ATOM     23  C   UNL     1      33.695 -21.590 -19.434  0.00  0.00    -0.053 C 
BRANCH  23  25
ATOM     24  N   UNL     1      35.689 -22.481 -16.507  0.00  0.00    -0.284 N 
ATOM     25  C   UNL     1      34.265 -22.042 -18.118  0.00  0.00    -0.028 C 
ATOM     26  C   UNL     1      33.529 -22.594 -17.053  0.00  0.00    +0.009 C 
ATOM     27  C   UNL     1      35.580 -21.976 -17.776  0.00  0.00    +0.059 C 
ATOM     28  C   UNL     1      34.453 -22.865 -16.041  0.00  0.00    +0.051 C 
ATOM     29  C   UNL     1      32.172 -22.896 -16.832  0.00  0.00    +0.001 C 
ATOM     30  C   UNL     1      34.084 -23.427 -14.813  0.00  0.00    +0.015 C 
ATOM     31  C   UNL     1      36.934 -22.585 -15.776  0.00  0.00    +0.117 C 
ATOM     32  C   UNL     1      31.787 -23.459 -15.608  0.00  0.00    +0.000 C 
ATOM     33  C   UNL     1      32.732 -23.719 -14.616  0.00  0.00    +0.001 C 
ENDBRANCH  23  25
ENDBRANCH  20  23
ENDBRANCH  19  20
ENDBRANCH   4  19
TORSDOF 6
ENDMDL
MODEL 7
REMARK VINA RESULT:     -10.1      2.526      4.552
REMARK  Name = 11538455
REMARK  6 active torsions:
REMARK  status: ('A' for Active; 'I' for Inactive)
REMARK    1  A    between atoms: C_4  and  C_19
REMARK    2  A    between atoms: C_12  and  C_15
REMARK    3  A    between atoms: N_14  and  O_17
REMARK    4  A    between atoms: C_19  and  N_20
REMARK    5  A    between atoms: N_20  and  C_23
REMARK    6  A    between atoms: C_23  and  C_25
REMARK                            x       y       z     vdW  Elec       q    Type
REMARK                         _______ _______ _______ _____ _____    ______ ____
ROOT
ATOM      1  N   UNL     1      34.860 -19.227 -21.391  0.00  0.00    -0.253 N 
ATOM      2  N   UNL     1      35.755 -20.401 -19.548  0.00  0.00    -0.203 NA
ATOM      3  N   UNL     1      33.482 -20.772 -20.257  0.00  0.00    -0.180 NA
ATOM      4  C   UNL     1      35.232 -17.399 -23.605  0.00  0.00    -0.018 C 
ATOM      5  C   UNL     1      35.973 -17.217 -22.276  0.00  0.00    +0.020 C 
ATOM      6  C   UNL     1      33.890 -18.092 -23.350  0.00  0.00    +0.020 C 
ATOM      7  C   UNL     1      36.150 -18.546 -21.543  0.00  0.00    +0.101 C 
ATOM      8  C   UNL     1      34.076 -19.420 -22.618  0.00  0.00    +0.101 C 
ATOM      9  C   UNL     1      34.693 -20.165 -20.365  0.00  0.00    +0.090 C 
ATOM     10  C   UNL     1      35.558 -21.308 -18.569  0.00  0.00    +0.170 C 
ATOM     11  C   UNL     1      33.355 -21.667 -19.256  0.00  0.00    +0.113 C 
ATOM     12  C   UNL     1      34.369 -21.979 -18.374  0.00  0.00    +0.078 C 
ENDROOT
BRANCH  12  15
ATOM     13  O   UNL     1      33.351 -23.862 -17.408  0.00  0.00    -0.268 OA
ATOM     14  N   UNL     1      34.995 -22.809 -16.182  0.00  0.00    -0.194 N 
ATOM     15  C   UNL     1      34.195 -22.949 -17.310  0.00  0.00    +0.267 C 
ATOM     16  H   UNL     1      35.661 -22.086 -16.110  0.00  0.00    +0.183 HD
BRANCH  14  17
ATOM     17  O   UNL     1      34.812 -23.743 -15.153  0.00  0.00    -0.295 OA
ATOM     18  H   UNL     1      35.465 -24.455 -15.242  0.00  0.00    +0.241 HD
ENDBRANCH  14  17
ENDBRANCH  12  15
BRANCH   4  19
ATOM     19  C   UNL     1      35.027 -16.056 -24.302  0.00  0.00    -0.081 C 
BRANCH  19  20
ATOM     20  N   UNL     1      34.225 -15.162 -23.481  0.00  0.00    +0.386 N 
ATOM     21  H   UNL     1      34.835 -14.677 -22.822  0.00  0.00    -0.084 HD
ATOM     22  H   UNL     1      33.529 -15.716 -22.981  0.00  0.00    -0.084 HD
BRANCH  20  23
ATOM     23  C   UNL     1      33.532 -14.178 -24.303  0.00  0.00    -0.053 C 
BRANCH  23  25
ATOM     24  N   UNL     1      32.352 -11.642 -21.956  0.00  0.00    -0.284 N 
ATOM     25  C   UNL     1      33.204 -12.953 -23.495  0.00  0.00    -0.028 C 
ATOM     26  C   UNL     1      33.680 -11.653 -23.747  0.00  0.00    +0.009 C 
ATOM     27  C   UNL     1      32.396 -12.936 -22.401  0.00  0.00    +0.059 C 
ATOM     28  C   UNL     1      33.127 -10.836 -22.759  0.00  0.00    +0.051 C 
ATOM     29  C   UNL     1      34.526 -11.072 -24.712  0.00  0.00    +0.001 C 
ATOM     30  C   UNL     1      33.378  -9.461 -22.687  0.00  0.00    +0.015 C 
ATOM     31  C   UNL     1      31.595 -11.201 -20.803  0.00  0.00    +0.117 C 
ATOM     32  C   UNL     1      34.787  -9.697 -24.654  0.00  0.00    +0.000 C 
ATOM     33  C   UNL     1      34.220  -8.906 -23.655  0.00  0.00    +0.001 C 
ENDBRANCH  23  25
ENDBRANCH  20  23
ENDBRANCH  19  20
ENDBRANCH   4  19
TORSDOF 6
ENDMDL
MODEL 8
REMARK VINA RESULT:     -10.1      1.006      2.061
REMARK  Name = 11538455
REMARK  6 active torsions:
REMARK  status: ('A' for Active; 'I' for Inactive)
REMARK    1  A    between atoms: C_4  and  C_19
REMARK    2  A    between atoms: C_12  and  C_15
REMARK    3  A    between atoms: N_14  and  O_17
REMARK    4  A    between atoms: C_19  and  N_20
REMARK    5  A    between atoms: N_20  and  C_23
REMARK    6  A    between atoms: C_23  and  C_25
REMARK                            x       y       z     vdW  Elec       q    Type
REMARK                         _______ _______ _______ _____ _____    ______ ____
ROOT
ATOM      1  N   UNL     1      33.899 -21.642 -18.620  0.00  0.00    -0.253 N 
ATOM      2  N   UNL     1      34.106 -23.098 -16.773  0.00  0.00    -0.203 NA
ATOM      3  N   UNL     1      31.957 -22.207 -17.402  0.00  0.00    -0.180 NA
ATOM      4  C   UNL     1      35.096 -20.310 -20.895  0.00  0.00    -0.018 C 
ATOM      5  C   UNL     1      35.873 -20.540 -19.595  0.00  0.00    +0.020 C 
ATOM      6  C   UNL     1      33.603 -20.180 -20.580  0.00  0.00    +0.020 C 
ATOM      7  C   UNL     1      35.346 -21.754 -18.830  0.00  0.00    +0.101 C 
ATOM      8  C   UNL     1      33.084 -21.398 -19.818  0.00  0.00    +0.101 C 
ATOM      9  C   UNL     1      33.300 -22.339 -17.563  0.00  0.00    +0.090 C 
ATOM     10  C   UNL     1      33.497 -23.753 -15.763  0.00  0.00    +0.170 C 
ATOM     11  C   UNL     1      31.414 -22.890 -16.374  0.00  0.00    +0.113 C 
ATOM     12  C   UNL     1      32.142 -23.686 -15.513  0.00  0.00    +0.078 C 
ENDROOT
BRANCH  12  15
ATOM     13  O   UNL     1      32.190 -24.767 -13.429  0.00  0.00    -0.268 OA
ATOM     14  N   UNL     1      30.165 -24.685 -14.526  0.00  0.00    -0.194 N 
ATOM     15  C   UNL     1      31.522 -24.406 -14.418  0.00  0.00    +0.267 C 
ATOM     16  H   UNL     1      29.641 -24.397 -15.309  0.00  0.00    +0.183 HD
BRANCH  14  17
ATOM     17  O   UNL     1      29.575 -25.393 -13.469  0.00  0.00    -0.295 OA
ATOM     18  H   UNL     1      30.163 -25.374 -12.698  0.00  0.00    +0.241 HD
ENDBRANCH  14  17
ENDBRANCH  12  15
BRANCH   4  19
ATOM     19  C   UNL     1      35.609 -19.070 -21.623  0.00  0.00    -0.081 C 
BRANCH  19  20
ATOM     20  N   UNL     1      34.594 -18.537 -22.518  0.00  0.00    +0.386 N 
ATOM     21  H   UNL     1      33.822 -18.165 -21.963  0.00  0.00    -0.084 HD
ATOM     22  H   UNL     1      34.267 -19.289 -23.124  0.00  0.00    -0.084 HD
BRANCH  20  23
ATOM     23  C   UNL     1      35.138 -17.473 -23.351  0.00  0.00    -0.053 C 
BRANCH  23  25
ATOM     24  N   UNL     1      34.398 -14.471 -21.407  0.00  0.00    -0.284 N 
ATOM     25  C   UNL     1      34.755 -16.125 -22.804  0.00  0.00    -0.028 C 
ATOM     26  C   UNL     1      34.264 -15.044 -23.559  0.00  0.00    +0.009 C 
ATOM     27  C   UNL     1      34.834 -15.766 -21.494  0.00  0.00    +0.059 C 
ATOM     28  C   UNL     1      34.044 -14.005 -22.653  0.00  0.00    +0.051 C 
ATOM     29  C   UNL     1      33.979 -14.828 -24.921  0.00  0.00    +0.001 C 
ATOM     30  C   UNL     1      33.549 -12.754 -23.043  0.00  0.00    +0.015 C 
ATOM     31  C   UNL     1      34.329 -13.716 -20.175  0.00  0.00    +0.117 C 
ATOM     32  C   UNL     1      33.483 -13.582 -25.327  0.00  0.00    +0.000 C 
ATOM     33  C   UNL     1      33.273 -12.563 -24.399  0.00  0.00    +0.001 C 
ENDBRANCH  23  25
ENDBRANCH  20  23
ENDBRANCH  19  20
ENDBRANCH   4  19
TORSDOF 6
ENDMDL
MODEL 9
REMARK VINA RESULT:     -10.0      5.160     10.741
REMARK  Name = 11538455
REMARK  6 active torsions:
REMARK  status: ('A' for Active; 'I' for Inactive)
REMARK    1  A    between atoms: C_4  and  C_19
REMARK    2  A    between atoms: C_12  and  C_15
REMARK    3  A    between atoms: N_14  and  O_17
REMARK    4  A    between atoms: C_19  and  N_20
REMARK    5  A    between atoms: N_20  and  C_23
REMARK    6  A    between atoms: C_23  and  C_25
REMARK                            x       y       z     vdW  Elec       q    Type
REMARK                         _______ _______ _______ _____ _____    ______ ____
ROOT
ATOM      1  N   UNL     1      34.697 -16.729 -22.508  0.00  0.00    -0.253 N 
ATOM      2  N   UNL     1      34.046 -15.243 -24.223  0.00  0.00    -0.203 NA
ATOM      3  N   UNL     1      34.534 -14.428 -22.008  0.00  0.00    -0.180 NA
ATOM      4  C   UNL     1      35.420 -19.402 -21.663  0.00  0.00    -0.018 C 
ATOM      5  C   UNL     1      34.353 -19.157 -22.734  0.00  0.00    +0.020 C 
ATOM      6  C   UNL     1      35.455 -18.215 -20.696  0.00  0.00    +0.020 C 
ATOM      7  C   UNL     1      34.582 -17.834 -23.466  0.00  0.00    +0.101 C 
ATOM      8  C   UNL     1      35.686 -16.898 -21.434  0.00  0.00    +0.101 C 
ATOM      9  C   UNL     1      34.417 -15.422 -22.926  0.00  0.00    +0.090 C 
ATOM     10  C   UNL     1      33.780 -13.973 -24.591  0.00  0.00    +0.170 C 
ATOM     11  C   UNL     1      34.254 -13.182 -22.444  0.00  0.00    +0.113 C 
ATOM     12  C   UNL     1      33.869 -12.892 -23.737  0.00  0.00    +0.078 C 
ENDROOT
BRANCH  12  15
ATOM     13  O   UNL     1      33.706 -11.207 -25.365  0.00  0.00    -0.268 OA
ATOM     14  N   UNL     1      33.163 -10.635 -23.199  0.00  0.00    -0.194 N 
ATOM     15  C   UNL     1      33.577 -11.540 -24.170  0.00  0.00    +0.267 C 
ATOM     16  H   UNL     1      33.061 -10.903 -22.257  0.00  0.00    +0.183 HD
BRANCH  14  17
ATOM     17  O   UNL     1      32.894  -9.326 -23.623  0.00  0.00    -0.295 OA
ATOM     18  H   UNL     1      33.235  -8.697 -22.968  0.00  0.00    +0.241 HD
ENDBRANCH  14  17
ENDBRANCH  12  15
BRANCH   4  19
ATOM     19  C   UNL     1      35.151 -20.706 -20.916  0.00  0.00    -0.081 C 
BRANCH  19  20
ATOM     20  N   UNL     1      34.265 -20.482 -19.784  0.00  0.00    +0.386 N 
ATOM     21  H   UNL     1      33.643 -19.701 -19.997  0.00  0.00    -0.084 HD
ATOM     22  H   UNL     1      34.832 -20.273 -18.963  0.00  0.00    -0.084 HD
BRANCH  20  23
ATOM     23  C   UNL     1      33.463 -21.666 -19.505  0.00  0.00    -0.053 C 
BRANCH  23  25
ATOM     24  N   UNL     1      33.470 -23.081 -16.139  0.00  0.00    -0.284 N 
ATOM     25  C   UNL     1      33.745 -22.181 -18.121  0.00  0.00    -0.028 C 
ATOM     26  C   UNL     1      34.995 -22.152 -17.474  0.00  0.00    +0.009 C 
ATOM     27  C   UNL     1      32.822 -22.750 -17.298  0.00  0.00    +0.059 C 
ATOM     28  C   UNL     1      34.798 -22.728 -16.218  0.00  0.00    +0.051 C 
ATOM     29  C   UNL     1      36.284 -21.698 -17.818  0.00  0.00    +0.001 C 
ATOM     30  C   UNL     1      35.829 -22.873 -15.283  0.00  0.00    +0.015 C 
ATOM     31  C   UNL     1      32.834 -23.714 -15.003  0.00  0.00    +0.117 C 
ATOM     32  C   UNL     1      37.326 -21.836 -16.892  0.00  0.00    +0.000 C 
ATOM     33  C   UNL     1      37.099 -22.415 -15.645  0.00  0.00    +0.001 C 
ENDBRANCH  23  25
ENDBRANCH  20  23
ENDBRANCH  19  20
ENDBRANCH   4  19
TORSDOF 6
ENDMDL
