MODEL 1
REMARK VINA RESULT:     -12.5      0.000      0.000
REMARK  Name = 9808844
REMARK  5 active torsions:
REMARK  status: ('A' for Active; 'I' for Inactive)
REMARK    1  A    between atoms: N_2  and  C_13
REMARK    2  A    between atoms: C_8  and  O_19
REMARK    3  A    between atoms: O_19  and  C_20
REMARK    4  A    between atoms: C_20  and  C_22
REMARK    5  A    between atoms: C_25  and  C_29
REMARK                            x       y       z     vdW  Elec       q    Type
REMARK                         _______ _______ _______ _____ _____    ______ ____
ROOT
ATOM      1  O   UNL     1      35.230 -22.909 -16.705  0.00  0.00    -0.446 OA
ATOM      2  N   UNL     1      35.589 -19.794 -20.199  0.00  0.00    -0.296 N 
ATOM      3  N   UNL     1      33.493 -20.835 -19.715  0.00  0.00    -0.130 NA
ATOM      4  N   UNL     1      32.691 -21.703 -18.983  0.00  0.00    -0.106 NA
ATOM      5  C   UNL     1      35.361 -21.415 -18.394  0.00  0.00    +0.076 A 
ATOM      6  C   UNL     1      34.531 -22.273 -17.686  0.00  0.00    +0.202 A 
ATOM      7  C   UNL     1      34.808 -20.681 -19.439  0.00  0.00    +0.157 A 
ATOM      8  C   UNL     1      33.190 -22.431 -17.965  0.00  0.00    +0.279 A 
ATOM      9  C   UNL     1      36.644 -21.544 -17.801  0.00  0.00    +0.047 C 
ATOM     10  C   UNL     1      36.510 -22.460 -16.783  0.00  0.00    +0.180 C 
ATOM     11  H   UNL     1      36.531 -19.757 -19.917  0.00  0.00    +0.154 HD
ENDROOT
BRANCH   2  13
ATOM     12 CL   UNL     1      34.339 -16.234 -24.762  0.00  0.00    -0.082 Cl
ATOM     13  C   UNL     1      35.291 -18.945 -21.287  0.00  0.00    +0.049 C 
ATOM     14  C   UNL     1      35.544 -17.577 -21.193  0.00  0.00    +0.016 C 
ATOM     15  C   UNL     1      34.744 -19.476 -22.455  0.00  0.00    +0.016 C 
ATOM     16  C   UNL     1      35.250 -16.739 -22.267  0.00  0.00    +0.013 C 
ATOM     17  C   UNL     1      34.450 -18.637 -23.530  0.00  0.00    +0.013 C 
ATOM     18  C   UNL     1      34.703 -17.269 -23.436  0.00  0.00    +0.058 C 
ENDBRANCH   2  13
BRANCH   8  19
ATOM     19  O   UNL     1      32.363 -23.275 -17.272  0.00  0.00    -0.452 OA
BRANCH  19  20
ATOM     20  C   UNL     1      32.131 -22.963 -15.903  0.00  0.00    +0.234 C 
BRANCH  20  22
ATOM     21  N   UNL     1      28.255 -24.406 -14.778  0.00  0.00    -0.239 NA
ATOM     22  C   UNL     1      30.773 -23.467 -15.509  0.00  0.00    +0.024 C 
ATOM     23  C   UNL     1      29.643 -22.745 -15.854  0.00  0.00    +0.023 C 
ATOM     24  C   UNL     1      30.659 -24.654 -14.802  0.00  0.00    +0.020 C 
ATOM     25  C   UNL     1      28.414 -23.254 -15.468  0.00  0.00    +0.134 C 
ATOM     26  C   UNL     1      29.385 -25.078 -14.462  0.00  0.00    +0.099 C 
BRANCH  25  29
ATOM     27  O   UNL     1      26.310 -22.364 -14.938  0.00  0.00    -0.268 OA
ATOM     28  N   UNL     1      27.067 -22.065 -17.109  0.00  0.00    -0.298 N 
ATOM     29  C   UNL     1      27.190 -22.546 -15.799  0.00  0.00    +0.264 C 
ATOM     30  C   UNL     1      25.922 -21.322 -17.584  0.00  0.00    +0.111 C 
ATOM     31  H   UNL     1      27.800 -22.243 -17.740  0.00  0.00    +0.150 HD
ENDBRANCH  25  29
ENDBRANCH  20  22
ENDBRANCH  19  20
ENDBRANCH   8  19
TORSDOF 5
ENDMDL
MODEL 2
REMARK VINA RESULT:     -12.4      2.418      4.044
REMARK  Name = 9808844
REMARK  5 active torsions:
REMARK  status: ('A' for Active; 'I' for Inactive)
REMARK    1  A    between atoms: N_2  and  C_13
REMARK    2  A    between atoms: C_8  and  O_19
REMARK    3  A    between atoms: O_19  and  C_20
REMARK    4  A    between atoms: C_20  and  C_22
REMARK    5  A    between atoms: C_25  and  C_29
REMARK                            x       y       z     vdW  Elec       q    Type
REMARK                         _______ _______ _______ _____ _____    ______ ____
ROOT
ATOM      1  O   UNL     1      35.324 -22.890 -16.757  0.00  0.00    -0.446 OA
ATOM      2  N   UNL     1      35.629 -19.725 -20.210  0.00  0.00    -0.296 N 
ATOM      3  N   UNL     1      33.564 -20.844 -19.772  0.00  0.00    -0.130 NA
ATOM      4  N   UNL     1      32.781 -21.748 -19.063  0.00  0.00    -0.106 NA
ATOM      5  C   UNL     1      35.429 -21.373 -18.427  0.00  0.00    +0.076 A 
ATOM      6  C   UNL     1      34.619 -22.268 -17.742  0.00  0.00    +0.202 A 
ATOM      7  C   UNL     1      34.868 -20.647 -19.472  0.00  0.00    +0.157 A 
ATOM      8  C   UNL     1      33.289 -22.470 -18.045  0.00  0.00    +0.279 A 
ATOM      9  C   UNL     1      36.707 -21.464 -17.815  0.00  0.00    +0.047 C 
ATOM     10  C   UNL     1      36.589 -22.396 -16.809  0.00  0.00    +0.180 C 
ATOM     11  H   UNL     1      36.564 -19.657 -19.912  0.00  0.00    +0.154 HD
ENDROOT
BRANCH   2  13
ATOM     12 CL   UNL     1      34.327 -16.158 -24.753  0.00  0.00    -0.082 Cl
ATOM     13  C   UNL     1      35.318 -18.874 -21.293  0.00  0.00    +0.049 C 
ATOM     14  C   UNL     1      34.786 -19.407 -22.467  0.00  0.00    +0.016 C 
ATOM     15  C   UNL     1      35.544 -17.502 -21.189  0.00  0.00    +0.016 C 
ATOM     16  C   UNL     1      34.479 -18.567 -23.537  0.00  0.00    +0.013 C 
ATOM     17  C   UNL     1      35.237 -16.662 -22.259  0.00  0.00    +0.013 C 
ATOM     18  C   UNL     1      34.705 -17.194 -23.432  0.00  0.00    +0.058 C 
ENDBRANCH   2  13
BRANCH   8  19
ATOM     19  O   UNL     1      32.481 -23.350 -17.374  0.00  0.00    -0.452 OA
BRANCH  19  20
ATOM     20  C   UNL     1      31.571 -22.795 -16.432  0.00  0.00    +0.234 C 
BRANCH  20  22
ATOM     21  N   UNL     1      32.143 -24.707 -12.639  0.00  0.00    -0.239 NA
ATOM     22  C   UNL     1      31.772 -23.464 -15.104  0.00  0.00    +0.024 C 
ATOM     23  C   UNL     1      33.005 -23.395 -14.477  0.00  0.00    +0.023 C 
ATOM     24  C   UNL     1      30.722 -24.149 -14.513  0.00  0.00    +0.020 C 
ATOM     25  C   UNL     1      33.139 -24.029 -13.252  0.00  0.00    +0.134 C 
ATOM     26  C   UNL     1      30.958 -24.750 -13.287  0.00  0.00    +0.099 C 
BRANCH  25  29
ATOM     27  O   UNL     1      34.542 -24.589 -11.458  0.00  0.00    -0.268 OA
ATOM     28  N   UNL     1      35.453 -23.284 -13.144  0.00  0.00    -0.298 N 
ATOM     29  C   UNL     1      34.405 -23.992 -12.542  0.00  0.00    +0.264 C 
ATOM     30  C   UNL     1      36.777 -23.176 -12.575  0.00  0.00    +0.111 C 
ATOM     31  H   UNL     1      35.278 -22.836 -14.003  0.00  0.00    +0.150 HD
ENDBRANCH  25  29
ENDBRANCH  20  22
ENDBRANCH  19  20
ENDBRANCH   8  19
TORSDOF 5
ENDMDL
MODEL 3
REMARK VINA RESULT:     -11.6      1.211      1.622
REMARK  Name = 9808844
REMARK  5 active torsions:
REMARK  status: ('A' for Active; 'I' for Inactive)
REMARK    1  A    between atoms: N_2  and  C_13
REMARK    2  A    between atoms: C_8  and  O_19
REMARK    3  A    between atoms: O_19  and  C_20
REMARK    4  A    between atoms: C_20  and  C_22
REMARK    5  A    between atoms: C_25  and  C_29
REMARK                            x       y       z     vdW  Elec       q    Type
REMARK                         _______ _______ _______ _____ _____    ______ ____
ROOT
ATOM      1  O   UNL     1      35.453 -22.343 -17.809  0.00  0.00    -0.446 OA
ATOM      2  N   UNL     1      35.529 -18.998 -21.102  0.00  0.00    -0.296 N 
ATOM      3  N   UNL     1      33.463 -20.000 -20.440  0.00  0.00    -0.130 NA
ATOM      4  N   UNL     1      32.717 -20.891 -19.678  0.00  0.00    -0.106 NA
ATOM      5  C   UNL     1      35.447 -20.736 -19.397  0.00  0.00    +0.076 A 
ATOM      6  C   UNL     1      34.671 -21.614 -18.653  0.00  0.00    +0.202 A 
ATOM      7  C   UNL     1      34.807 -19.911 -20.315  0.00  0.00    +0.157 A 
ATOM      8  C   UNL     1      33.301 -21.707 -18.779  0.00  0.00    +0.279 A 
ATOM      9  C   UNL     1      36.785 -20.951 -18.972  0.00  0.00    +0.047 C 
ATOM     10  C   UNL     1      36.733 -21.932 -18.009  0.00  0.00    +0.180 C 
ATOM     11  H   UNL     1      36.498 -19.012 -20.933  0.00  0.00    +0.154 HD
ENDROOT
BRANCH   2  13
ATOM     12 CL   UNL     1      33.901 -15.077 -25.229  0.00  0.00    -0.082 Cl
ATOM     13  C   UNL     1      35.141 -18.063 -22.086  0.00  0.00    +0.049 C 
ATOM     14  C   UNL     1      34.614 -18.506 -23.299  0.00  0.00    +0.016 C 
ATOM     15  C   UNL     1      35.284 -16.697 -21.844  0.00  0.00    +0.016 C 
ATOM     16  C   UNL     1      34.230 -17.583 -24.271  0.00  0.00    +0.013 C 
ATOM     17  C   UNL     1      34.900 -15.773 -22.816  0.00  0.00    +0.013 C 
ATOM     18  C   UNL     1      34.374 -16.216 -24.029  0.00  0.00    +0.058 C 
ENDBRANCH   2  13
BRANCH   8  19
ATOM     19  O   UNL     1      32.527 -22.570 -18.050  0.00  0.00    -0.452 OA
BRANCH  19  20
ATOM     20  C   UNL     1      32.902 -22.777 -16.693  0.00  0.00    +0.234 C 
BRANCH  20  22
ATOM     21  N   UNL     1      29.477 -24.096 -14.479  0.00  0.00    -0.239 NA
ATOM     22  C   UNL     1      31.702 -23.238 -15.918  0.00  0.00    +0.024 C 
ATOM     23  C   UNL     1      30.430 -22.984 -16.402  0.00  0.00    +0.023 C 
ATOM     24  C   UNL     1      31.875 -23.916 -14.721  0.00  0.00    +0.020 C 
ATOM     25  C   UNL     1      29.356 -23.431 -15.649  0.00  0.00    +0.134 C 
ATOM     26  C   UNL     1      30.737 -24.322 -14.043  0.00  0.00    +0.099 C 
BRANCH  25  29
ATOM     27  O   UNL     1      27.529 -23.836 -17.062  0.00  0.00    -0.268 OA
ATOM     28  N   UNL     1      27.244 -22.249 -15.397  0.00  0.00    -0.298 N 
ATOM     29  C   UNL     1      27.996 -23.197 -16.102  0.00  0.00    +0.264 C 
ATOM     30  C   UNL     1      25.872 -21.922 -15.710  0.00  0.00    +0.111 C 
ATOM     31  H   UNL     1      27.674 -21.779 -14.646  0.00  0.00    +0.150 HD
ENDBRANCH  25  29
ENDBRANCH  20  22
ENDBRANCH  19  20
ENDBRANCH   8  19
TORSDOF 5
ENDMDL
MODEL 4
REMARK VINA RESULT:     -11.4      7.489     11.338
REMARK  Name = 9808844
REMARK  5 active torsions:
REMARK  status: ('A' for Active; 'I' for Inactive)
REMARK    1  A    between atoms: N_2  and  C_13
REMARK    2  A    between atoms: C_8  and  O_19
REMARK    3  A    between atoms: O_19  and  C_20
REMARK    4  A    between atoms: C_20  and  C_22
REMARK    5  A    between atoms: C_25  and  C_29
REMARK                            x       y       z     vdW  Elec       q    Type
REMARK                         _______ _______ _______ _____ _____    ______ ____
ROOT
ATOM      1  O   UNL     1      32.458 -13.560 -21.278  0.00  0.00    -0.446 OA
ATOM      2  N   UNL     1      32.629  -8.996 -22.363  0.00  0.00    -0.296 N 
ATOM      3  N   UNL     1      33.450 -10.637 -23.893  0.00  0.00    -0.130 NA
ATOM      4  N   UNL     1      33.715 -11.950 -24.264  0.00  0.00    -0.106 NA
ATOM      5  C   UNL     1      32.558 -11.374 -21.837  0.00  0.00    +0.076 A 
ATOM      6  C   UNL     1      32.836 -12.673 -22.240  0.00  0.00    +0.202 A 
ATOM      7  C   UNL     1      32.882 -10.335 -22.704  0.00  0.00    +0.157 A 
ATOM      8  C   UNL     1      33.415 -12.983 -23.452  0.00  0.00    +0.279 A 
ATOM      9  C   UNL     1      31.974 -11.487 -20.548  0.00  0.00    +0.047 C 
ATOM     10  C   UNL     1      31.935 -12.831 -20.257  0.00  0.00    +0.180 C 
ATOM     11  H   UNL     1      32.214  -8.886 -21.477  0.00  0.00    +0.154 HD
ENDROOT
BRANCH   2  13
ATOM     12 CL   UNL     1      33.559  -3.880 -25.195  0.00  0.00    -0.082 Cl
ATOM     13  C   UNL     1      32.850  -7.776 -23.038  0.00  0.00    +0.049 C 
ATOM     14  C   UNL     1      31.781  -7.101 -23.625  0.00  0.00    +0.016 C 
ATOM     15  C   UNL     1      34.139  -7.247 -23.116  0.00  0.00    +0.016 C 
ATOM     16  C   UNL     1      32.000  -5.896 -24.292  0.00  0.00    +0.013 C 
ATOM     17  C   UNL     1      34.357  -6.042 -23.783  0.00  0.00    +0.013 C 
ATOM     18  C   UNL     1      33.288  -5.367 -24.371  0.00  0.00    +0.058 C 
ENDBRANCH   2  13
BRANCH   8  19
ATOM     19  O   UNL     1      33.694 -14.261 -23.857  0.00  0.00    -0.452 OA
BRANCH  19  20
ATOM     20  C   UNL     1      34.952 -14.798 -23.463  0.00  0.00    +0.234 C 
BRANCH  20  22
ATOM     21  N   UNL     1      34.582 -19.046 -23.031  0.00  0.00    -0.239 NA
ATOM     22  C   UNL     1      34.823 -16.286 -23.311  0.00  0.00    +0.024 C 
ATOM     23  C   UNL     1      35.328 -16.909 -22.182  0.00  0.00    +0.023 C 
ATOM     24  C   UNL     1      34.200 -17.027 -24.303  0.00  0.00    +0.020 C 
ATOM     25  C   UNL     1      35.183 -18.284 -22.090  0.00  0.00    +0.134 C 
ATOM     26  C   UNL     1      34.105 -18.396 -24.116  0.00  0.00    +0.099 C 
BRANCH  25  29
ATOM     27  O   UNL     1      36.617 -18.524 -20.249  0.00  0.00    -0.268 OA
ATOM     28  N   UNL     1      35.074 -20.215 -20.613  0.00  0.00    -0.298 N 
ATOM     29  C   UNL     1      35.689 -18.998 -20.931  0.00  0.00    +0.264 C 
ATOM     30  C   UNL     1      35.448 -21.030 -19.479  0.00  0.00    +0.111 C 
ATOM     31  H   UNL     1      34.345 -20.533 -21.194  0.00  0.00    +0.150 HD
ENDBRANCH  25  29
ENDBRANCH  20  22
ENDBRANCH  19  20
ENDBRANCH   8  19
TORSDOF 5
ENDMDL
MODEL 5
REMARK VINA RESULT:     -11.4      5.135      9.601
REMARK  Name = 9808844
REMARK  5 active torsions:
REMARK  status: ('A' for Active; 'I' for Inactive)
REMARK    1  A    between atoms: N_2  and  C_13
REMARK    2  A    between atoms: C_8  and  O_19
REMARK    3  A    between atoms: O_19  and  C_20
REMARK    4  A    between atoms: C_20  and  C_22
REMARK    5  A    between atoms: C_25  and  C_29
REMARK                            x       y       z     vdW  Elec       q    Type
REMARK                         _______ _______ _______ _____ _____    ______ ____
ROOT
ATOM      1  O   UNL     1      33.548 -20.180 -20.668  0.00  0.00    -0.446 OA
ATOM      2  N   UNL     1      34.891 -22.549 -16.844  0.00  0.00    -0.296 N 
ATOM      3  N   UNL     1      36.496 -21.372 -18.167  0.00  0.00    -0.130 NA
ATOM      4  N   UNL     1      36.852 -20.575 -19.248  0.00  0.00    -0.106 NA
ATOM      5  C   UNL     1      34.234 -21.307 -18.835  0.00  0.00    +0.076 A 
ATOM      6  C   UNL     1      34.625 -20.513 -19.904  0.00  0.00    +0.202 A 
ATOM      7  C   UNL     1      35.214 -21.742 -17.948  0.00  0.00    +0.157 A 
ATOM      8  C   UNL     1      35.932 -20.135 -20.129  0.00  0.00    +0.279 A 
ATOM      9  C   UNL     1      32.829 -21.462 -18.963  0.00  0.00    +0.047 C 
ATOM     10  C   UNL     1      32.463 -20.759 -20.089  0.00  0.00    +0.180 C 
ATOM     11  H   UNL     1      33.932 -22.760 -16.776  0.00  0.00    +0.154 HD
ENDROOT
BRANCH   2  13
ATOM     12 CL   UNL     1      38.151 -24.928 -12.511  0.00  0.00    -0.082 Cl
ATOM     13  C   UNL     1      35.668 -23.116 -15.811  0.00  0.00    +0.049 C 
ATOM     14  C   UNL     1      35.167 -24.184 -15.068  0.00  0.00    +0.016 C 
ATOM     15  C   UNL     1      36.938 -22.608 -15.535  0.00  0.00    +0.016 C 
ATOM     16  C   UNL     1      35.935 -24.744 -14.047  0.00  0.00    +0.013 C 
ATOM     17  C   UNL     1      37.706 -23.169 -14.515  0.00  0.00    +0.013 C 
ATOM     18  C   UNL     1      37.204 -24.237 -13.771  0.00  0.00    +0.058 C 
ENDBRANCH   2  13
BRANCH   8  19
ATOM     19  O   UNL     1      36.327 -19.352 -21.181  0.00  0.00    -0.452 OA
BRANCH  19  20
ATOM     20  C   UNL     1      35.941 -17.983 -21.141  0.00  0.00    +0.234 C 
BRANCH  20  22
ATOM     21  N   UNL     1      33.794 -17.032 -24.727  0.00  0.00    -0.239 NA
ATOM     22  C   UNL     1      35.189 -17.649 -22.397  0.00  0.00    +0.024 C 
ATOM     23  C   UNL     1      34.928 -16.326 -22.712  0.00  0.00    +0.023 C 
ATOM     24  C   UNL     1      34.760 -18.668 -23.232  0.00  0.00    +0.020 C 
ATOM     25  C   UNL     1      34.231 -16.072 -23.883  0.00  0.00    +0.134 C 
ATOM     26  C   UNL     1      34.070 -18.309 -24.379  0.00  0.00    +0.099 C 
BRANCH  25  29
ATOM     27  O   UNL     1      33.602 -14.438 -25.443  0.00  0.00    -0.268 OA
ATOM     28  N   UNL     1      33.991 -13.729 -23.270  0.00  0.00    -0.298 N 
ATOM     29  C   UNL     1      33.926 -14.706 -24.271  0.00  0.00    +0.264 C 
ATOM     30  C   UNL     1      33.693 -12.333 -23.494  0.00  0.00    +0.111 C 
ATOM     31  H   UNL     1      34.254 -14.009 -22.364  0.00  0.00    +0.150 HD
ENDBRANCH  25  29
ENDBRANCH  20  22
ENDBRANCH  19  20
ENDBRANCH   8  19
TORSDOF 5
ENDMDL
MODEL 6
REMARK VINA RESULT:     -11.2      6.044     10.931
REMARK  Name = 9808844
REMARK  5 active torsions:
REMARK  status: ('A' for Active; 'I' for Inactive)
REMARK    1  A    between atoms: N_2  and  C_13
REMARK    2  A    between atoms: C_8  and  O_19
REMARK    3  A    between atoms: O_19  and  C_20
REMARK    4  A    between atoms: C_20  and  C_22
REMARK    5  A    between atoms: C_25  and  C_29
REMARK                            x       y       z     vdW  Elec       q    Type
REMARK                         _______ _______ _______ _____ _____    ______ ____
ROOT
ATOM      1  O   UNL     1      34.535 -17.598 -24.302  0.00  0.00    -0.446 OA
ATOM      2  N   UNL     1      35.002 -20.604 -20.727  0.00  0.00    -0.296 N 
ATOM      3  N   UNL     1      35.405 -18.270 -20.408  0.00  0.00    -0.130 NA
ATOM      4  N   UNL     1      35.473 -16.960 -20.867  0.00  0.00    -0.106 NA
ATOM      5  C   UNL     1      34.770 -19.012 -22.557  0.00  0.00    +0.076 A 
ATOM      6  C   UNL     1      34.849 -17.692 -22.980  0.00  0.00    +0.202 A 
ATOM      7  C   UNL     1      35.061 -19.292 -21.226  0.00  0.00    +0.157 A 
ATOM      8  C   UNL     1      35.199 -16.650 -22.149  0.00  0.00    +0.279 A 
ATOM      9  C   UNL     1      34.384 -19.761 -23.699  0.00  0.00    +0.047 C 
ATOM     10  C   UNL     1      34.254 -18.857 -24.729  0.00  0.00    +0.180 C 
ATOM     11  H   UNL     1      34.743 -21.271 -21.402  0.00  0.00    +0.154 HD
ENDROOT
BRANCH   2  13
ATOM     12 CL   UNL     1      36.001 -22.920 -15.370  0.00  0.00    -0.082 Cl
ATOM     13  C   UNL     1      35.240 -21.156 -19.450  0.00  0.00    +0.049 C 
ATOM     14  C   UNL     1      34.209 -21.799 -18.765  0.00  0.00    +0.016 C 
ATOM     15  C   UNL     1      36.507 -21.060 -18.874  0.00  0.00    +0.016 C 
ATOM     16  C   UNL     1      34.445 -22.345 -17.504  0.00  0.00    +0.013 C 
ATOM     17  C   UNL     1      36.742 -21.605 -17.612  0.00  0.00    +0.013 C 
ATOM     18  C   UNL     1      35.711 -22.248 -16.928  0.00  0.00    +0.058 C 
ENDBRANCH   2  13
BRANCH   8  19
ATOM     19  O   UNL     1      35.279 -15.345 -22.558  0.00  0.00    -0.452 OA
BRANCH  19  20
ATOM     20  C   UNL     1      34.218 -14.483 -22.164  0.00  0.00    +0.234 C 
BRANCH  20  22
ATOM     21  N   UNL     1      33.486 -11.647 -25.293  0.00  0.00    -0.239 NA
ATOM     22  C   UNL     1      33.962 -13.489 -23.259  0.00  0.00    +0.024 C 
ATOM     23  C   UNL     1      34.046 -12.133 -22.993  0.00  0.00    +0.023 C 
ATOM     24  C   UNL     1      33.641 -13.936 -24.532  0.00  0.00    +0.020 C 
ATOM     25  C   UNL     1      33.801 -11.257 -24.038  0.00  0.00    +0.134 C 
ATOM     26  C   UNL     1      33.414 -12.980 -25.508  0.00  0.00    +0.099 C 
BRANCH  25  29
ATOM     27  O   UNL     1      34.920  -9.196 -24.081  0.00  0.00    -0.268 OA
ATOM     28  N   UNL     1      32.720  -9.189 -23.348  0.00  0.00    -0.298 N 
ATOM     29  C   UNL     1      33.875  -9.822 -23.825  0.00  0.00    +0.264 C 
ATOM     30  C   UNL     1      32.628  -7.767 -23.108  0.00  0.00    +0.111 C 
ATOM     31  H   UNL     1      31.927  -9.743 -23.167  0.00  0.00    +0.150 HD
ENDBRANCH  25  29
ENDBRANCH  20  22
ENDBRANCH  19  20
ENDBRANCH   8  19
TORSDOF 5
ENDMDL
MODEL 7
REMARK VINA RESULT:     -11.0      8.119     12.041
REMARK  Name = 9808844
REMARK  5 active torsions:
REMARK  status: ('A' for Active; 'I' for Inactive)
REMARK    1  A    between atoms: N_2  and  C_13
REMARK    2  A    between atoms: C_8  and  O_19
REMARK    3  A    between atoms: O_19  and  C_20
REMARK    4  A    between atoms: C_20  and  C_22
REMARK    5  A    between atoms: C_25  and  C_29
REMARK                            x       y       z     vdW  Elec       q    Type
REMARK                         _______ _______ _______ _____ _____    ______ ____
ROOT
ATOM      1  O   UNL     1      32.091 -12.463 -21.222  0.00  0.00    -0.446 OA
ATOM      2  N   UNL     1      32.597  -8.062 -22.776  0.00  0.00    -0.296 N 
ATOM      3  N   UNL     1      33.605  -9.885 -23.948  0.00  0.00    -0.130 NA
ATOM      4  N   UNL     1      33.882 -11.236 -24.115  0.00  0.00    -0.106 NA
ATOM      5  C   UNL     1      32.357 -10.360 -22.002  0.00  0.00    +0.076 A 
ATOM      6  C   UNL     1      32.654 -11.702 -22.200  0.00  0.00    +0.202 A 
ATOM      7  C   UNL     1      32.857  -9.436 -22.914  0.00  0.00    +0.157 A 
ATOM      8  C   UNL     1      33.416 -12.161 -23.253  0.00  0.00    +0.279 A 
ATOM      9  C   UNL     1      31.563 -10.311 -20.827  0.00  0.00    +0.047 C 
ATOM     10  C   UNL     1      31.430 -11.611 -20.394  0.00  0.00    +0.180 C 
ATOM     11  H   UNL     1      32.044  -7.842 -21.992  0.00  0.00    +0.154 HD
ENDROOT
BRANCH   2  13
ATOM     12 CL   UNL     1      34.161  -3.331 -25.975  0.00  0.00    -0.082 Cl
ATOM     13  C   UNL     1      32.970  -6.934 -23.539  0.00  0.00    +0.049 C 
ATOM     14  C   UNL     1      34.314  -6.585 -23.654  0.00  0.00    +0.016 C 
ATOM     15  C   UNL     1      31.993  -6.171 -24.177  0.00  0.00    +0.016 C 
ATOM     16  C   UNL     1      34.683  -5.471 -24.407  0.00  0.00    +0.013 C 
ATOM     17  C   UNL     1      32.361  -5.057 -24.931  0.00  0.00    +0.013 C 
ATOM     18  C   UNL     1      33.706  -4.707 -25.046  0.00  0.00    +0.058 C 
ENDBRANCH   2  13
BRANCH   8  19
ATOM     19  O   UNL     1      33.715 -13.483 -23.456  0.00  0.00    -0.452 OA
BRANCH  19  20
ATOM     20  C   UNL     1      34.580 -14.097 -22.508  0.00  0.00    +0.234 C 
BRANCH  20  22
ATOM     21  N   UNL     1      34.994 -18.250 -23.483  0.00  0.00    -0.239 NA
ATOM     22  C   UNL     1      34.726 -15.551 -22.849  0.00  0.00    +0.024 C 
ATOM     23  C   UNL     1      35.365 -16.405 -21.966  0.00  0.00    +0.023 C 
ATOM     24  C   UNL     1      34.220 -16.031 -24.047  0.00  0.00    +0.020 C 
ATOM     25  C   UNL     1      35.472 -17.739 -22.327  0.00  0.00    +0.134 C 
ATOM     26  C   UNL     1      34.379 -17.380 -24.316  0.00  0.00    +0.099 C 
BRANCH  25  29
ATOM     27  O   UNL     1      37.365 -18.656 -21.289  0.00  0.00    -0.268 OA
ATOM     28  N   UNL     1      35.313 -19.604 -20.772  0.00  0.00    -0.298 N 
ATOM     29  C   UNL     1      36.130 -18.686 -21.444  0.00  0.00    +0.264 C 
ATOM     30  C   UNL     1      35.815 -20.591 -19.844  0.00  0.00    +0.111 C 
ATOM     31  H   UNL     1      34.344 -19.573 -20.939  0.00  0.00    +0.150 HD
ENDBRANCH  25  29
ENDBRANCH  20  22
ENDBRANCH  19  20
ENDBRANCH   8  19
TORSDOF 5
ENDMDL
MODEL 8
REMARK VINA RESULT:     -10.7      6.220     10.783
REMARK  Name = 9808844
REMARK  5 active torsions:
REMARK  status: ('A' for Active; 'I' for Inactive)
REMARK    1  A    between atoms: N_2  and  C_13
REMARK    2  A    between atoms: C_8  and  O_19
REMARK    3  A    between atoms: O_19  and  C_20
REMARK    4  A    between atoms: C_20  and  C_22
REMARK    5  A    between atoms: C_25  and  C_29
REMARK                            x       y       z     vdW  Elec       q    Type
REMARK                         _______ _______ _______ _____ _____    ______ ____
ROOT
ATOM      1  O   UNL     1      34.283 -17.045 -24.447  0.00  0.00    -0.446 OA
ATOM      2  N   UNL     1      34.872 -20.214 -21.034  0.00  0.00    -0.296 N 
ATOM      3  N   UNL     1      35.273 -17.896 -20.617  0.00  0.00    -0.130 NA
ATOM      4  N   UNL     1      35.321 -16.565 -21.015  0.00  0.00    -0.106 NA
ATOM      5  C   UNL     1      34.577 -18.538 -22.778  0.00  0.00    +0.076 A 
ATOM      6  C   UNL     1      34.637 -17.200 -23.141  0.00  0.00    +0.202 A 
ATOM      7  C   UNL     1      34.909 -18.879 -21.471  0.00  0.00    +0.157 A 
ATOM      8  C   UNL     1      35.007 -16.196 -22.272  0.00  0.00    +0.279 A 
ATOM      9  C   UNL     1      34.160 -19.235 -23.942  0.00  0.00    +0.047 C 
ATOM     10  C   UNL     1      33.995 -18.285 -24.924  0.00  0.00    +0.180 C 
ATOM     11  H   UNL     1      34.595 -20.850 -21.732  0.00  0.00    +0.154 HD
ENDROOT
BRANCH   2  13
ATOM     12 CL   UNL     1      36.042 -22.776 -15.826  0.00  0.00    -0.082 Cl
ATOM     13  C   UNL     1      35.151 -20.825 -19.792  0.00  0.00    +0.049 C 
ATOM     14  C   UNL     1      36.442 -20.778 -19.267  0.00  0.00    +0.016 C 
ATOM     15  C   UNL     1      34.135 -21.474 -19.091  0.00  0.00    +0.016 C 
ATOM     16  C   UNL     1      36.718 -21.381 -18.040  0.00  0.00    +0.013 C 
ATOM     17  C   UNL     1      34.411 -22.077 -17.864  0.00  0.00    +0.013 C 
ATOM     18  C   UNL     1      35.702 -22.031 -17.339  0.00  0.00    +0.058 C 
ENDBRANCH   2  13
BRANCH   8  19
ATOM     19  O   UNL     1      35.069 -14.872 -22.621  0.00  0.00    -0.452 OA
BRANCH  19  20
ATOM     20  C   UNL     1      34.057 -14.394 -23.499  0.00  0.00    +0.234 C 
BRANCH  20  22
ATOM     21  N   UNL     1      32.342 -10.832 -21.842  0.00  0.00    -0.239 NA
ATOM     22  C   UNL     1      33.457 -13.146 -22.919  0.00  0.00    +0.024 C 
ATOM     23  C   UNL     1      33.859 -11.906 -23.387  0.00  0.00    +0.023 C 
ATOM     24  C   UNL     1      32.503 -13.242 -21.918  0.00  0.00    +0.020 C 
ATOM     25  C   UNL     1      33.274 -10.785 -22.819  0.00  0.00    +0.134 C 
ATOM     26  C   UNL     1      31.979 -12.062 -21.415  0.00  0.00    +0.099 C 
BRANCH  25  29
ATOM     27  O   UNL     1      34.782  -9.246 -23.745  0.00  0.00    -0.268 OA
ATOM     28  N   UNL     1      32.687  -8.448 -23.153  0.00  0.00    -0.298 N 
ATOM     29  C   UNL     1      33.652  -9.456 -23.266  0.00  0.00    +0.264 C 
ATOM     30  C   UNL     1      32.903  -7.082 -23.575  0.00  0.00    +0.111 C 
ATOM     31  H   UNL     1      31.813  -8.682 -22.766  0.00  0.00    +0.150 HD
ENDBRANCH  25  29
ENDBRANCH  20  22
ENDBRANCH  19  20
ENDBRANCH   8  19
TORSDOF 5
ENDMDL
MODEL 9
REMARK VINA RESULT:     -10.4      7.127     11.140
REMARK  Name = 9808844
REMARK  5 active torsions:
REMARK  status: ('A' for Active; 'I' for Inactive)
REMARK    1  A    between atoms: N_2  and  C_13
REMARK    2  A    between atoms: C_8  and  O_19
REMARK    3  A    between atoms: O_19  and  C_20
REMARK    4  A    between atoms: C_20  and  C_22
REMARK    5  A    between atoms: C_25  and  C_29
REMARK                            x       y       z     vdW  Elec       q    Type
REMARK                         _______ _______ _______ _____ _____    ______ ____
ROOT
ATOM      1  O   UNL     1      33.780 -13.913 -25.668  0.00  0.00    -0.446 OA
ATOM      2  N   UNL     1      33.030  -9.572 -24.044  0.00  0.00    -0.296 N 
ATOM      3  N   UNL     1      33.179 -11.421 -22.537  0.00  0.00    -0.130 NA
ATOM      4  N   UNL     1      33.352 -12.772 -22.262  0.00  0.00    -0.106 NA
ATOM      5  C   UNL     1      33.418 -11.840 -24.847  0.00  0.00    +0.076 A 
ATOM      6  C   UNL     1      33.587 -13.182 -24.535  0.00  0.00    +0.202 A 
ATOM      7  C   UNL     1      33.208 -10.945 -23.803  0.00  0.00    +0.157 A 
ATOM      8  C   UNL     1      33.558 -13.669 -23.246  0.00  0.00    +0.279 A 
ATOM      9  C   UNL     1      33.516 -11.758 -26.261  0.00  0.00    +0.047 C 
ATOM     10  C   UNL     1      33.736 -13.040 -26.709  0.00  0.00    +0.180 C 
ATOM     11  H   UNL     1      33.069  -9.331 -24.998  0.00  0.00    +0.154 HD
ENDROOT
BRANCH   2  13
ATOM     12 CL   UNL     1      32.092  -4.949 -20.467  0.00  0.00    -0.082 Cl
ATOM     13  C   UNL     1      32.806  -8.470 -23.192  0.00  0.00    +0.049 C 
ATOM     14  C   UNL     1      33.886  -7.819 -22.597  0.00  0.00    +0.016 C 
ATOM     15  C   UNL     1      31.505  -8.033 -22.944  0.00  0.00    +0.016 C 
ATOM     16  C   UNL     1      33.665  -6.730 -21.755  0.00  0.00    +0.013 C 
ATOM     17  C   UNL     1      31.284  -6.944 -22.102  0.00  0.00    +0.013 C 
ATOM     18  C   UNL     1      32.364  -6.292 -21.507  0.00  0.00    +0.058 C 
ENDBRANCH   2  13
BRANCH   8  19
ATOM     19  O   UNL     1      33.722 -14.992 -22.929  0.00  0.00    -0.452 OA
BRANCH  19  20
ATOM     20  C   UNL     1      35.042 -15.515 -23.030  0.00  0.00    +0.234 C 
BRANCH  20  22
ATOM     21  N   UNL     1      34.889 -19.778 -22.611  0.00  0.00    -0.239 NA
ATOM     22  C   UNL     1      34.989 -17.008 -22.882  0.00  0.00    +0.024 C 
ATOM     23  C   UNL     1      35.467 -17.604 -21.727  0.00  0.00    +0.023 C 
ATOM     24  C   UNL     1      34.462 -17.781 -23.905  0.00  0.00    +0.020 C 
ATOM     25  C   UNL     1      35.395 -18.984 -21.641  0.00  0.00    +0.134 C 
ATOM     26  C   UNL     1      34.435 -19.154 -23.721  0.00  0.00    +0.099 C 
BRANCH  25  29
ATOM     27  O   UNL     1      36.907 -19.280 -19.872  0.00  0.00    -0.268 OA
ATOM     28  N   UNL     1      35.126 -20.760 -19.998  0.00  0.00    -0.298 N 
ATOM     29  C   UNL     1      35.878 -19.671 -20.455  0.00  0.00    +0.264 C 
ATOM     30  C   UNL     1      35.464 -21.528 -18.822  0.00  0.00    +0.111 C 
ATOM     31  H   UNL     1      34.323 -21.016 -20.506  0.00  0.00    +0.150 HD
ENDBRANCH  25  29
ENDBRANCH  20  22
ENDBRANCH  19  20
ENDBRANCH   8  19
TORSDOF 5
ENDMDL
