MODEL 1
REMARK VINA RESULT:     -12.6      0.000      0.000
REMARK  Name = 23656870
REMARK  4 active torsions:
REMARK  status: ('A' for Active; 'I' for Inactive)
REMARK    1  A    between atoms: N_2  and  C_25
REMARK    2  A    between atoms: N_3  and  C_14
REMARK    3  A    between atoms: C_10  and  C_32
REMARK    4  A    between atoms: C_16  and  N_21
REMARK                            x       y       z     vdW  Elec       q    Type
REMARK                         _______ _______ _______ _____ _____    ______ ____
ROOT
ATOM      1  N   UNL     1      31.809 -23.192 -15.007  0.00  0.00    -0.123 N 
ATOM      2  N   UNL     1      34.074 -23.591 -14.471  0.00  0.00    -0.274 N 
ATOM      3  N   UNL     1      32.717 -22.055 -18.736  0.00  0.00    -0.238 N 
ATOM      4  N   UNL     1      33.400 -22.823 -16.610  0.00  0.00    -0.295 NA
ATOM      5  N   UNL     1      31.099 -22.431 -17.116  0.00  0.00    -0.314 NA
ATOM      6  N   UNL     1      31.389 -23.554 -13.780  0.00  0.00    -0.170 NA
ATOM      7  C   UNL     1      33.140 -23.197 -15.391  0.00  0.00    +0.279 C 
ATOM      8  C   UNL     1      30.807 -22.817 -15.854  0.00  0.00    +0.219 C 
ATOM      9  C   UNL     1      32.368 -22.441 -17.463  0.00  0.00    +0.207 C 
ATOM     10  C   UNL     1      29.645 -22.944 -15.127  0.00  0.00    +0.203 C 
ATOM     11  C   UNL     1      30.065 -23.399 -13.861  0.00  0.00    +0.116 C 
ATOM     12  H   UNL     1      33.725 -23.847 -13.587  0.00  0.00    +0.156 HD
ATOM     13  H   UNL     1      32.049 -22.227 -19.437  0.00  0.00    +0.166 HD
ENDROOT
BRANCH   3  14
ATOM     14  C   UNL     1      33.901 -21.453 -19.155  0.00  0.00    +0.060 C 
ATOM     15  C   UNL     1      33.860 -20.370 -20.034  0.00  0.00    +0.030 C 
ATOM     16  C   UNL     1      35.045 -19.766 -20.452  0.00  0.00    +0.052 C 
ATOM     17  C   UNL     1      35.128 -21.931 -18.696  0.00  0.00    +0.015 C 
ATOM     18  C   UNL     1      36.272 -20.244 -19.994  0.00  0.00    +0.015 C 
ATOM     19  C   UNL     1      36.314 -21.327 -19.114  0.00  0.00    +0.003 C 
BRANCH  16  21
ATOM     20  O   UNL     1      34.866 -19.696 -23.457  0.00  0.00    -0.275 OA
ATOM     21  N   UNL     1      35.004 -18.684 -21.333  0.00  0.00    -0.284 N 
ATOM     22  C   UNL     1      34.922 -18.709 -22.732  0.00  0.00    +0.227 C 
ATOM     23  C   UNL     1      34.901 -17.319 -23.316  0.00  0.00    +0.095 C 
ATOM     24  H   UNL     1      35.037 -17.790 -20.920  0.00  0.00    +0.155 HD
ENDBRANCH  16  21
ENDBRANCH   3  14
BRANCH   2  25
ATOM     25  C   UNL     1      35.460 -23.677 -14.628  0.00  0.00    +0.051 C 
ATOM     26  C   UNL     1      36.179 -22.578 -15.095  0.00  0.00    +0.015 C 
ATOM     27  C   UNL     1      36.125 -24.863 -14.315  0.00  0.00    +0.015 C 
ATOM     28  C   UNL     1      37.562 -22.662 -15.252  0.00  0.00    +0.001 C 
ATOM     29  C   UNL     1      37.509 -24.948 -14.470  0.00  0.00    +0.001 C 
ATOM     30  C   UNL     1      38.228 -23.848 -14.939  0.00  0.00    +0.000 C 
ENDBRANCH   2  25
BRANCH  10  32
ATOM     31  N   UNL     1      27.248 -22.442 -15.944  0.00  0.00    -0.195 NA
ATOM     32  C   UNL     1      28.326 -22.668 -15.577  0.00  0.00    +0.087 C 
ENDBRANCH  10  32
TORSDOF 4
ENDMDL
MODEL 2
REMARK VINA RESULT:     -11.2      2.349      5.782
REMARK  Name = 23656870
REMARK  4 active torsions:
REMARK  status: ('A' for Active; 'I' for Inactive)
REMARK    1  A    between atoms: N_2  and  C_25
REMARK    2  A    between atoms: N_3  and  C_14
REMARK    3  A    between atoms: C_10  and  C_32
REMARK    4  A    between atoms: C_16  and  N_21
REMARK                            x       y       z     vdW  Elec       q    Type
REMARK                         _______ _______ _______ _____ _____    ______ ____
ROOT
ATOM      1  N   UNL     1      36.264 -24.834 -13.609  0.00  0.00    -0.123 N 
ATOM      2  N   UNL     1      33.914 -24.662 -13.469  0.00  0.00    -0.274 N 
ATOM      3  N   UNL     1      36.450 -22.170 -16.591  0.00  0.00    -0.238 N 
ATOM      4  N   UNL     1      35.178 -23.410 -15.034  0.00  0.00    -0.295 NA
ATOM      5  N   UNL     1      37.557 -23.610 -15.147  0.00  0.00    -0.314 NA
ATOM      6  N   UNL     1      36.321 -25.738 -12.614  0.00  0.00    -0.170 NA
ATOM      7  C   UNL     1      35.082 -24.273 -14.065  0.00  0.00    +0.279 C 
ATOM      8  C   UNL     1      37.479 -24.508 -14.139  0.00  0.00    +0.219 C 
ATOM      9  C   UNL     1      36.425 -23.087 -15.567  0.00  0.00    +0.207 C 
ATOM     10  C   UNL     1      38.398 -25.255 -13.439  0.00  0.00    +0.203 C 
ATOM     11  C   UNL     1      37.629 -25.992 -12.515  0.00  0.00    +0.116 C 
ATOM     12  H   UNL     1      33.999 -25.324 -12.746  0.00  0.00    +0.156 HD
ATOM     13  H   UNL     1      37.261 -21.617 -16.655  0.00  0.00    +0.166 HD
ENDROOT
BRANCH   3  14
ATOM     14  C   UNL     1      35.468 -21.925 -17.548  0.00  0.00    +0.060 C 
ATOM     15  C   UNL     1      35.796 -21.263 -18.731  0.00  0.00    +0.030 C 
ATOM     16  C   UNL     1      34.813 -21.019 -19.690  0.00  0.00    +0.052 C 
ATOM     17  C   UNL     1      34.156 -22.343 -17.324  0.00  0.00    +0.015 C 
ATOM     18  C   UNL     1      33.502 -21.437 -19.466  0.00  0.00    +0.015 C 
ATOM     19  C   UNL     1      33.172 -22.100 -18.283  0.00  0.00    +0.003 C 
BRANCH  16  21
ATOM     20  O   UNL     1      35.435 -18.117 -20.194  0.00  0.00    -0.275 OA
ATOM     21  N   UNL     1      35.141 -20.355 -20.872  0.00  0.00    -0.284 N 
ATOM     22  C   UNL     1      35.421 -18.994 -21.051  0.00  0.00    +0.227 C 
ATOM     23  C   UNL     1      35.732 -18.671 -22.492  0.00  0.00    +0.095 C 
ATOM     24  H   UNL     1      35.181 -20.913 -21.684  0.00  0.00    +0.155 HD
ENDBRANCH  16  21
ENDBRANCH   3  14
BRANCH   2  25
ATOM     25  C   UNL     1      32.614 -24.236 -13.755  0.00  0.00    +0.051 C 
ATOM     26  C   UNL     1      32.392 -22.951 -14.249  0.00  0.00    +0.015 C 
ATOM     27  C   UNL     1      31.536 -25.098 -13.547  0.00  0.00    +0.015 C 
ATOM     28  C   UNL     1      31.095 -22.526 -14.535  0.00  0.00    +0.001 C 
ATOM     29  C   UNL     1      30.238 -24.674 -13.834  0.00  0.00    +0.001 C 
ATOM     30  C   UNL     1      30.017 -23.388 -14.327  0.00  0.00    +0.000 C 
ENDBRANCH   2  25
BRANCH  10  32
ATOM     31  N   UNL     1      40.957 -25.271 -13.778  0.00  0.00    -0.195 NA
ATOM     32  C   UNL     1      39.806 -25.264 -13.625  0.00  0.00    +0.087 C 
ENDBRANCH  10  32
TORSDOF 4
ENDMDL
MODEL 3
REMARK VINA RESULT:     -10.1      3.119      7.769
REMARK  Name = 23656870
REMARK  4 active torsions:
REMARK  status: ('A' for Active; 'I' for Inactive)
REMARK    1  A    between atoms: N_2  and  C_25
REMARK    2  A    between atoms: N_3  and  C_14
REMARK    3  A    between atoms: C_10  and  C_32
REMARK    4  A    between atoms: C_16  and  N_21
REMARK                            x       y       z     vdW  Elec       q    Type
REMARK                         _______ _______ _______ _____ _____    ______ ____
ROOT
ATOM      1  N   UNL     1      33.334 -21.722 -18.227  0.00  0.00    -0.123 N 
ATOM      2  N   UNL     1      31.827 -22.806 -16.770  0.00  0.00    -0.274 N 
ATOM      3  N   UNL     1      36.519 -23.201 -16.306  0.00  0.00    -0.238 N 
ATOM      4  N   UNL     1      34.177 -23.009 -16.533  0.00  0.00    -0.295 NA
ATOM      5  N   UNL     1      35.672 -21.897 -18.028  0.00  0.00    -0.314 NA
ATOM      6  N   UNL     1      32.340 -21.169 -18.947  0.00  0.00    -0.170 NA
ATOM      7  C   UNL     1      33.120 -22.544 -17.134  0.00  0.00    +0.279 C 
ATOM      8  C   UNL     1      34.587 -21.404 -18.667  0.00  0.00    +0.219 C 
ATOM      9  C   UNL     1      35.449 -22.676 -16.991  0.00  0.00    +0.207 C 
ATOM     10  C   UNL     1      34.398 -20.583 -19.756  0.00  0.00    +0.203 C 
ATOM     11  C   UNL     1      32.998 -20.474 -19.880  0.00  0.00    +0.116 C 
ATOM     12  H   UNL     1      31.130 -22.383 -17.322  0.00  0.00    +0.156 HD
ATOM     13  H   UNL     1      37.333 -23.364 -16.835  0.00  0.00    +0.166 HD
ENDROOT
BRANCH   3  14
ATOM     14  C   UNL     1      36.594 -23.532 -14.955  0.00  0.00    +0.060 C 
ATOM     15  C   UNL     1      36.655 -24.871 -14.567  0.00  0.00    +0.030 C 
ATOM     16  C   UNL     1      36.731 -25.202 -13.215  0.00  0.00    +0.052 C 
ATOM     17  C   UNL     1      36.609 -22.525 -13.989  0.00  0.00    +0.015 C 
ATOM     18  C   UNL     1      36.746 -24.196 -12.249  0.00  0.00    +0.015 C 
ATOM     19  C   UNL     1      36.686 -22.857 -12.636  0.00  0.00    +0.003 C 
BRANCH  16  21
ATOM     20  O   UNL     1      38.980 -27.196 -13.406  0.00  0.00    -0.275 OA
ATOM     21  N   UNL     1      36.790 -26.541 -12.826  0.00  0.00    -0.284 N 
ATOM     22  C   UNL     1      37.869 -27.429 -12.940  0.00  0.00    +0.227 C 
ATOM     23  C   UNL     1      37.528 -28.795 -12.400  0.00  0.00    +0.095 C 
ATOM     24  H   UNL     1      35.972 -26.909 -12.420  0.00  0.00    +0.155 HD
ENDBRANCH  16  21
ENDBRANCH   3  14
BRANCH   2  25
ATOM     25  C   UNL     1      31.370 -23.600 -15.714  0.00  0.00    +0.051 C 
ATOM     26  C   UNL     1      32.139 -23.736 -14.559  0.00  0.00    +0.015 C 
ATOM     27  C   UNL     1      30.142 -24.255 -15.815  0.00  0.00    +0.015 C 
ATOM     28  C   UNL     1      31.683 -24.527 -13.505  0.00  0.00    +0.001 C 
ATOM     29  C   UNL     1      29.685 -25.046 -14.761  0.00  0.00    +0.001 C 
ATOM     30  C   UNL     1      30.455 -25.183 -13.606  0.00  0.00    +0.000 C 
ENDBRANCH   2  25
BRANCH  10  32
ATOM     31  N   UNL     1      36.233 -19.503 -21.214  0.00  0.00    -0.195 NA
ATOM     32  C   UNL     1      35.408 -19.989 -20.558  0.00  0.00    +0.087 C 
ENDBRANCH  10  32
TORSDOF 4
ENDMDL
MODEL 4
REMARK VINA RESULT:     -10.0      2.633      6.333
REMARK  Name = 23656870
REMARK  4 active torsions:
REMARK  status: ('A' for Active; 'I' for Inactive)
REMARK    1  A    between atoms: N_2  and  C_25
REMARK    2  A    between atoms: N_3  and  C_14
REMARK    3  A    between atoms: C_10  and  C_32
REMARK    4  A    between atoms: C_16  and  N_21
REMARK                            x       y       z     vdW  Elec       q    Type
REMARK                         _______ _______ _______ _____ _____    ______ ____
ROOT
ATOM      1  N   UNL     1      31.074 -23.251 -16.428  0.00  0.00    -0.123 N 
ATOM      2  N   UNL     1      32.355 -22.161 -18.085  0.00  0.00    -0.274 N 
ATOM      3  N   UNL     1      34.219 -23.577 -13.974  0.00  0.00    -0.238 N 
ATOM      4  N   UNL     1      33.294 -22.867 -16.027  0.00  0.00    -0.295 NA
ATOM      5  N   UNL     1      31.967 -23.967 -14.373  0.00  0.00    -0.314 NA
ATOM      6  N   UNL     1      29.952 -23.196 -17.169  0.00  0.00    -0.170 NA
ATOM      7  C   UNL     1      32.293 -22.745 -16.849  0.00  0.00    +0.279 C 
ATOM      8  C   UNL     1      30.914 -23.850 -15.212  0.00  0.00    +0.219 C 
ATOM      9  C   UNL     1      33.117 -23.482 -14.789  0.00  0.00    +0.207 C 
ATOM     10  C   UNL     1      29.588 -24.214 -15.154  0.00  0.00    +0.203 C 
ATOM     11  C   UNL     1      29.047 -23.788 -16.384  0.00  0.00    +0.116 C 
ATOM     12  H   UNL     1      31.513 -22.141 -18.595  0.00  0.00    +0.156 HD
ATOM     13  H   UNL     1      34.042 -23.569 -13.006  0.00  0.00    +0.166 HD
ENDROOT
BRANCH   3  14
ATOM     14  C   UNL     1      35.557 -23.684 -14.348  0.00  0.00    +0.060 C 
ATOM     15  C   UNL     1      36.195 -24.924 -14.311  0.00  0.00    +0.030 C 
ATOM     16  C   UNL     1      37.534 -25.031 -14.687  0.00  0.00    +0.052 C 
ATOM     17  C   UNL     1      36.258 -22.551 -14.761  0.00  0.00    +0.015 C 
ATOM     18  C   UNL     1      38.235 -23.899 -15.099  0.00  0.00    +0.015 C 
ATOM     19  C   UNL     1      37.598 -22.658 -15.137  0.00  0.00    +0.003 C 
BRANCH  16  21
ATOM     20  O   UNL     1      36.847 -27.628 -16.047  0.00  0.00    -0.275 OA
ATOM     21  N   UNL     1      38.172 -26.271 -14.648  0.00  0.00    -0.284 N 
ATOM     22  C   UNL     1      37.807 -27.454 -15.304  0.00  0.00    +0.227 C 
ATOM     23  C   UNL     1      38.764 -28.580 -15.001  0.00  0.00    +0.095 C 
ATOM     24  H   UNL     1      38.983 -26.322 -14.089  0.00  0.00    +0.155 HD
ENDBRANCH  16  21
ENDBRANCH   3  14
BRANCH   2  25
ATOM     25  C   UNL     1      33.461 -21.586 -18.716  0.00  0.00    +0.051 C 
ATOM     26  C   UNL     1      34.751 -21.957 -18.338  0.00  0.00    +0.015 C 
ATOM     27  C   UNL     1      33.276 -20.640 -19.725  0.00  0.00    +0.015 C 
ATOM     28  C   UNL     1      35.856 -21.384 -18.967  0.00  0.00    +0.001 C 
ATOM     29  C   UNL     1      34.381 -20.067 -20.355  0.00  0.00    +0.001 C 
ATOM     30  C   UNL     1      35.671 -20.438 -19.976  0.00  0.00    +0.000 C 
ENDBRANCH   2  25
BRANCH  10  32
ATOM     31  N   UNL     1      28.399 -25.415 -13.203  0.00  0.00    -0.195 NA
ATOM     32  C   UNL     1      28.933 -24.874 -14.080  0.00  0.00    +0.087 C 
ENDBRANCH  10  32
TORSDOF 4
ENDMDL
MODEL 5
REMARK VINA RESULT:      -9.9      3.206      7.105
REMARK  Name = 23656870
REMARK  4 active torsions:
REMARK  status: ('A' for Active; 'I' for Inactive)
REMARK    1  A    between atoms: N_2  and  C_25
REMARK    2  A    between atoms: N_3  and  C_14
REMARK    3  A    between atoms: C_10  and  C_32
REMARK    4  A    between atoms: C_16  and  N_21
REMARK                            x       y       z     vdW  Elec       q    Type
REMARK                         _______ _______ _______ _____ _____    ______ ____
ROOT
ATOM      1  N   UNL     1      36.201 -23.100 -13.379  0.00  0.00    -0.123 N 
ATOM      2  N   UNL     1      36.394 -22.347 -15.608  0.00  0.00    -0.274 N 
ATOM      3  N   UNL     1      32.379 -24.170 -13.894  0.00  0.00    -0.238 N 
ATOM      4  N   UNL     1      34.380 -23.261 -14.756  0.00  0.00    -0.295 NA
ATOM      5  N   UNL     1      34.221 -24.013 -12.494  0.00  0.00    -0.314 NA
ATOM      6  N   UNL     1      37.476 -22.778 -13.092  0.00  0.00    -0.170 NA
ATOM      7  C   UNL     1      35.623 -22.901 -14.622  0.00  0.00    +0.279 C 
ATOM      8  C   UNL     1      35.513 -23.647 -12.334  0.00  0.00    +0.219 C 
ATOM      9  C   UNL     1      33.690 -23.816 -13.680  0.00  0.00    +0.207 C 
ATOM     10  C   UNL     1      36.405 -23.685 -11.286  0.00  0.00    +0.203 C 
ATOM     11  C   UNL     1      37.594 -23.138 -11.811  0.00  0.00    +0.116 C 
ATOM     12  H   UNL     1      37.320 -22.127 -15.357  0.00  0.00    +0.156 HD
ATOM     13  H   UNL     1      32.044 -24.927 -13.362  0.00  0.00    +0.166 HD
ENDROOT
BRANCH   3  14
ATOM     14  C   UNL     1      31.465 -23.591 -14.772  0.00  0.00    +0.060 C 
ATOM     15  C   UNL     1      30.141 -23.400 -14.376  0.00  0.00    +0.030 C 
ATOM     16  C   UNL     1      29.227 -22.819 -15.254  0.00  0.00    +0.052 C 
ATOM     17  C   UNL     1      31.874 -23.199 -16.047  0.00  0.00    +0.015 C 
ATOM     18  C   UNL     1      29.636 -22.428 -16.528  0.00  0.00    +0.015 C 
ATOM     19  C   UNL     1      30.960 -22.618 -16.925  0.00  0.00    +0.003 C 
BRANCH  16  21
ATOM     20  O   UNL     1      26.912 -21.563 -16.712  0.00  0.00    -0.275 OA
ATOM     21  N   UNL     1      27.902 -22.630 -14.859  0.00  0.00    -0.284 N 
ATOM     22  C   UNL     1      26.860 -22.035 -15.582  0.00  0.00    +0.227 C 
ATOM     23  C   UNL     1      25.571 -22.024 -14.798  0.00  0.00    +0.095 C 
ATOM     24  H   UNL     1      27.670 -22.957 -13.958  0.00  0.00    +0.155 HD
ENDBRANCH  16  21
ENDBRANCH   3  14
BRANCH   2  25
ATOM     25  C   UNL     1      36.034 -22.056 -16.926  0.00  0.00    +0.051 C 
ATOM     26  C   UNL     1      36.923 -21.377 -17.759  0.00  0.00    +0.015 C 
ATOM     27  C   UNL     1      34.785 -22.447 -17.411  0.00  0.00    +0.015 C 
ATOM     28  C   UNL     1      36.565 -21.087 -19.075  0.00  0.00    +0.001 C 
ATOM     29  C   UNL     1      34.427 -22.157 -18.728  0.00  0.00    +0.001 C 
ATOM     30  C   UNL     1      35.316 -21.477 -19.560  0.00  0.00    +0.000 C 
ENDBRANCH   2  25
BRANCH  10  32
ATOM     31  N   UNL     1      35.954 -24.570  -8.904  0.00  0.00    -0.195 NA
ATOM     32  C   UNL     1      36.157 -24.172  -9.976  0.00  0.00    +0.087 C 
ENDBRANCH  10  32
TORSDOF 4
ENDMDL
MODEL 6
REMARK VINA RESULT:      -9.7      2.219      3.241
REMARK  Name = 23656870
REMARK  4 active torsions:
REMARK  status: ('A' for Active; 'I' for Inactive)
REMARK    1  A    between atoms: N_2  and  C_25
REMARK    2  A    between atoms: N_3  and  C_14
REMARK    3  A    between atoms: C_10  and  C_32
REMARK    4  A    between atoms: C_16  and  N_21
REMARK                            x       y       z     vdW  Elec       q    Type
REMARK                         _______ _______ _______ _____ _____    ______ ____
ROOT
ATOM      1  N   UNL     1      31.048 -23.359 -14.674  0.00  0.00    -0.123 N 
ATOM      2  N   UNL     1      33.218 -24.003 -14.008  0.00  0.00    -0.274 N 
ATOM      3  N   UNL     1      32.310 -22.253 -18.309  0.00  0.00    -0.238 N 
ATOM      4  N   UNL     1      32.770 -23.128 -16.164  0.00  0.00    -0.295 NA
ATOM      5  N   UNL     1      30.559 -22.487 -16.805  0.00  0.00    -0.314 NA
ATOM      6  N   UNL     1      30.513 -23.698 -13.487  0.00  0.00    -0.170 NA
ATOM      7  C   UNL     1      32.393 -23.496 -14.974  0.00  0.00    +0.279 C 
ATOM      8  C   UNL     1      30.147 -22.864 -15.573  0.00  0.00    +0.219 C 
ATOM      9  C   UNL     1      31.840 -22.624 -17.071  0.00  0.00    +0.207 C 
ATOM     10  C   UNL     1      28.933 -22.881 -14.925  0.00  0.00    +0.203 C 
ATOM     11  C   UNL     1      29.220 -23.403 -13.647  0.00  0.00    +0.116 C 
ATOM     12  H   UNL     1      32.789 -24.238 -13.154  0.00  0.00    +0.156 HD
ATOM     13  H   UNL     1      31.674 -22.339 -19.055  0.00  0.00    +0.166 HD
ENDROOT
BRANCH   3  14
ATOM     14  C   UNL     1      33.575 -21.770 -18.637  0.00  0.00    +0.060 C 
ATOM     15  C   UNL     1      34.690 -22.182 -17.908  0.00  0.00    +0.030 C 
ATOM     16  C   UNL     1      35.956 -21.700 -18.238  0.00  0.00    +0.052 C 
ATOM     17  C   UNL     1      33.726 -20.876 -19.698  0.00  0.00    +0.015 C 
ATOM     18  C   UNL     1      36.108 -20.806 -19.297  0.00  0.00    +0.015 C 
ATOM     19  C   UNL     1      34.993 -20.394 -20.028  0.00  0.00    +0.003 C 
BRANCH  16  21
ATOM     20  O   UNL     1      37.533 -20.268 -16.110  0.00  0.00    -0.275 OA
ATOM     21  N   UNL     1      37.071 -22.110 -17.507  0.00  0.00    -0.284 N 
ATOM     22  C   UNL     1      37.771 -21.397 -16.523  0.00  0.00    +0.227 C 
ATOM     23  C   UNL     1      38.925 -22.195 -15.969  0.00  0.00    +0.095 C 
ATOM     24  H   UNL     1      37.410 -23.013 -17.706  0.00  0.00    +0.155 HD
ENDBRANCH  16  21
ENDBRANCH   3  14
BRANCH   2  25
ATOM     25  C   UNL     1      34.596 -24.232 -14.079  0.00  0.00    +0.051 C 
ATOM     26  C   UNL     1      35.080 -25.401 -14.664  0.00  0.00    +0.015 C 
ATOM     27  C   UNL     1      35.487 -23.289 -13.566  0.00  0.00    +0.015 C 
ATOM     28  C   UNL     1      36.454 -25.630 -14.736  0.00  0.00    +0.001 C 
ATOM     29  C   UNL     1      36.861 -23.516 -13.639  0.00  0.00    +0.001 C 
ATOM     30  C   UNL     1      37.345 -24.687 -14.223  0.00  0.00    +0.000 C 
ENDBRANCH   2  25
BRANCH  10  32
ATOM     31  N   UNL     1      26.660 -22.115 -15.878  0.00  0.00    -0.195 NA
ATOM     32  C   UNL     1      27.682 -22.460 -15.449  0.00  0.00    +0.087 C 
ENDBRANCH  10  32
TORSDOF 4
ENDMDL
