MODEL 1
REMARK VINA RESULT:     -11.3      0.000      0.000
REMARK  Name = 44129603
REMARK  3 active torsions:
REMARK  status: ('A' for Active; 'I' for Inactive)
REMARK    1  A    between atoms: N_5  and  C_17
REMARK    2  A    between atoms: C_12  and  C_24
REMARK    3  A    between atoms: C_24  and  O_25
REMARK                            x       y       z     vdW  Elec       q    Type
REMARK                         _______ _______ _______ _____ _____    ______ ____
ROOT
ATOM      1  N   UNL     1      36.633 -22.735 -14.779  0.00  0.00    -0.246 N 
ATOM      2  N   UNL     1      37.618 -22.796 -13.860  0.00  0.00    -0.163 NA
ATOM      3  N   UNL     1      34.024 -22.694 -16.192  0.00  0.00    -0.336 NA
ATOM      4  N   UNL     1      31.721 -23.424 -16.181  0.00  0.00    -0.170 NA
ATOM      5  N   UNL     1      32.610 -22.248 -18.008  0.00  0.00    -0.247 N 
ATOM      6  C   UNL     1      34.519 -23.953 -12.112  0.00  0.00    +0.035 C 
ATOM      7  C   UNL     1      35.632 -23.489 -12.984  0.00  0.00    +0.024 A 
ATOM      8  C   UNL     1      33.362 -24.567 -12.946  0.00  0.00    +0.035 C 
ATOM      9  C   UNL     1      35.427 -23.147 -14.302  0.00  0.00    +0.106 A 
ATOM     10  C   UNL     1      33.123 -23.895 -14.282  0.00  0.00    +0.030 C 
ATOM     11  C   UNL     1      34.150 -23.246 -14.971  0.00  0.00    +0.158 C 
ATOM     12  C   UNL     1      36.999 -23.253 -12.765  0.00  0.00    +0.174 A 
ATOM     13  C   UNL     1      31.920 -23.961 -14.957  0.00  0.00    +0.110 C 
ATOM     14  C   UNL     1      36.950 -22.240 -16.099  0.00  0.00    +0.154 C 
ATOM     15  C   UNL     1      32.795 -22.818 -16.730  0.00  0.00    +0.149 C 
ATOM     16  H   UNL     1      31.698 -22.359 -18.363  0.00  0.00    +0.165 HD
ENDROOT
BRANCH   5  17
ATOM     17  C   UNL     1      33.472 -21.552 -18.875  0.00  0.00    +0.058 C 
ATOM     18  C   UNL     1      32.956 -20.610 -19.765  0.00  0.00    +0.015 C 
ATOM     19  C   UNL     1      34.844 -21.804 -18.844  0.00  0.00    +0.015 C 
ATOM     20  C   UNL     1      33.812 -19.919 -20.624  0.00  0.00    +0.001 C 
ATOM     21  C   UNL     1      35.699 -21.113 -19.703  0.00  0.00    +0.001 C 
ATOM     22  C   UNL     1      35.183 -20.171 -20.592  0.00  0.00    +0.000 C 
ENDBRANCH   5  17
BRANCH  12  24
ATOM     23  O   UNL     1      37.729 -24.475 -10.842  0.00  0.00    -0.243 OA
ATOM     24  C   UNL     1      37.746 -23.454 -11.556  0.00  0.00    +0.357 C 
BRANCH  24  25
ATOM     25  O   UNL     1      38.527 -22.381 -11.221  0.00  0.00    -0.476 OA
ATOM     26  H   UNL     1      39.006 -21.924 -11.885  0.00  0.00    +0.295 HD
ENDBRANCH  24  25
ENDBRANCH  12  24
TORSDOF 3
ENDMDL
MODEL 2
REMARK VINA RESULT:     -10.8     11.795     14.840
REMARK  Name = 44129603
REMARK  3 active torsions:
REMARK  status: ('A' for Active; 'I' for Inactive)
REMARK    1  A    between atoms: N_5  and  C_17
REMARK    2  A    between atoms: C_12  and  C_24
REMARK    3  A    between atoms: C_24  and  O_25
REMARK                            x       y       z     vdW  Elec       q    Type
REMARK                         _______ _______ _______ _____ _____    ______ ____
ROOT
ATOM      1  N   UNL     1      33.520 -11.733 -23.992  0.00  0.00    -0.246 N 
ATOM      2  N   UNL     1      33.972 -12.875 -24.549  0.00  0.00    -0.163 NA
ATOM      3  N   UNL     1      32.603  -9.616 -22.125  0.00  0.00    -0.336 NA
ATOM      4  N   UNL     1      31.573  -9.122 -19.997  0.00  0.00    -0.170 NA
ATOM      5  N   UNL     1      32.093  -7.410 -21.517  0.00  0.00    -0.247 N 
ATOM      6  C   UNL     1      33.085 -13.742 -21.019  0.00  0.00    +0.035 C 
ATOM      7  C   UNL     1      33.354 -13.205 -22.380  0.00  0.00    +0.024 A 
ATOM      8  C   UNL     1      32.023 -12.889 -20.273  0.00  0.00    +0.035 C 
ATOM      9  C   UNL     1      33.133 -11.883 -22.696  0.00  0.00    +0.106 A 
ATOM     10  C   UNL     1      32.089 -11.404 -20.563  0.00  0.00    +0.030 C 
ATOM     11  C   UNL     1      32.584 -10.915 -21.775  0.00  0.00    +0.158 C 
ATOM     12  C   UNL     1      33.871 -13.769 -23.557  0.00  0.00    +0.174 A 
ATOM     13  C   UNL     1      31.580 -10.443 -19.712  0.00  0.00    +0.110 C 
ATOM     14  C   UNL     1      33.521 -10.528 -24.790  0.00  0.00    +0.154 C 
ATOM     15  C   UNL     1      32.089  -8.785 -21.198  0.00  0.00    +0.149 C 
ATOM     16  H   UNL     1      31.710  -6.839 -20.811  0.00  0.00    +0.165 HD
ENDROOT
BRANCH   5  17
ATOM     17  C   UNL     1      32.536  -6.694 -22.644  0.00  0.00    +0.058 C 
ATOM     18  C   UNL     1      31.617  -6.253 -23.595  0.00  0.00    +0.015 C 
ATOM     19  C   UNL     1      33.895  -6.426 -22.809  0.00  0.00    +0.015 C 
ATOM     20  C   UNL     1      32.057  -5.542 -24.713  0.00  0.00    +0.001 C 
ATOM     21  C   UNL     1      34.334  -5.715 -23.926  0.00  0.00    +0.001 C 
ATOM     22  C   UNL     1      33.416  -5.274 -24.878  0.00  0.00    +0.000 C 
ENDBRANCH   5  17
BRANCH  12  24
ATOM     23  O   UNL     1      33.665 -15.963 -24.487  0.00  0.00    -0.243 OA
ATOM     24  C   UNL     1      34.268 -15.129 -23.784  0.00  0.00    +0.357 C 
BRANCH  24  25
ATOM     25  O   UNL     1      35.424 -15.470 -23.135  0.00  0.00    -0.476 OA
ATOM     26  H   UNL     1      36.050 -14.808 -22.914  0.00  0.00    +0.295 HD
ENDBRANCH  24  25
ENDBRANCH  12  24
TORSDOF 3
ENDMDL
MODEL 3
REMARK VINA RESULT:      -9.9      3.613      7.147
REMARK  Name = 44129603
REMARK  3 active torsions:
REMARK  status: ('A' for Active; 'I' for Inactive)
REMARK    1  A    between atoms: N_5  and  C_17
REMARK    2  A    between atoms: C_12  and  C_24
REMARK    3  A    between atoms: C_24  and  O_25
REMARK                            x       y       z     vdW  Elec       q    Type
REMARK                         _______ _______ _______ _____ _____    ______ ____
ROOT
ATOM      1  N   UNL     1      32.278 -23.905 -14.705  0.00  0.00    -0.246 N 
ATOM      2  N   UNL     1      30.931 -23.972 -14.724  0.00  0.00    -0.163 NA
ATOM      3  N   UNL     1      35.125 -23.221 -15.185  0.00  0.00    -0.336 NA
ATOM      4  N   UNL     1      36.750 -22.366 -16.754  0.00  0.00    -0.170 NA
ATOM      5  N   UNL     1      37.410 -23.193 -14.658  0.00  0.00    -0.247 N 
ATOM      6  C   UNL     1      31.895 -21.940 -17.715  0.00  0.00    +0.035 C 
ATOM      7  C   UNL     1      31.721 -22.779 -16.499  0.00  0.00    +0.024 A 
ATOM      8  C   UNL     1      33.302 -22.136 -18.343  0.00  0.00    +0.035 C 
ATOM      9  C   UNL     1      32.796 -23.207 -15.752  0.00  0.00    +0.106 A 
ATOM     10  C   UNL     1      34.415 -22.356 -17.341  0.00  0.00    +0.030 C 
ATOM     11  C   UNL     1      34.173 -22.931 -16.091  0.00  0.00    +0.158 C 
ATOM     12  C   UNL     1      30.597 -23.278 -15.820  0.00  0.00    +0.174 A 
ATOM     13  C   UNL     1      35.744 -22.106 -17.619  0.00  0.00    +0.110 C 
ATOM     14  C   UNL     1      32.984 -24.534 -13.613  0.00  0.00    +0.154 C 
ATOM     15  C   UNL     1      36.376 -22.913 -15.578  0.00  0.00    +0.149 C 
ATOM     16  H   UNL     1      38.306 -22.950 -14.985  0.00  0.00    +0.165 HD
ENDROOT
BRANCH   5  17
ATOM     17  C   UNL     1      37.411 -23.748 -13.366  0.00  0.00    +0.058 C 
ATOM     18  C   UNL     1      37.145 -22.942 -12.260  0.00  0.00    +0.015 C 
ATOM     19  C   UNL     1      37.677 -25.106 -13.192  0.00  0.00    +0.015 C 
ATOM     20  C   UNL     1      37.145 -23.493 -10.978  0.00  0.00    +0.001 C 
ATOM     21  C   UNL     1      37.677 -25.658 -11.910  0.00  0.00    +0.001 C 
ATOM     22  C   UNL     1      37.412 -24.851 -10.804  0.00  0.00    +0.000 C 
ENDBRANCH   5  17
BRANCH  12  24
ATOM     23  O   UNL     1      28.663 -22.083 -16.564  0.00  0.00    -0.243 OA
ATOM     24  C   UNL     1      29.215 -23.131 -16.176  0.00  0.00    +0.357 C 
BRANCH  24  25
ATOM     25  O   UNL     1      28.499 -24.292 -16.053  0.00  0.00    -0.476 OA
ATOM     26  H   UNL     1      27.627 -24.270 -15.709  0.00  0.00    +0.295 HD
ENDBRANCH  24  25
ENDBRANCH  12  24
TORSDOF 3
ENDMDL
MODEL 4
REMARK VINA RESULT:      -9.6      3.585      6.701
REMARK  Name = 44129603
REMARK  3 active torsions:
REMARK  status: ('A' for Active; 'I' for Inactive)
REMARK    1  A    between atoms: N_5  and  C_17
REMARK    2  A    between atoms: C_12  and  C_24
REMARK    3  A    between atoms: C_24  and  O_25
REMARK                            x       y       z     vdW  Elec       q    Type
REMARK                         _______ _______ _______ _____ _____    ______ ____
ROOT
ATOM      1  N   UNL     1      36.465 -21.660 -17.602  0.00  0.00    -0.246 N 
ATOM      2  N   UNL     1      36.819 -20.912 -18.666  0.00  0.00    -0.163 NA
ATOM      3  N   UNL     1      35.066 -23.434 -15.677  0.00  0.00    -0.336 NA
ATOM      4  N   UNL     1      32.938 -24.255 -14.882  0.00  0.00    -0.170 NA
ATOM      5  N   UNL     1      34.941 -24.846 -13.810  0.00  0.00    -0.247 N 
ATOM      6  C   UNL     1      33.187 -21.685 -19.125  0.00  0.00    +0.035 C 
ATOM      7  C   UNL     1      34.611 -21.473 -18.752  0.00  0.00    +0.024 A 
ATOM      8  C   UNL     1      32.315 -21.997 -17.878  0.00  0.00    +0.035 C 
ATOM      9  C   UNL     1      35.151 -22.014 -17.607  0.00  0.00    +0.106 A 
ATOM     10  C   UNL     1      33.008 -22.820 -16.814  0.00  0.00    +0.030 C 
ATOM     11  C   UNL     1      34.395 -22.786 -16.647  0.00  0.00    +0.158 C 
ATOM     12  C   UNL     1      35.683 -20.805 -19.367  0.00  0.00    +0.174 A 
ATOM     13  C   UNL     1      32.328 -23.574 -15.877  0.00  0.00    +0.110 C 
ATOM     14  C   UNL     1      37.479 -22.006 -16.633  0.00  0.00    +0.154 C 
ATOM     15  C   UNL     1      34.282 -24.142 -14.841  0.00  0.00    +0.149 C 
ATOM     16  H   UNL     1      34.332 -25.351 -13.224  0.00  0.00    +0.165 HD
ENDROOT
BRANCH   5  17
ATOM     17  C   UNL     1      36.297 -24.968 -13.455  0.00  0.00    +0.058 C 
ATOM     18  C   UNL     1      36.830 -24.163 -12.449  0.00  0.00    +0.015 C 
ATOM     19  C   UNL     1      37.107 -25.896 -14.109  0.00  0.00    +0.015 C 
ATOM     20  C   UNL     1      38.174 -24.285 -12.096  0.00  0.00    +0.001 C 
ATOM     21  C   UNL     1      38.452 -26.018 -13.756  0.00  0.00    +0.001 C 
ATOM     22  C   UNL     1      38.985 -25.213 -12.751  0.00  0.00    +0.000 C 
ENDBRANCH   5  17
BRANCH  12  24
ATOM     23  O   UNL     1      34.749 -20.036 -21.431  0.00  0.00    -0.243 OA
ATOM     24  C   UNL     1      35.671 -20.058 -20.592  0.00  0.00    +0.357 C 
BRANCH  24  25
ATOM     25  O   UNL     1      36.811 -19.327 -20.790  0.00  0.00    -0.476 OA
ATOM     26  H   UNL     1      37.109 -18.735 -20.127  0.00  0.00    +0.295 HD
ENDBRANCH  24  25
ENDBRANCH  12  24
TORSDOF 3
ENDMDL
MODEL 5
REMARK VINA RESULT:      -9.3      3.518      6.707
REMARK  Name = 44129603
REMARK  3 active torsions:
REMARK  status: ('A' for Active; 'I' for Inactive)
REMARK    1  A    between atoms: N_5  and  C_17
REMARK    2  A    between atoms: C_12  and  C_24
REMARK    3  A    between atoms: C_24  and  O_25
REMARK                            x       y       z     vdW  Elec       q    Type
REMARK                         _______ _______ _______ _____ _____    ______ ____
ROOT
ATOM      1  N   UNL     1      35.230 -22.489 -16.678  0.00  0.00    -0.246 N 
ATOM      2  N   UNL     1      35.180 -21.955 -17.915  0.00  0.00    -0.163 NA
ATOM      3  N   UNL     1      34.625 -23.850 -14.112  0.00  0.00    -0.336 NA
ATOM      4  N   UNL     1      32.919 -24.462 -12.516  0.00  0.00    -0.170 NA
ATOM      5  N   UNL     1      35.186 -24.897 -12.090  0.00  0.00    -0.247 N 
ATOM      6  C   UNL     1      31.636 -22.712 -16.983  0.00  0.00    +0.035 C 
ATOM      7  C   UNL     1      33.093 -22.470 -17.154  0.00  0.00    +0.024 A 
ATOM      8  C   UNL     1      31.243 -22.772 -15.482  0.00  0.00    +0.035 C 
ATOM      9  C   UNL     1      34.005 -22.807 -16.179  0.00  0.00    +0.106 A 
ATOM     10  C   UNL     1      32.284 -23.404 -14.583  0.00  0.00    +0.030 C 
ATOM     11  C   UNL     1      33.644 -23.373 -14.900  0.00  0.00    +0.158 C 
ATOM     12  C   UNL     1      33.871 -21.950 -18.202  0.00  0.00    +0.174 A 
ATOM     13  C   UNL     1      31.985 -23.959 -13.354  0.00  0.00    +0.110 C 
ATOM     14  C   UNL     1      36.523 -22.678 -16.061  0.00  0.00    +0.154 C 
ATOM     15  C   UNL     1      34.194 -24.376 -12.949  0.00  0.00    +0.149 C 
ATOM     16  H   UNL     1      34.828 -25.273 -11.254  0.00  0.00    +0.165 HD
ENDROOT
BRANCH   5  17
ATOM     17  C   UNL     1      36.586 -24.985 -12.195  0.00  0.00    +0.058 C 
ATOM     18  C   UNL     1      37.394 -24.044 -11.557  0.00  0.00    +0.015 C 
ATOM     19  C   UNL     1      37.166 -26.015 -12.936  0.00  0.00    +0.015 C 
ATOM     20  C   UNL     1      38.783 -24.132 -11.660  0.00  0.00    +0.001 C 
ATOM     21  C   UNL     1      38.555 -26.103 -13.039  0.00  0.00    +0.001 C 
ATOM     22  C   UNL     1      39.362 -25.162 -12.401  0.00  0.00    +0.000 C 
ENDBRANCH   5  17
BRANCH  12  24
ATOM     23  O   UNL     1      32.335 -21.697 -20.018  0.00  0.00    -0.243 OA
ATOM     24  C   UNL     1      33.422 -21.438 -19.465  0.00  0.00    +0.357 C 
BRANCH  24  25
ATOM     25  O   UNL     1      34.322 -20.593 -20.056  0.00  0.00    -0.476 OA
ATOM     26  H   UNL     1      34.381 -20.552 -20.991  0.00  0.00    +0.295 HD
ENDBRANCH  24  25
ENDBRANCH  12  24
TORSDOF 3
ENDMDL
MODEL 6
REMARK VINA RESULT:      -9.3      2.558      4.383
REMARK  Name = 44129603
REMARK  3 active torsions:
REMARK  status: ('A' for Active; 'I' for Inactive)
REMARK    1  A    between atoms: N_5  and  C_17
REMARK    2  A    between atoms: C_12  and  C_24
REMARK    3  A    between atoms: C_24  and  O_25
REMARK                            x       y       z     vdW  Elec       q    Type
REMARK                         _______ _______ _______ _____ _____    ______ ____
ROOT
ATOM      1  N   UNL     1      32.487 -22.931 -16.077  0.00  0.00    -0.246 N 
ATOM      2  N   UNL     1      31.431 -23.520 -15.479  0.00  0.00    -0.163 NA
ATOM      3  N   UNL     1      35.197 -22.147 -16.996  0.00  0.00    -0.336 NA
ATOM      4  N   UNL     1      37.554 -22.078 -16.472  0.00  0.00    -0.170 NA
ATOM      5  N   UNL     1      36.719 -21.086 -18.429  0.00  0.00    -0.247 N 
ATOM      6  C   UNL     1      34.459 -24.765 -13.667  0.00  0.00    +0.035 C 
ATOM      7  C   UNL     1      33.390 -24.142 -14.493  0.00  0.00    +0.024 A 
ATOM      8  C   UNL     1      35.749 -23.901 -13.664  0.00  0.00    +0.035 C 
ATOM      9  C   UNL     1      33.679 -23.268 -15.516  0.00  0.00    +0.106 A 
ATOM     10  C   UNL     1      36.039 -23.196 -14.972  0.00  0.00    +0.030 C 
ATOM     11  C   UNL     1      35.017 -22.838 -15.855  0.00  0.00    +0.158 C 
ATOM     12  C   UNL     1      31.991 -24.262 -14.515  0.00  0.00    +0.174 A 
ATOM     13  C   UNL     1      37.301 -22.769 -15.339  0.00  0.00    +0.110 C 
ATOM     14  C   UNL     1      32.244 -22.066 -17.209  0.00  0.00    +0.154 C 
ATOM     15  C   UNL     1      36.477 -21.806 -17.239  0.00  0.00    +0.149 C 
ATOM     16  H   UNL     1      37.667 -20.858 -18.568  0.00  0.00    +0.165 HD
ENDROOT
BRANCH   5  17
ATOM     17  C   UNL     1      35.872 -20.629 -19.455  0.00  0.00    +0.058 C 
ATOM     18  C   UNL     1      34.530 -21.008 -19.472  0.00  0.00    +0.015 C 
ATOM     19  C   UNL     1      36.375 -19.797 -20.455  0.00  0.00    +0.015 C 
ATOM     20  C   UNL     1      33.690 -20.554 -20.490  0.00  0.00    +0.001 C 
ATOM     21  C   UNL     1      35.535 -19.343 -21.472  0.00  0.00    +0.001 C 
ATOM     22  C   UNL     1      34.193 -19.722 -21.490  0.00  0.00    +0.000 C 
ENDBRANCH   5  17
BRANCH  12  24
ATOM     23  O   UNL     1      31.219 -25.083 -12.405  0.00  0.00    -0.243 OA
ATOM     24  C   UNL     1      31.159 -25.048 -13.649  0.00  0.00    +0.357 C 
BRANCH  24  25
ATOM     25  O   UNL     1      30.238 -25.803 -14.324  0.00  0.00    -0.476 OA
ATOM     26  H   UNL     1      29.998 -25.575 -15.201  0.00  0.00    +0.295 HD
ENDBRANCH  24  25
ENDBRANCH  12  24
TORSDOF 3
ENDMDL
MODEL 7
REMARK VINA RESULT:      -8.8      3.341      6.430
REMARK  Name = 44129603
REMARK  3 active torsions:
REMARK  status: ('A' for Active; 'I' for Inactive)
REMARK    1  A    between atoms: N_5  and  C_17
REMARK    2  A    between atoms: C_12  and  C_24
REMARK    3  A    between atoms: C_24  and  O_25
REMARK                            x       y       z     vdW  Elec       q    Type
REMARK                         _______ _______ _______ _____ _____    ______ ____
ROOT
ATOM      1  N   UNL     1      33.980 -21.979 -18.091  0.00  0.00    -0.246 N 
ATOM      2  N   UNL     1      34.315 -21.305 -19.211  0.00  0.00    -0.163 NA
ATOM      3  N   UNL     1      33.899 -23.177 -15.378  0.00  0.00    -0.336 NA
ATOM      4  N   UNL     1      35.183 -23.967 -13.491  0.00  0.00    -0.170 NA
ATOM      5  N   UNL     1      32.849 -24.209 -13.553  0.00  0.00    -0.247 N 
ATOM      6  C   UNL     1      37.394 -21.347 -17.085  0.00  0.00    +0.035 C 
ATOM      7  C   UNL     1      36.084 -21.458 -17.782  0.00  0.00    +0.024 A 
ATOM      8  C   UNL     1      37.581 -22.484 -16.044  0.00  0.00    +0.035 C 
ATOM      9  C   UNL     1      35.010 -22.102 -17.210  0.00  0.00    +0.106 A 
ATOM     10  C   UNL     1      36.312 -22.899 -15.330  0.00  0.00    +0.030 C 
ATOM     11  C   UNL     1      35.056 -22.761 -15.925  0.00  0.00    +0.158 C 
ATOM     12  C   UNL     1      35.600 -20.986 -19.013  0.00  0.00    +0.174 A 
ATOM     13  C   UNL     1      36.307 -23.530 -14.101  0.00  0.00    +0.110 C 
ATOM     14  C   UNL     1      32.623 -22.453 -17.951  0.00  0.00    +0.154 C 
ATOM     15  C   UNL     1      34.037 -23.762 -14.172  0.00  0.00    +0.149 C 
ATOM     16  H   UNL     1      32.995 -24.628 -12.674  0.00  0.00    +0.165 HD
ENDROOT
BRANCH   5  17
ATOM     17  C   UNL     1      31.498 -24.173 -13.944  0.00  0.00    +0.058 C 
ATOM     18  C   UNL     1      30.916 -22.965 -14.328  0.00  0.00    +0.015 C 
ATOM     19  C   UNL     1      30.743 -25.345 -13.948  0.00  0.00    +0.015 C 
ATOM     20  C   UNL     1      29.576 -22.930 -14.718  0.00  0.00    +0.001 C 
ATOM     21  C   UNL     1      29.403 -25.309 -14.338  0.00  0.00    +0.001 C 
ATOM     22  C   UNL     1      28.820 -24.102 -14.722  0.00  0.00    +0.000 C 
ENDBRANCH   5  17
BRANCH  12  24
ATOM     23  O   UNL     1      37.419 -19.693 -19.874  0.00  0.00    -0.243 OA
ATOM     24  C   UNL     1      36.313 -20.250 -20.017  0.00  0.00    +0.357 C 
BRANCH  24  25
ATOM     25  O   UNL     1      35.655 -20.197 -21.217  0.00  0.00    -0.476 OA
ATOM     26  H   UNL     1      36.093 -20.459 -22.003  0.00  0.00    +0.295 HD
ENDBRANCH  24  25
ENDBRANCH  12  24
TORSDOF 3
ENDMDL
