MODEL 1
REMARK VINA RESULT:     -12.0      0.000      0.000
REMARK  Name = 25118925
REMARK  3 active torsions:
REMARK  status: ('A' for Active; 'I' for Inactive)
REMARK    1  A    between atoms: C_3  and  C_12
REMARK    2  A    between atoms: C_5  and  C_24
REMARK    3  A    between atoms: C_27  and  C_33
REMARK                            x       y       z     vdW  Elec       q    Type
REMARK                         _______ _______ _______ _____ _____    ______ ____
ROOT
ATOM      1  N   UNL     1      33.594 -12.567 -24.780  0.00  0.00    -0.279 N 
ATOM      2  N   UNL     1      33.980 -13.554 -22.828  0.00  0.00    -0.394 NA
ATOM      3  C   UNL     1      33.723 -12.412 -23.428  0.00  0.00    +0.160 C 
ATOM      4  C   UNL     1      33.781 -13.891 -25.061  0.00  0.00    +0.152 C 
ATOM      5  C   UNL     1      34.018 -14.480 -23.841  0.00  0.00    +0.130 C 
ATOM      6  C   UNL     1      33.313 -11.533 -25.748  0.00  0.00    +0.115 C 
ENDROOT
BRANCH   3  12
ATOM      7  N   UNL     1      32.473  -8.413 -22.378  0.00  0.00    -0.296 N 
ATOM      8  N   UNL     1      31.643  -6.765 -20.866  0.00  0.00    -0.233 NA
ATOM      9  N   UNL     1      31.157  -4.293 -24.002  0.00  0.00    -0.223 N 
ATOM     10  N   UNL     1      30.919  -4.557 -21.607  0.00  0.00    -0.232 NA
ATOM     11  N   UNL     1      31.569  -4.989 -25.078  0.00  0.00    -0.183 NA
ATOM     12  C   UNL     1      33.577 -11.063 -22.751  0.00  0.00    +0.070 C 
ATOM     13  C   UNL     1      32.167 -10.850 -22.182  0.00  0.00    +0.030 C 
ATOM     14  C   UNL     1      33.931  -9.902 -23.692  0.00  0.00    +0.030 C 
ATOM     15  C   UNL     1      32.050  -9.497 -21.481  0.00  0.00    +0.092 C 
ATOM     16  C   UNL     1      33.801  -8.551 -22.987  0.00  0.00    +0.092 C 
ATOM     17  C   UNL     1      31.959  -7.135 -22.130  0.00  0.00    +0.118 C 
ATOM     18  C   UNL     1      31.766  -6.229 -23.168  0.00  0.00    +0.152 C 
ATOM     19  C   UNL     1      31.253  -4.988 -22.833  0.00  0.00    +0.133 C 
ATOM     20  C   UNL     1      31.939  -6.167 -24.564  0.00  0.00    +0.105 C 
ATOM     21  C   UNL     1      31.150  -5.517 -20.685  0.00  0.00    +0.252 C 
ATOM     22  H   UNL     1      30.818  -3.370 -24.054  0.00  0.00    +0.176 HD
ENDBRANCH   3  12
BRANCH   5  24
ATOM     23  F   UNL     1      34.999 -19.898 -23.070  0.00  0.00    -0.204 F 
ATOM     24  C   UNL     1      34.272 -15.872 -23.640  0.00  0.00    +0.027 C 
ATOM     25  C   UNL     1      34.929 -16.304 -22.488  0.00  0.00    +0.008 C 
ATOM     26  C   UNL     1      33.861 -16.801 -24.597  0.00  0.00    +0.005 C 
ATOM     27  C   UNL     1      35.176 -17.662 -22.292  0.00  0.00    +0.099 C 
ATOM     28  C   UNL     1      34.108 -18.159 -24.403  0.00  0.00    +0.030 C 
ATOM     29  C   UNL     1      34.766 -18.590 -23.250  0.00  0.00    +0.144 C 
BRANCH  27  33
ATOM     30  F   UNL     1      35.384 -19.288 -20.550  0.00  0.00    -0.166 F 
ATOM     31  F   UNL     1      37.212 -18.351 -21.245  0.00  0.00    -0.166 F 
ATOM     32  F   UNL     1      35.800 -17.215 -20.042  0.00  0.00    -0.166 F 
ATOM     33  C   UNL     1      35.879 -18.121 -21.060  0.00  0.00    +0.421 C 
ENDBRANCH  27  33
ENDBRANCH   5  24
TORSDOF 3
ENDMDL
MODEL 2
REMARK VINA RESULT:     -11.5      2.133      3.342
REMARK  Name = 25118925
REMARK  3 active torsions:
REMARK  status: ('A' for Active; 'I' for Inactive)
REMARK    1  A    between atoms: C_3  and  C_12
REMARK    2  A    between atoms: C_5  and  C_24
REMARK    3  A    between atoms: C_27  and  C_33
REMARK                            x       y       z     vdW  Elec       q    Type
REMARK                         _______ _______ _______ _____ _____    ______ ____
ROOT
ATOM      1  N   UNL     1      31.985 -10.914 -21.059  0.00  0.00    -0.279 N 
ATOM      2  N   UNL     1      33.206 -11.010 -22.912  0.00  0.00    -0.394 NA
ATOM      3  C   UNL     1      32.593 -10.214 -22.064  0.00  0.00    +0.160 C 
ATOM      4  C   UNL     1      32.227 -12.241 -21.281  0.00  0.00    +0.152 C 
ATOM      5  C   UNL     1      32.982 -12.275 -22.429  0.00  0.00    +0.130 C 
ATOM      6  C   UNL     1      31.224 -10.369 -19.960  0.00  0.00    +0.115 C 
ENDROOT
BRANCH   3  12
ATOM      7  N   UNL     1      32.668  -6.131 -23.471  0.00  0.00    -0.296 N 
ATOM      8  N   UNL     1      31.729  -3.956 -23.760  0.00  0.00    -0.233 NA
ATOM      9  N   UNL     1      34.715  -3.131 -26.327  0.00  0.00    -0.223 N 
ATOM     10  N   UNL     1      32.721  -2.290 -25.240  0.00  0.00    -0.232 NA
ATOM     11  N   UNL     1      35.466  -4.247 -26.378  0.00  0.00    -0.183 NA
ATOM     12  C   UNL     1      32.535  -8.700 -22.145  0.00  0.00    +0.070 C 
ATOM     13  C   UNL     1      31.411  -8.213 -23.071  0.00  0.00    +0.030 C 
ATOM     14  C   UNL     1      33.872  -8.094 -22.596  0.00  0.00    +0.030 C 
ATOM     15  C   UNL     1      31.354  -6.686 -23.117  0.00  0.00    +0.092 C 
ATOM     16  C   UNL     1      33.802  -6.567 -22.650  0.00  0.00    +0.092 C 
ATOM     17  C   UNL     1      32.691  -4.861 -24.060  0.00  0.00    +0.118 C 
ATOM     18  C   UNL     1      33.696  -4.509 -24.957  0.00  0.00    +0.152 C 
ATOM     19  C   UNL     1      33.642  -3.234 -25.492  0.00  0.00    +0.133 C 
ATOM     20  C   UNL     1      34.840  -5.082 -25.541  0.00  0.00    +0.105 C 
ATOM     21  C   UNL     1      31.803  -2.744 -24.360  0.00  0.00    +0.252 C 
ATOM     22  H   UNL     1      34.920  -2.319 -26.843  0.00  0.00    +0.176 HD
ENDBRANCH   3  12
BRANCH   5  24
ATOM     23  F   UNL     1      34.888 -16.901 -24.853  0.00  0.00    -0.204 F 
ATOM     24  C   UNL     1      33.474 -13.465 -23.050  0.00  0.00    +0.027 C 
ATOM     25  C   UNL     1      34.067 -14.462 -22.276  0.00  0.00    +0.008 C 
ATOM     26  C   UNL     1      33.358 -13.631 -24.430  0.00  0.00    +0.005 C 
ATOM     27  C   UNL     1      34.546 -15.624 -22.881  0.00  0.00    +0.099 C 
ATOM     28  C   UNL     1      33.836 -14.791 -25.036  0.00  0.00    +0.030 C 
ATOM     29  C   UNL     1      34.431 -15.788 -24.261  0.00  0.00    +0.144 C 
BRANCH  27  33
ATOM     30  F   UNL     1      34.579 -17.908 -22.173  0.00  0.00    -0.166 F 
ATOM     31  F   UNL     1      36.494 -16.908 -22.357  0.00  0.00    -0.166 F 
ATOM     32  F   UNL     1      35.157 -16.399 -20.718  0.00  0.00    -0.166 F 
ATOM     33  C   UNL     1      35.181 -16.688 -22.052  0.00  0.00    +0.421 C 
ENDBRANCH  27  33
ENDBRANCH   5  24
TORSDOF 3
ENDMDL
MODEL 3
REMARK VINA RESULT:     -10.8      1.362      2.532
REMARK  Name = 25118925
REMARK  3 active torsions:
REMARK  status: ('A' for Active; 'I' for Inactive)
REMARK    1  A    between atoms: C_3  and  C_12
REMARK    2  A    between atoms: C_5  and  C_24
REMARK    3  A    between atoms: C_27  and  C_33
REMARK                            x       y       z     vdW  Elec       q    Type
REMARK                         _______ _______ _______ _____ _____    ______ ____
ROOT
ATOM      1  N   UNL     1      32.691 -11.636 -21.766  0.00  0.00    -0.279 N 
ATOM      2  N   UNL     1      33.666 -12.326 -23.638  0.00  0.00    -0.394 NA
ATOM      3  C   UNL     1      33.116 -11.303 -23.022  0.00  0.00    +0.160 C 
ATOM      4  C   UNL     1      32.988 -12.956 -21.569  0.00  0.00    +0.152 C 
ATOM      5  C   UNL     1      33.589 -13.359 -22.738  0.00  0.00    +0.130 C 
ATOM      6  C   UNL     1      32.044 -10.768 -20.811  0.00  0.00    +0.115 C 
ENDROOT
BRANCH   3  12
ATOM      7  N   UNL     1      32.667  -7.029 -23.450  0.00  0.00    -0.296 N 
ATOM      8  N   UNL     1      33.289  -4.894 -24.317  0.00  0.00    -0.233 NA
ATOM      9  N   UNL     1      30.753  -3.212 -21.685  0.00  0.00    -0.223 N 
ATOM     10  N   UNL     1      32.346  -2.812 -23.464  0.00  0.00    -0.232 NA
ATOM     11  N   UNL     1      30.210  -4.236 -21.001  0.00  0.00    -0.183 NA
ATOM     12  C   UNL     1      32.949  -9.906 -23.589  0.00  0.00    +0.070 C 
ATOM     13  C   UNL     1      34.137  -8.996 -23.244  0.00  0.00    +0.030 C 
ATOM     14  C   UNL     1      31.643  -9.245 -23.122  0.00  0.00    +0.030 C 
ATOM     15  C   UNL     1      33.961  -7.603 -23.847  0.00  0.00    +0.092 C 
ATOM     16  C   UNL     1      31.480  -7.848 -23.721  0.00  0.00    +0.092 C 
ATOM     17  C   UNL     1      32.556  -5.634 -23.449  0.00  0.00    +0.118 C 
ATOM     18  C   UNL     1      31.697  -4.986 -22.566  0.00  0.00    +0.152 C 
ATOM     19  C   UNL     1      31.650  -3.604 -22.634  0.00  0.00    +0.133 C 
ATOM     20  C   UNL     1      30.789  -5.314 -21.543  0.00  0.00    +0.105 C 
ATOM     21  C   UNL     1      33.140  -3.549 -24.271  0.00  0.00    +0.252 C 
ATOM     22  H   UNL     1      30.524  -2.270 -21.517  0.00  0.00    +0.176 HD
ENDBRANCH   3  12
BRANCH   5  24
ATOM     23  F   UNL     1      35.469 -18.494 -23.746  0.00  0.00    -0.204 F 
ATOM     24  C   UNL     1      34.074 -14.680 -22.994  0.00  0.00    +0.027 C 
ATOM     25  C   UNL     1      34.573 -15.456 -21.948  0.00  0.00    +0.008 C 
ATOM     26  C   UNL     1      34.046 -15.193 -24.291  0.00  0.00    +0.005 C 
ATOM     27  C   UNL     1      35.045 -16.744 -22.198  0.00  0.00    +0.099 C 
ATOM     28  C   UNL     1      34.518 -16.481 -24.542  0.00  0.00    +0.030 C 
ATOM     29  C   UNL     1      35.018 -17.257 -23.495  0.00  0.00    +0.144 C 
BRANCH  27  33
ATOM     30  F   UNL     1      34.919 -18.756 -20.911  0.00  0.00    -0.166 F 
ATOM     31  F   UNL     1      36.892 -17.915 -21.231  0.00  0.00    -0.166 F 
ATOM     32  F   UNL     1      35.503 -16.937 -19.873  0.00  0.00    -0.166 F 
ATOM     33  C   UNL     1      35.579 -17.572 -21.079  0.00  0.00    +0.421 C 
ENDBRANCH  27  33
ENDBRANCH   5  24
TORSDOF 3
ENDMDL
MODEL 4
REMARK VINA RESULT:     -10.7      6.592     12.061
REMARK  Name = 25118925
REMARK  3 active torsions:
REMARK  status: ('A' for Active; 'I' for Inactive)
REMARK    1  A    between atoms: C_3  and  C_12
REMARK    2  A    between atoms: C_5  and  C_24
REMARK    3  A    between atoms: C_27  and  C_33
REMARK                            x       y       z     vdW  Elec       q    Type
REMARK                         _______ _______ _______ _____ _____    ______ ____
ROOT
ATOM      1  N   UNL     1      34.738 -18.943 -23.613  0.00  0.00    -0.279 N 
ATOM      2  N   UNL     1      34.449 -17.592 -21.874  0.00  0.00    -0.394 NA
ATOM      3  C   UNL     1      34.614 -18.840 -22.255  0.00  0.00    +0.160 C 
ATOM      4  C   UNL     1      34.647 -17.681 -24.130  0.00  0.00    +0.152 C 
ATOM      5  C   UNL     1      34.470 -16.865 -23.038  0.00  0.00    +0.130 C 
ATOM      6  C   UNL     1      34.929 -20.154 -24.376  0.00  0.00    +0.115 C 
ENDROOT
BRANCH   3  12
ATOM      7  N   UNL     1      35.018 -21.432 -18.824  0.00  0.00    -0.296 N 
ATOM      8  N   UNL     1      34.244 -23.111 -17.316  0.00  0.00    -0.233 NA
ATOM      9  N   UNL     1      37.354 -22.232 -14.919  0.00  0.00    -0.223 N 
ATOM     10  N   UNL     1      35.394 -23.621 -15.226  0.00  0.00    -0.232 NA
ATOM     11  N   UNL     1      38.025 -21.247 -15.545  0.00  0.00    -0.183 NA
ATOM     12  C   UNL     1      34.665 -20.050 -21.343  0.00  0.00    +0.070 C 
ATOM     13  C   UNL     1      33.606 -19.984 -20.233  0.00  0.00    +0.030 C 
ATOM     14  C   UNL     1      36.054 -20.244 -20.717  0.00  0.00    +0.030 C 
ATOM     15  C   UNL     1      33.658 -21.226 -19.343  0.00  0.00    +0.092 C 
ATOM     16  C   UNL     1      36.095 -21.481 -19.819  0.00  0.00    +0.092 C 
ATOM     17  C   UNL     1      35.148 -22.152 -17.631  0.00  0.00    +0.118 C 
ATOM     18  C   UNL     1      36.201 -21.901 -16.756  0.00  0.00    +0.152 C 
ATOM     19  C   UNL     1      36.253 -22.659 -15.600  0.00  0.00    +0.133 C 
ATOM     20  C   UNL     1      37.318 -21.050 -16.663  0.00  0.00    +0.105 C 
ATOM     21  C   UNL     1      34.421 -23.776 -16.149  0.00  0.00    +0.252 C 
ATOM     22  H   UNL     1      37.630 -22.607 -14.052  0.00  0.00    +0.176 HD
ENDBRANCH   3  12
BRANCH   5  24
ATOM     23  F   UNL     1      33.898 -11.339 -23.247  0.00  0.00    -0.204 F 
ATOM     24  C   UNL     1      34.323 -15.444 -23.095  0.00  0.00    +0.027 C 
ATOM     25  C   UNL     1      33.970 -14.826 -24.295  0.00  0.00    +0.008 C 
ATOM     26  C   UNL     1      34.529 -14.675 -21.949  0.00  0.00    +0.005 C 
ATOM     27  C   UNL     1      33.826 -13.440 -24.350  0.00  0.00    +0.099 C 
ATOM     28  C   UNL     1      34.386 -13.290 -22.003  0.00  0.00    +0.030 C 
ATOM     29  C   UNL     1      34.034 -12.672 -23.204  0.00  0.00    +0.144 C 
BRANCH  27  33
ATOM     30  F   UNL     1      34.178 -13.215 -26.705  0.00  0.00    -0.166 F 
ATOM     31  F   UNL     1      32.146 -12.977 -25.987  0.00  0.00    -0.166 F 
ATOM     32  F   UNL     1      33.622 -11.427 -25.599  0.00  0.00    -0.166 F 
ATOM     33  C   UNL     1      33.450 -12.781 -25.633  0.00  0.00    +0.421 C 
ENDBRANCH  27  33
ENDBRANCH   5  24
TORSDOF 3
ENDMDL
MODEL 5
REMARK VINA RESULT:     -10.4      1.223      2.435
REMARK  Name = 25118925
REMARK  3 active torsions:
REMARK  status: ('A' for Active; 'I' for Inactive)
REMARK    1  A    between atoms: C_3  and  C_12
REMARK    2  A    between atoms: C_5  and  C_24
REMARK    3  A    between atoms: C_27  and  C_33
REMARK                            x       y       z     vdW  Elec       q    Type
REMARK                         _______ _______ _______ _____ _____    ______ ____
ROOT
ATOM      1  N   UNL     1      33.137 -12.466 -21.569  0.00  0.00    -0.279 N 
ATOM      2  N   UNL     1      33.852 -13.197 -23.542  0.00  0.00    -0.394 NA
ATOM      3  C   UNL     1      33.393 -12.159 -22.877  0.00  0.00    +0.160 C 
ATOM      4  C   UNL     1      33.454 -13.783 -21.389  0.00  0.00    +0.152 C 
ATOM      5  C   UNL     1      33.892 -14.212 -22.619  0.00  0.00    +0.130 C 
ATOM      6  C   UNL     1      32.627 -11.576 -20.554  0.00  0.00    +0.115 C 
ENDROOT
BRANCH   3  12
ATOM      7  N   UNL     1      32.939  -7.887 -23.330  0.00  0.00    -0.296 N 
ATOM      8  N   UNL     1      33.445  -5.782 -24.333  0.00  0.00    -0.233 NA
ATOM      9  N   UNL     1      31.376  -4.003 -21.376  0.00  0.00    -0.223 N 
ATOM     10  N   UNL     1      32.675  -3.667 -23.392  0.00  0.00    -0.232 NA
ATOM     11  N   UNL     1      30.933  -5.004 -20.592  0.00  0.00    -0.183 NA
ATOM     12  C   UNL     1      33.157 -10.772 -23.443  0.00  0.00    +0.070 C 
ATOM     13  C   UNL     1      34.397  -9.874 -23.310  0.00  0.00    +0.030 C 
ATOM     14  C   UNL     1      31.950 -10.079 -22.794  0.00  0.00    +0.030 C 
ATOM     15  C   UNL     1      34.146  -8.491 -23.910  0.00  0.00    +0.092 C 
ATOM     16  C   UNL     1      31.713  -8.692 -23.392  0.00  0.00    +0.092 C 
ATOM     17  C   UNL     1      32.848  -6.491 -23.344  0.00  0.00    +0.118 C 
ATOM     18  C   UNL     1      32.147  -5.810 -22.353  0.00  0.00    +0.152 C 
ATOM     19  C   UNL     1      32.108  -4.430 -22.444  0.00  0.00    +0.133 C 
ATOM     20  C   UNL     1      31.406  -6.102 -21.192  0.00  0.00    +0.105 C 
ATOM     21  C   UNL     1      33.323  -4.434 -24.295  0.00  0.00    +0.252 C 
ATOM     22  H   UNL     1      31.189  -3.054 -21.197  0.00  0.00    +0.176 HD
ENDBRANCH   3  12
BRANCH   5  24
ATOM     23  F   UNL     1      35.600 -19.377 -23.770  0.00  0.00    -0.204 F 
ATOM     24  C   UNL     1      34.333 -15.541 -22.912  0.00  0.00    +0.027 C 
ATOM     25  C   UNL     1      35.037 -16.270 -21.955  0.00  0.00    +0.008 C 
ATOM     26  C   UNL     1      34.057 -16.108 -24.156  0.00  0.00    +0.005 C 
ATOM     27  C   UNL     1      35.467 -17.566 -22.241  0.00  0.00    +0.099 C 
ATOM     28  C   UNL     1      34.486 -17.403 -24.444  0.00  0.00    +0.030 C 
ATOM     29  C   UNL     1      35.191 -18.132 -23.485  0.00  0.00    +0.144 C 
BRANCH  27  33
ATOM     30  F   UNL     1      36.329 -17.702 -20.014  0.00  0.00    -0.166 F 
ATOM     31  F   UNL     1      35.658 -19.553 -20.924  0.00  0.00    -0.166 F 
ATOM     32  F   UNL     1      37.501 -18.617 -21.601  0.00  0.00    -0.166 F 
ATOM     33  C   UNL     1      36.221 -18.343 -21.216  0.00  0.00    +0.421 C 
ENDBRANCH  27  33
ENDBRANCH   5  24
TORSDOF 3
ENDMDL
MODEL 6
REMARK VINA RESULT:     -10.4      2.013      3.733
REMARK  Name = 25118925
REMARK  3 active torsions:
REMARK  status: ('A' for Active; 'I' for Inactive)
REMARK    1  A    between atoms: C_3  and  C_12
REMARK    2  A    between atoms: C_5  and  C_24
REMARK    3  A    between atoms: C_27  and  C_33
REMARK                            x       y       z     vdW  Elec       q    Type
REMARK                         _______ _______ _______ _____ _____    ______ ____
ROOT
ATOM      1  N   UNL     1      34.297 -15.330 -24.347  0.00  0.00    -0.279 N 
ATOM      2  N   UNL     1      34.177 -15.439 -22.131  0.00  0.00    -0.394 NA
ATOM      3  C   UNL     1      33.878 -14.725 -23.194  0.00  0.00    +0.160 C 
ATOM      4  C   UNL     1      34.902 -16.505 -23.996  0.00  0.00    +0.152 C 
ATOM      5  C   UNL     1      34.815 -16.550 -22.625  0.00  0.00    +0.130 C 
ATOM      6  C   UNL     1      34.140 -14.834 -25.693  0.00  0.00    +0.115 C 
ENDROOT
BRANCH   3  12
ATOM      7  N   UNL     1      32.645 -10.678 -22.324  0.00  0.00    -0.296 N 
ATOM      8  N   UNL     1      32.154  -8.422 -22.924  0.00  0.00    -0.233 NA
ATOM      9  N   UNL     1      32.013  -7.528 -19.004  0.00  0.00    -0.223 N 
ATOM     10  N   UNL     1      31.801  -6.674 -21.260  0.00  0.00    -0.232 NA
ATOM     11  N   UNL     1      32.269  -8.683 -18.361  0.00  0.00    -0.183 NA
ATOM     12  C   UNL     1      33.159 -13.390 -23.198  0.00  0.00    +0.070 C 
ATOM     13  C   UNL     1      34.094 -12.231 -23.574  0.00  0.00    +0.030 C 
ATOM     14  C   UNL     1      32.489 -13.091 -21.849  0.00  0.00    +0.030 C 
ATOM     15  C   UNL     1      33.344 -10.899 -23.598  0.00  0.00    +0.092 C 
ATOM     16  C   UNL     1      31.750 -11.752 -21.877  0.00  0.00    +0.092 C 
ATOM     17  C   UNL     1      32.366  -9.355 -21.964  0.00  0.00    +0.118 C 
ATOM     18  C   UNL     1      32.301  -8.976 -20.627  0.00  0.00    +0.152 C 
ATOM     19  C   UNL     1      32.021  -7.647 -20.362  0.00  0.00    +0.133 C 
ATOM     20  C   UNL     1      32.443  -9.561 -19.355  0.00  0.00    +0.105 C 
ATOM     21  C   UNL     1      31.888  -7.157 -22.517  0.00  0.00    +0.252 C 
ATOM     22  H   UNL     1      31.836  -6.679 -18.539  0.00  0.00    +0.176 HD
ENDBRANCH   3  12
BRANCH   5  24
ATOM     23  F   UNL     1      36.792 -20.665 -19.451  0.00  0.00    -0.204 F 
ATOM     24  C   UNL     1      35.320 -17.609 -21.807  0.00  0.00    +0.027 C 
ATOM     25  C   UNL     1      34.459 -18.599 -21.335  0.00  0.00    +0.008 C 
ATOM     26  C   UNL     1      36.677 -17.654 -21.485  0.00  0.00    +0.005 C 
ATOM     27  C   UNL     1      34.952 -19.632 -20.539  0.00  0.00    +0.099 C 
ATOM     28  C   UNL     1      37.171 -18.686 -20.688  0.00  0.00    +0.030 C 
ATOM     29  C   UNL     1      36.308 -19.675 -20.216  0.00  0.00    +0.144 C 
BRANCH  27  33
ATOM     30  F   UNL     1      34.480 -21.960 -20.256  0.00  0.00    -0.166 F 
ATOM     31  F   UNL     1      33.804 -20.621 -18.689  0.00  0.00    -0.166 F 
ATOM     32  F   UNL     1      32.796 -20.632 -20.617  0.00  0.00    -0.166 F 
ATOM     33  C   UNL     1      34.029 -20.689 -20.034  0.00  0.00    +0.421 C 
ENDBRANCH  27  33
ENDBRANCH   5  24
TORSDOF 3
ENDMDL
MODEL 7
REMARK VINA RESULT:     -10.2      1.030      2.026
REMARK  Name = 25118925
REMARK  3 active torsions:
REMARK  status: ('A' for Active; 'I' for Inactive)
REMARK    1  A    between atoms: C_3  and  C_12
REMARK    2  A    between atoms: C_5  and  C_24
REMARK    3  A    between atoms: C_27  and  C_33
REMARK                            x       y       z     vdW  Elec       q    Type
REMARK                         _______ _______ _______ _____ _____    ______ ____
ROOT
ATOM      1  N   UNL     1      33.683 -12.324 -24.463  0.00  0.00    -0.279 N 
ATOM      2  N   UNL     1      34.072 -13.103 -22.419  0.00  0.00    -0.394 NA
ATOM      3  C   UNL     1      33.773 -12.037 -23.129  0.00  0.00    +0.160 C 
ATOM      4  C   UNL     1      33.941 -13.658 -24.613  0.00  0.00    +0.152 C 
ATOM      5  C   UNL     1      34.177 -14.117 -23.339  0.00  0.00    +0.130 C 
ATOM      6  C   UNL     1      33.375 -11.401 -25.529  0.00  0.00    +0.115 C 
ENDROOT
BRANCH   3  12
ATOM      7  N   UNL     1      32.470  -7.953 -22.604  0.00  0.00    -0.296 N 
ATOM      8  N   UNL     1      31.429  -6.185 -21.385  0.00  0.00    -0.233 NA
ATOM      9  N   UNL     1      31.581  -3.945 -24.723  0.00  0.00    -0.223 N 
ATOM     10  N   UNL     1      30.911  -4.027 -22.398  0.00  0.00    -0.232 NA
ATOM     11  N   UNL     1      32.158  -4.725 -25.656  0.00  0.00    -0.183 NA
ATOM     12  C   UNL     1      33.547 -10.640 -22.585  0.00  0.00    +0.070 C 
ATOM     13  C   UNL     1      32.064 -10.364 -22.296  0.00  0.00    +0.030 C 
ATOM     14  C   UNL     1      34.096  -9.557 -23.526  0.00  0.00    +0.030 C 
ATOM     15  C   UNL     1      31.863  -8.961 -21.724  0.00  0.00    +0.092 C 
ATOM     16  C   UNL     1      33.880  -8.156 -22.952  0.00  0.00    +0.092 C 
ATOM     17  C   UNL     1      31.955  -6.653 -22.543  0.00  0.00    +0.118 C 
ATOM     18  C   UNL     1      31.976  -5.823 -23.660  0.00  0.00    +0.152 C 
ATOM     19  C   UNL     1      31.447  -4.553 -23.510  0.00  0.00    +0.133 C 
ATOM     20  C   UNL     1      32.397  -5.867 -25.002  0.00  0.00    +0.105 C 
ATOM     21  C   UNL     1      30.947  -4.920 -21.385  0.00  0.00    +0.252 C 
ATOM     22  H   UNL     1      31.283  -3.024 -24.899  0.00  0.00    +0.176 HD
ENDBRANCH   3  12
BRANCH   5  24
ATOM     23  F   UNL     1      35.419 -19.375 -22.024  0.00  0.00    -0.204 F 
ATOM     24  C   UNL     1      34.494 -15.470 -23.003  0.00  0.00    +0.027 C 
ATOM     25  C   UNL     1      33.982 -16.518 -23.768  0.00  0.00    +0.008 C 
ATOM     26  C   UNL     1      35.319 -15.743 -21.911  0.00  0.00    +0.005 C 
ATOM     27  C   UNL     1      34.292 -17.838 -23.440  0.00  0.00    +0.099 C 
ATOM     28  C   UNL     1      35.629 -17.061 -21.582  0.00  0.00    +0.030 C 
ATOM     29  C   UNL     1      35.115 -18.109 -22.347  0.00  0.00    +0.144 C 
BRANCH  27  33
ATOM     30  F   UNL     1      32.893 -18.545 -25.246  0.00  0.00    -0.166 F 
ATOM     31  F   UNL     1      34.702 -19.689 -24.897  0.00  0.00    -0.166 F 
ATOM     32  F   UNL     1      33.031 -19.852 -23.513  0.00  0.00    -0.166 F 
ATOM     33  C   UNL     1      33.742 -18.957 -24.258  0.00  0.00    +0.421 C 
ENDBRANCH  27  33
ENDBRANCH   5  24
TORSDOF 3
ENDMDL
MODEL 8
REMARK VINA RESULT:     -10.1      7.574     13.253
REMARK  Name = 25118925
REMARK  3 active torsions:
REMARK  status: ('A' for Active; 'I' for Inactive)
REMARK    1  A    between atoms: C_3  and  C_12
REMARK    2  A    between atoms: C_5  and  C_24
REMARK    3  A    between atoms: C_27  and  C_33
REMARK                            x       y       z     vdW  Elec       q    Type
REMARK                         _______ _______ _______ _____ _____    ______ ____
ROOT
ATOM      1  N   UNL     1      35.826 -20.486 -19.819  0.00  0.00    -0.279 N 
ATOM      2  N   UNL     1      33.921 -19.779 -20.717  0.00  0.00    -0.394 NA
ATOM      3  C   UNL     1      34.470 -20.648 -19.897  0.00  0.00    +0.160 C 
ATOM      4  C   UNL     1      36.162 -19.447 -20.642  0.00  0.00    +0.152 C 
ATOM      5  C   UNL     1      34.970 -19.028 -21.184  0.00  0.00    +0.130 C 
ATOM      6  C   UNL     1      36.747 -21.259 -19.022  0.00  0.00    +0.115 C 
ENDROOT
BRANCH   3  12
ATOM      7  N   UNL     1      32.732 -22.999 -16.718  0.00  0.00    -0.296 N 
ATOM      8  N   UNL     1      30.922 -24.107 -15.629  0.00  0.00    -0.233 NA
ATOM      9  N   UNL     1      33.282 -24.551 -12.401  0.00  0.00    -0.223 N 
ATOM     10  N   UNL     1      31.095 -24.968 -13.353  0.00  0.00    -0.232 NA
ATOM     11  N   UNL     1      34.457 -23.985 -12.732  0.00  0.00    -0.183 NA
ATOM     12  C   UNL     1      33.738 -21.719 -19.112  0.00  0.00    +0.070 C 
ATOM     13  C   UNL     1      32.541 -21.150 -18.335  0.00  0.00    +0.030 C 
ATOM     14  C   UNL     1      34.669 -22.465 -18.145  0.00  0.00    +0.030 C 
ATOM     15  C   UNL     1      31.802 -22.249 -17.573  0.00  0.00    +0.092 C 
ATOM     16  C   UNL     1      33.919 -23.555 -17.377  0.00  0.00    +0.092 C 
ATOM     17  C   UNL     1      32.197 -23.650 -15.601  0.00  0.00    +0.118 C 
ATOM     18  C   UNL     1      32.958 -23.838 -14.451  0.00  0.00    +0.152 C 
ATOM     19  C   UNL     1      32.349 -24.491 -13.393  0.00  0.00    +0.133 C 
ATOM     20  C   UNL     1      34.253 -23.553 -13.982  0.00  0.00    +0.105 C 
ATOM     21  C   UNL     1      30.457 -24.729 -14.519  0.00  0.00    +0.252 C 
ATOM     22  H   UNL     1      33.112 -24.969 -11.527  0.00  0.00    +0.176 HD
ENDBRANCH   3  12
BRANCH   5  24
ATOM     23  F   UNL     1      34.425 -14.851 -24.814  0.00  0.00    -0.204 F 
ATOM     24  C   UNL     1      34.829 -17.951 -22.115  0.00  0.00    +0.027 C 
ATOM     25  C   UNL     1      34.651 -16.647 -21.654  0.00  0.00    +0.008 C 
ATOM     26  C   UNL     1      34.871 -18.206 -23.486  0.00  0.00    +0.005 C 
ATOM     27  C   UNL     1      34.514 -15.598 -22.562  0.00  0.00    +0.099 C 
ATOM     28  C   UNL     1      34.734 -17.158 -24.395  0.00  0.00    +0.030 C 
ATOM     29  C   UNL     1      34.556 -15.853 -23.933  0.00  0.00    +0.144 C 
BRANCH  27  33
ATOM     30  F   UNL     1      34.900 -13.257 -22.864  0.00  0.00    -0.166 F 
ATOM     31  F   UNL     1      33.013 -13.835 -21.966  0.00  0.00    -0.166 F 
ATOM     32  F   UNL     1      34.857 -14.011 -20.825  0.00  0.00    -0.166 F 
ATOM     33  C   UNL     1      34.324 -14.205 -22.067  0.00  0.00    +0.421 C 
ENDBRANCH  27  33
ENDBRANCH   5  24
TORSDOF 3
ENDMDL
MODEL 9
REMARK VINA RESULT:      -9.7      5.649     10.923
REMARK  Name = 25118925
REMARK  3 active torsions:
REMARK  status: ('A' for Active; 'I' for Inactive)
REMARK    1  A    between atoms: C_3  and  C_12
REMARK    2  A    between atoms: C_5  and  C_24
REMARK    3  A    between atoms: C_27  and  C_33
REMARK                            x       y       z     vdW  Elec       q    Type
REMARK                         _______ _______ _______ _____ _____    ______ ____
ROOT
ATOM      1  N   UNL     1      32.624 -11.562 -22.226  0.00  0.00    -0.279 N 
ATOM      2  N   UNL     1      33.908 -10.536 -23.721  0.00  0.00    -0.394 NA
ATOM      3  C   UNL     1      33.543 -11.700 -23.229  0.00  0.00    +0.160 C 
ATOM      4  C   UNL     1      32.388 -10.225 -22.068  0.00  0.00    +0.152 C 
ATOM      5  C   UNL     1      33.192  -9.613 -23.001  0.00  0.00    +0.130 C 
ATOM      6  C   UNL     1      32.007 -12.621 -21.464  0.00  0.00    +0.115 C 
ENDROOT
BRANCH   3  12
ATOM      7  N   UNL     1      34.327 -15.935 -23.555  0.00  0.00    -0.296 N 
ATOM      8  N   UNL     1      34.362 -18.015 -24.725  0.00  0.00    -0.233 NA
ATOM      9  N   UNL     1      35.134 -19.842 -21.224  0.00  0.00    -0.223 N 
ATOM     10  N   UNL     1      34.777 -20.140 -23.601  0.00  0.00    -0.232 NA
ATOM     11  N   UNL     1      35.177 -18.859 -20.306  0.00  0.00    -0.183 NA
ATOM     12  C   UNL     1      34.047 -13.057 -23.682  0.00  0.00    +0.070 C 
ATOM     13  C   UNL     1      32.900 -13.996 -24.084  0.00  0.00    +0.030 C 
ATOM     14  C   UNL     1      34.918 -13.736 -22.615  0.00  0.00    +0.030 C 
ATOM     15  C   UNL     1      33.432 -15.347 -24.562  0.00  0.00    +0.092 C 
ATOM     16  C   UNL     1      35.436 -15.092 -23.097  0.00  0.00    +0.092 C 
ATOM     17  C   UNL     1      34.477 -17.326 -23.563  0.00  0.00    +0.118 C 
ATOM     18  C   UNL     1      34.746 -18.023 -22.389  0.00  0.00    +0.152 C 
ATOM     19  C   UNL     1      34.878 -19.397 -22.488  0.00  0.00    +0.133 C 
ATOM     20  C   UNL     1      34.940 -17.754 -21.021  0.00  0.00    +0.105 C 
ATOM     21  C   UNL     1      34.517 -19.359 -24.672  0.00  0.00    +0.252 C 
ATOM     22  H   UNL     1      35.273 -20.791 -21.006  0.00  0.00    +0.176 HD
ENDBRANCH   3  12
BRANCH   5  24
ATOM     23  F   UNL     1      33.546  -4.121 -23.792  0.00  0.00    -0.204 F 
ATOM     24  C   UNL     1      33.280  -8.200 -23.203  0.00  0.00    +0.027 C 
ATOM     25  C   UNL     1      32.283  -7.360 -22.708  0.00  0.00    +0.008 C 
ATOM     26  C   UNL     1      34.365  -7.661 -23.895  0.00  0.00    +0.005 C 
ATOM     27  C   UNL     1      32.369  -5.982 -22.905  0.00  0.00    +0.099 C 
ATOM     28  C   UNL     1      34.452  -6.284 -24.093  0.00  0.00    +0.030 C 
ATOM     29  C   UNL     1      33.454  -5.444 -23.598  0.00  0.00    +0.144 C 
BRANCH  27  33
ATOM     30  F   UNL     1      30.200  -5.756 -21.923  0.00  0.00    -0.166 F 
ATOM     31  F   UNL     1      31.707  -4.316 -21.323  0.00  0.00    -0.166 F 
ATOM     32  F   UNL     1      30.837  -4.211 -23.314  0.00  0.00    -0.166 F 
ATOM     33  C   UNL     1      31.302  -5.086 -22.375  0.00  0.00    +0.421 C 
ENDBRANCH  27  33
ENDBRANCH   5  24
TORSDOF 3
ENDMDL
