MODEL 1
REMARK VINA RESULT:     -11.3      0.000      0.000
REMARK  Name = 56842109
REMARK  7 active torsions:
REMARK  status: ('A' for Active; 'I' for Inactive)
REMARK    1  A    between atoms: C_1  and  C_24
REMARK    2  A    between atoms: C_3  and  C_9
REMARK    3  A    between atoms: C_5  and  O_22
REMARK    4  A    between atoms: N_8  and  C_11
REMARK    5  A    between atoms: C_11  and  C_12
REMARK    6  A    between atoms: C_15  and  C_21
REMARK    7  A    between atoms: C_24  and  C_29
REMARK                            x       y       z     vdW  Elec       q    Type
REMARK                         _______ _______ _______ _____ _____    ______ ____
ROOT
ATOM      1  C   UNL     1      33.990 -23.961 -13.830  0.00  0.00    -0.018 C 
ATOM      2  C   UNL     1      34.062 -23.865 -15.220  0.00  0.00    +0.003 C 
ATOM      3  C   UNL     1      32.962 -23.405 -15.945  0.00  0.00    +0.087 C 
ATOM      4  C   UNL     1      32.819 -23.596 -13.166  0.00  0.00    -0.001 C 
ATOM      5  C   UNL     1      31.791 -23.041 -15.281  0.00  0.00    +0.143 C 
ATOM      6  C   UNL     1      31.720 -23.136 -13.891  0.00  0.00    +0.037 C 
ENDROOT
BRANCH   3   9
ATOM      7  O   UNL     1      33.482 -24.271 -18.061  0.00  0.00    -0.270 OA
ATOM      8  N   UNL     1      32.637 -22.114 -17.983  0.00  0.00    -0.297 N 
ATOM      9  C   UNL     1      33.059 -23.311 -17.396  0.00  0.00    +0.249 C 
ATOM     10  H   UNL     1      32.314 -21.394 -17.394  0.00  0.00    +0.150 HD
BRANCH   8  11
ATOM     11  C   UNL     1      32.650 -21.877 -19.409  0.00  0.00    +0.117 C 
BRANCH  11  12
ATOM     12  C   UNL     1      33.794 -20.998 -19.821  0.00  0.00    -0.003 C 
ATOM     13  C   UNL     1      35.080 -21.257 -19.345  0.00  0.00    -0.003 C 
ATOM     14  C   UNL     1      33.573 -19.922 -20.681  0.00  0.00    -0.003 C 
ATOM     15  C   UNL     1      35.922 -19.365 -20.588  0.00  0.00    +0.071 C 
ATOM     16  C   UNL     1      36.144 -20.441 -19.728  0.00  0.00    +0.004 C 
ATOM     17  C   UNL     1      34.637 -19.106 -21.064  0.00  0.00    +0.004 C 
BRANCH  15  21
ATOM     18  F   UNL     1      37.814 -19.050 -21.994  0.00  0.00    -0.166 F 
ATOM     19  F   UNL     1      36.671 -17.273 -21.476  0.00  0.00    -0.166 F 
ATOM     20  F   UNL     1      37.934 -18.219 -19.988  0.00  0.00    -0.166 F 
ATOM     21  C   UNL     1      37.060 -18.494 -21.000  0.00  0.00    +0.419 C 
ENDBRANCH  15  21
ENDBRANCH  11  12
ENDBRANCH   8  11
ENDBRANCH   3   9
BRANCH   5  22
ATOM     22  O   UNL     1      30.708 -22.586 -15.972  0.00  0.00    -0.471 OA
ATOM     23  C   UNL     1      29.431 -23.074 -15.566  0.00  0.00    +0.252 C 
ENDBRANCH   5  22
BRANCH   1  24
ATOM     24  C   UNL     1      35.180 -24.457 -13.046  0.00  0.00    +0.080 C 
BRANCH  24  29
ATOM     25  O   UNL     1      36.620 -22.767 -12.096  0.00  0.00    -0.428 OA
ATOM     26  O   UNL     1      35.206 -25.255 -10.095  0.00  0.00    -0.271 OA
ATOM     27  O   UNL     1      38.682 -22.485 -11.150  0.00  0.00    -0.226 OA
ATOM     28  N   UNL     1      37.144 -23.997 -10.323  0.00  0.00    -0.218 N 
ATOM     29  C   UNL     1      35.468 -23.589 -11.840  0.00  0.00    +0.250 C 
ATOM     30  C   UNL     1      35.883 -24.401 -10.645  0.00  0.00    +0.271 C 
ATOM     31  C   UNL     1      37.592 -23.039 -11.174  0.00  0.00    +0.408 C 
ATOM     32  H   UNL     1      37.665 -24.356  -9.568  0.00  0.00    +0.161 HD
ENDBRANCH  24  29
ENDBRANCH   1  24
TORSDOF 7
ENDMDL
MODEL 2
REMARK VINA RESULT:     -10.8      6.695     11.207
REMARK  Name = 56842109
REMARK  7 active torsions:
REMARK  status: ('A' for Active; 'I' for Inactive)
REMARK    1  A    between atoms: C_1  and  C_24
REMARK    2  A    between atoms: C_3  and  C_9
REMARK    3  A    between atoms: C_5  and  O_22
REMARK    4  A    between atoms: N_8  and  C_11
REMARK    5  A    between atoms: C_11  and  C_12
REMARK    6  A    between atoms: C_15  and  C_21
REMARK    7  A    between atoms: C_24  and  C_29
REMARK                            x       y       z     vdW  Elec       q    Type
REMARK                         _______ _______ _______ _____ _____    ______ ____
ROOT
ATOM      1  C   UNL     1      34.116 -13.932 -22.948  0.00  0.00    -0.018 C 
ATOM      2  C   UNL     1      34.741 -14.813 -22.064  0.00  0.00    +0.003 C 
ATOM      3  C   UNL     1      34.949 -16.142 -22.435  0.00  0.00    +0.087 C 
ATOM      4  C   UNL     1      33.701 -14.381 -24.201  0.00  0.00    -0.001 C 
ATOM      5  C   UNL     1      34.534 -16.590 -23.688  0.00  0.00    +0.143 C 
ATOM      6  C   UNL     1      33.909 -15.709 -24.572  0.00  0.00    +0.037 C 
ENDROOT
BRANCH   3   9
ATOM      7  O   UNL     1      35.396 -16.942 -20.277  0.00  0.00    -0.270 OA
ATOM      8  N   UNL     1      36.445 -18.022 -22.041  0.00  0.00    -0.297 N 
ATOM      9  C   UNL     1      35.605 -17.044 -21.498  0.00  0.00    +0.249 C 
ATOM     10  H   UNL     1      36.564 -18.043 -23.019  0.00  0.00    +0.150 HD
BRANCH   8  11
ATOM     11  C   UNL     1      37.147 -19.002 -21.245  0.00  0.00    +0.117 C 
BRANCH  11  12
ATOM     12  C   UNL     1      36.205 -19.853 -20.444  0.00  0.00    -0.003 C 
ATOM     13  C   UNL     1      34.841 -19.846 -20.733  0.00  0.00    -0.003 C 
ATOM     14  C   UNL     1      36.694 -20.651 -19.409  0.00  0.00    -0.003 C 
ATOM     15  C   UNL     1      34.454 -21.434 -18.956  0.00  0.00    +0.071 C 
ATOM     16  C   UNL     1      33.964 -20.637 -19.990  0.00  0.00    +0.004 C 
ATOM     17  C   UNL     1      35.818 -21.441 -18.665  0.00  0.00    +0.004 C 
BRANCH  15  21
ATOM     18  F   UNL     1      33.298 -23.501 -18.737  0.00  0.00    -0.166 F 
ATOM     19  F   UNL     1      33.961 -22.549 -16.897  0.00  0.00    -0.166 F 
ATOM     20  F   UNL     1      32.282 -21.726 -17.996  0.00  0.00    -0.166 F 
ATOM     21  C   UNL     1      33.518 -22.282 -18.162  0.00  0.00    +0.419 C 
ENDBRANCH  15  21
ENDBRANCH  11  12
ENDBRANCH   8  11
ENDBRANCH   3   9
BRANCH   5  22
ATOM     22  O   UNL     1      34.732 -17.883 -24.069  0.00  0.00    -0.471 OA
ATOM     23  C   UNL     1      33.570 -18.653 -24.375  0.00  0.00    +0.252 C 
ENDBRANCH   5  22
BRANCH   1  24
ATOM     24  C   UNL     1      33.891 -12.495 -22.547  0.00  0.00    +0.080 C 
BRANCH  24  29
ATOM     25  O   UNL     1      32.173 -10.801 -22.460  0.00  0.00    -0.428 OA
ATOM     26  O   UNL     1      32.155 -13.494 -20.238  0.00  0.00    -0.271 OA
ATOM     27  O   UNL     1      31.404  -9.084 -21.161  0.00  0.00    -0.226 OA
ATOM     28  N   UNL     1      31.645 -11.232 -20.346  0.00  0.00    -0.218 N 
ATOM     29  C   UNL     1      32.431 -12.203 -22.274  0.00  0.00    +0.250 C 
ATOM     30  C   UNL     1      32.069 -12.432 -20.834  0.00  0.00    +0.271 C 
ATOM     31  C   UNL     1      31.707 -10.261 -21.293  0.00  0.00    +0.408 C 
ATOM     32  H   UNL     1      31.333 -11.087 -19.423  0.00  0.00    +0.161 HD
ENDBRANCH  24  29
ENDBRANCH   1  24
TORSDOF 7
ENDMDL
MODEL 3
REMARK VINA RESULT:     -10.7      6.533     11.041
REMARK  Name = 56842109
REMARK  7 active torsions:
REMARK  status: ('A' for Active; 'I' for Inactive)
REMARK    1  A    between atoms: C_1  and  C_24
REMARK    2  A    between atoms: C_3  and  C_9
REMARK    3  A    between atoms: C_5  and  O_22
REMARK    4  A    between atoms: N_8  and  C_11
REMARK    5  A    between atoms: C_11  and  C_12
REMARK    6  A    between atoms: C_15  and  C_21
REMARK    7  A    between atoms: C_24  and  C_29
REMARK                            x       y       z     vdW  Elec       q    Type
REMARK                         _______ _______ _______ _____ _____    ______ ____
ROOT
ATOM      1  C   UNL     1      34.739 -15.661 -22.323  0.00  0.00    -0.018 C 
ATOM      2  C   UNL     1      35.302 -16.560 -21.416  0.00  0.00    +0.003 C 
ATOM      3  C   UNL     1      35.473 -17.897 -21.776  0.00  0.00    +0.087 C 
ATOM      4  C   UNL     1      34.349 -16.100 -23.587  0.00  0.00    -0.001 C 
ATOM      5  C   UNL     1      35.083 -18.336 -23.040  0.00  0.00    +0.143 C 
ATOM      6  C   UNL     1      34.520 -17.437 -23.947  0.00  0.00    +0.037 C 
ENDROOT
BRANCH   3   9
ATOM      7  O   UNL     1      37.080 -18.495 -20.176  0.00  0.00    -0.270 OA
ATOM      8  N   UNL     1      35.425 -20.051 -20.641  0.00  0.00    -0.297 N 
ATOM      9  C   UNL     1      36.065 -18.819 -20.815  0.00  0.00    +0.249 C 
ATOM     10  H   UNL     1      34.624 -20.241 -21.182  0.00  0.00    +0.150 HD
BRANCH   8  11
ATOM     11  C   UNL     1      35.877 -21.059 -19.710  0.00  0.00    +0.117 C 
BRANCH  11  12
ATOM     12  C   UNL     1      34.768 -21.539 -18.820  0.00  0.00    -0.003 C 
ATOM     13  C   UNL     1      33.443 -21.232 -19.129  0.00  0.00    -0.003 C 
ATOM     14  C   UNL     1      35.061 -22.293 -17.683  0.00  0.00    -0.003 C 
ATOM     15  C   UNL     1      32.705 -22.431 -17.167  0.00  0.00    +0.071 C 
ATOM     16  C   UNL     1      32.411 -21.678 -18.303  0.00  0.00    +0.004 C 
ATOM     17  C   UNL     1      34.030 -22.739 -16.857  0.00  0.00    +0.004 C 
BRANCH  15  21
ATOM     18  F   UNL     1      31.553 -24.272 -16.199  0.00  0.00    -0.166 F 
ATOM     19  F   UNL     1      31.700 -22.467 -14.996  0.00  0.00    -0.166 F 
ATOM     20  F   UNL     1      30.361 -22.524 -16.701  0.00  0.00    -0.166 F 
ATOM     21  C   UNL     1      31.603 -22.911 -16.285  0.00  0.00    +0.419 C 
ENDBRANCH  15  21
ENDBRANCH  11  12
ENDBRANCH   8  11
ENDBRANCH   3   9
BRANCH   5  22
ATOM     22  O   UNL     1      35.245 -19.637 -23.411  0.00  0.00    -0.471 OA
ATOM     23  C   UNL     1      34.581 -20.059 -24.601  0.00  0.00    +0.252 C 
ENDBRANCH   5  22
BRANCH   1  24
ATOM     24  C   UNL     1      34.555 -14.215 -21.934  0.00  0.00    +0.080 C 
BRANCH  24  29
ATOM     25  O   UNL     1      33.979 -12.710 -23.733  0.00  0.00    -0.428 OA
ATOM     26  O   UNL     1      32.018 -12.897 -20.849  0.00  0.00    -0.271 OA
ATOM     27  O   UNL     1      33.879 -10.486 -24.255  0.00  0.00    -0.226 OA
ATOM     28  N   UNL     1      32.775 -11.373 -22.430  0.00  0.00    -0.218 N 
ATOM     29  C   UNL     1      33.432 -13.557 -22.708  0.00  0.00    +0.250 C 
ATOM     30  C   UNL     1      32.642 -12.604 -21.858  0.00  0.00    +0.271 C 
ATOM     31  C   UNL     1      33.565 -11.422 -23.533  0.00  0.00    +0.408 C 
ATOM     32  H   UNL     1      32.351 -10.553 -22.087  0.00  0.00    +0.161 HD
ENDBRANCH  24  29
ENDBRANCH   1  24
TORSDOF 7
ENDMDL
MODEL 4
REMARK VINA RESULT:     -10.7      5.102      9.824
REMARK  Name = 56842109
REMARK  7 active torsions:
REMARK  status: ('A' for Active; 'I' for Inactive)
REMARK    1  A    between atoms: C_1  and  C_24
REMARK    2  A    between atoms: C_3  and  C_9
REMARK    3  A    between atoms: C_5  and  O_22
REMARK    4  A    between atoms: N_8  and  C_11
REMARK    5  A    between atoms: C_11  and  C_12
REMARK    6  A    between atoms: C_15  and  C_21
REMARK    7  A    between atoms: C_24  and  C_29
REMARK                            x       y       z     vdW  Elec       q    Type
REMARK                         _______ _______ _______ _____ _____    ______ ____
ROOT
ATOM      1  C   UNL     1      34.778 -19.988 -20.634  0.00  0.00    -0.018 C 
ATOM      2  C   UNL     1      34.107 -20.941 -19.867  0.00  0.00    +0.003 C 
ATOM      3  C   UNL     1      34.787 -21.636 -18.866  0.00  0.00    +0.087 C 
ATOM      4  C   UNL     1      36.128 -19.731 -20.400  0.00  0.00    -0.001 C 
ATOM      5  C   UNL     1      36.137 -21.378 -18.633  0.00  0.00    +0.143 C 
ATOM      6  C   UNL     1      36.808 -20.426 -19.400  0.00  0.00    +0.037 C 
ENDROOT
BRANCH   3   9
ATOM      7  O   UNL     1      33.441 -23.542 -18.635  0.00  0.00    -0.270 OA
ATOM      8  N   UNL     1      34.139 -22.499 -16.684  0.00  0.00    -0.297 N 
ATOM      9  C   UNL     1      34.067 -22.625 -18.076  0.00  0.00    +0.249 C 
ATOM     10  H   UNL     1      34.653 -21.747 -16.310  0.00  0.00    +0.150 HD
BRANCH   8  11
ATOM     11  C   UNL     1      33.498 -23.414 -15.767  0.00  0.00    +0.117 C 
BRANCH  11  12
ATOM     12  C   UNL     1      34.264 -23.551 -14.484  0.00  0.00    -0.003 C 
ATOM     13  C   UNL     1      35.575 -23.081 -14.400  0.00  0.00    -0.003 C 
ATOM     14  C   UNL     1      33.667 -24.149 -13.374  0.00  0.00    -0.003 C 
ATOM     15  C   UNL     1      35.690 -23.804 -12.099  0.00  0.00    +0.071 C 
ATOM     16  C   UNL     1      36.289 -23.207 -13.208  0.00  0.00    +0.004 C 
ATOM     17  C   UNL     1      34.379 -24.276 -12.182  0.00  0.00    +0.004 C 
BRANCH  15  21
ATOM     18  F   UNL     1      37.089 -22.784 -10.470  0.00  0.00    -0.166 F 
ATOM     19  F   UNL     1      35.669 -24.266  -9.752  0.00  0.00    -0.166 F 
ATOM     20  F   UNL     1      37.422 -24.897 -10.863  0.00  0.00    -0.166 F 
ATOM     21  C   UNL     1      36.451 -23.937 -10.824  0.00  0.00    +0.419 C 
ENDBRANCH  15  21
ENDBRANCH  11  12
ENDBRANCH   8  11
ENDBRANCH   3   9
BRANCH   5  22
ATOM     22  O   UNL     1      36.818 -22.045 -17.658  0.00  0.00    -0.471 OA
ATOM     23  C   UNL     1      37.504 -21.252 -16.691  0.00  0.00    +0.252 C 
ENDBRANCH   5  22
BRANCH   1  24
ATOM     24  C   UNL     1      34.041 -19.237 -21.715  0.00  0.00    +0.080 C 
BRANCH  24  29
ATOM     25  O   UNL     1      35.351 -17.257 -22.161  0.00  0.00    -0.428 OA
ATOM     26  O   UNL     1      33.843 -19.037 -24.759  0.00  0.00    -0.271 OA
ATOM     27  O   UNL     1      35.155 -15.092 -22.867  0.00  0.00    -0.226 OA
ATOM     28  N   UNL     1      34.375 -16.870 -24.119  0.00  0.00    -0.218 N 
ATOM     29  C   UNL     1      34.988 -18.550 -22.676  0.00  0.00    +0.250 C 
ATOM     30  C   UNL     1      34.328 -18.226 -23.986  0.00  0.00    +0.271 C 
ATOM     31  C   UNL     1      34.971 -16.287 -23.046  0.00  0.00    +0.408 C 
ATOM     32  H   UNL     1      34.022 -16.376 -24.893  0.00  0.00    +0.161 HD
ENDBRANCH  24  29
ENDBRANCH   1  24
TORSDOF 7
ENDMDL
MODEL 5
REMARK VINA RESULT:     -10.6     10.397     14.288
REMARK  Name = 56842109
REMARK  7 active torsions:
REMARK  status: ('A' for Active; 'I' for Inactive)
REMARK    1  A    between atoms: C_1  and  C_24
REMARK    2  A    between atoms: C_3  and  C_9
REMARK    3  A    between atoms: C_5  and  O_22
REMARK    4  A    between atoms: N_8  and  C_11
REMARK    5  A    between atoms: C_11  and  C_12
REMARK    6  A    between atoms: C_15  and  C_21
REMARK    7  A    between atoms: C_24  and  C_29
REMARK                            x       y       z     vdW  Elec       q    Type
REMARK                         _______ _______ _______ _____ _____    ______ ____
ROOT
ATOM      1  C   UNL     1      32.230  -8.906 -22.411  0.00  0.00    -0.018 C 
ATOM      2  C   UNL     1      32.894  -9.793 -23.259  0.00  0.00    +0.003 C 
ATOM      3  C   UNL     1      32.865 -11.163 -22.997  0.00  0.00    +0.087 C 
ATOM      4  C   UNL     1      31.535  -9.390 -21.303  0.00  0.00    -0.001 C 
ATOM      5  C   UNL     1      32.170 -11.646 -21.889  0.00  0.00    +0.143 C 
ATOM      6  C   UNL     1      31.505 -10.760 -21.041  0.00  0.00    +0.037 C 
ENDROOT
BRANCH   3   9
ATOM      7  O   UNL     1      34.528 -11.671 -24.569  0.00  0.00    -0.270 OA
ATOM      8  N   UNL     1      33.112 -13.395 -23.938  0.00  0.00    -0.297 N 
ATOM      9  C   UNL     1      33.564 -12.071 -23.895  0.00  0.00    +0.249 C 
ATOM     10  H   UNL     1      32.341 -13.642 -23.377  0.00  0.00    +0.150 HD
BRANCH   8  11
ATOM     11  C   UNL     1      33.715 -14.418 -24.760  0.00  0.00    +0.117 C 
BRANCH  11  12
ATOM     12  C   UNL     1      34.234 -15.564 -23.942  0.00  0.00    -0.003 C 
ATOM     13  C   UNL     1      34.150 -16.866 -24.435  0.00  0.00    -0.003 C 
ATOM     14  C   UNL     1      34.799 -15.328 -22.689  0.00  0.00    -0.003 C 
ATOM     15  C   UNL     1      35.197 -17.696 -22.423  0.00  0.00    +0.071 C 
ATOM     16  C   UNL     1      34.632 -17.933 -23.676  0.00  0.00    +0.004 C 
ATOM     17  C   UNL     1      35.280 -16.394 -21.929  0.00  0.00    +0.004 C 
BRANCH  15  21
ATOM     18  F   UNL     1      35.343 -20.049 -22.114  0.00  0.00    -0.166 F 
ATOM     19  F   UNL     1      37.079 -18.875 -21.532  0.00  0.00    -0.166 F 
ATOM     20  F   UNL     1      35.283 -18.826 -20.317  0.00  0.00    -0.166 F 
ATOM     21  C   UNL     1      35.715 -18.835 -21.612  0.00  0.00    +0.419 C 
ENDBRANCH  15  21
ENDBRANCH  11  12
ENDBRANCH   8  11
ENDBRANCH   3   9
BRANCH   5  22
ATOM     22  O   UNL     1      32.126 -12.982 -21.618  0.00  0.00    -0.471 OA
ATOM     23  C   UNL     1      32.446 -13.383 -20.287  0.00  0.00    +0.252 C 
ENDBRANCH   5  22
BRANCH   1  24
ATOM     24  C   UNL     1      32.262  -7.425 -22.695  0.00  0.00    +0.080 C 
BRANCH  24  29
ATOM     25  O   UNL     1      30.752  -5.553 -22.477  0.00  0.00    -0.428 OA
ATOM     26  O   UNL     1      32.802  -6.526 -19.824  0.00  0.00    -0.271 OA
ATOM     27  O   UNL     1      30.728  -3.276 -22.273  0.00  0.00    -0.226 OA
ATOM     28  N   UNL     1      31.897  -4.630 -20.812  0.00  0.00    -0.218 N 
ATOM     29  C   UNL     1      31.353  -6.648 -21.766  0.00  0.00    +0.250 C 
ATOM     30  C   UNL     1      32.117  -5.968 -20.666  0.00  0.00    +0.271 C 
ATOM     31  C   UNL     1      31.098  -4.372 -21.880  0.00  0.00    +0.408 C 
ATOM     32  H   UNL     1      32.270  -3.939 -20.219  0.00  0.00    +0.161 HD
ENDBRANCH  24  29
ENDBRANCH   1  24
TORSDOF 7
ENDMDL
MODEL 6
REMARK VINA RESULT:     -10.6      2.083      2.890
REMARK  Name = 56842109
REMARK  7 active torsions:
REMARK  status: ('A' for Active; 'I' for Inactive)
REMARK    1  A    between atoms: C_1  and  C_24
REMARK    2  A    between atoms: C_3  and  C_9
REMARK    3  A    between atoms: C_5  and  O_22
REMARK    4  A    between atoms: N_8  and  C_11
REMARK    5  A    between atoms: C_11  and  C_12
REMARK    6  A    between atoms: C_15  and  C_21
REMARK    7  A    between atoms: C_24  and  C_29
REMARK                            x       y       z     vdW  Elec       q    Type
REMARK                         _______ _______ _______ _____ _____    ______ ____
ROOT
ATOM      1  C   UNL     1      34.158 -23.984 -13.859  0.00  0.00    -0.018 C 
ATOM      2  C   UNL     1      33.819 -23.581 -15.151  0.00  0.00    +0.003 C 
ATOM      3  C   UNL     1      32.508 -23.202 -15.442  0.00  0.00    +0.087 C 
ATOM      4  C   UNL     1      33.186 -24.008 -12.859  0.00  0.00    -0.001 C 
ATOM      5  C   UNL     1      31.537 -23.225 -14.442  0.00  0.00    +0.143 C 
ATOM      6  C   UNL     1      31.875 -23.629 -13.150  0.00  0.00    +0.037 C 
ENDROOT
BRANCH   3   9
ATOM      7  O   UNL     1      31.052 -22.319 -17.054  0.00  0.00    -0.270 OA
ATOM      8  N   UNL     1      33.181 -22.906 -17.763  0.00  0.00    -0.297 N 
ATOM      9  C   UNL     1      32.176 -22.782 -16.797  0.00  0.00    +0.249 C 
ATOM     10  H   UNL     1      34.048 -23.283 -17.488  0.00  0.00    +0.150 HD
BRANCH   8  11
ATOM     11  C   UNL     1      33.012 -22.512 -19.143  0.00  0.00    +0.117 C 
BRANCH  11  12
ATOM     12  C   UNL     1      34.032 -21.495 -19.565  0.00  0.00    -0.003 C 
ATOM     13  C   UNL     1      33.651 -20.416 -20.363  0.00  0.00    -0.003 C 
ATOM     14  C   UNL     1      35.360 -21.628 -19.160  0.00  0.00    -0.003 C 
ATOM     15  C   UNL     1      35.925 -19.603 -20.351  0.00  0.00    +0.071 C 
ATOM     16  C   UNL     1      34.598 -19.470 -20.757  0.00  0.00    +0.004 C 
ATOM     17  C   UNL     1      36.307 -20.683 -19.554  0.00  0.00    +0.004 C 
BRANCH  15  21
ATOM     18  F   UNL     1      36.372 -17.403 -21.135  0.00  0.00    -0.166 F 
ATOM     19  F   UNL     1      37.838 -18.280 -19.789  0.00  0.00    -0.166 F 
ATOM     20  F   UNL     1      37.695 -18.981 -21.836  0.00  0.00    -0.166 F 
ATOM     21  C   UNL     1      36.938 -18.591 -20.769  0.00  0.00    +0.419 C 
ENDBRANCH  15  21
ENDBRANCH  11  12
ENDBRANCH   8  11
ENDBRANCH   3   9
BRANCH   5  22
ATOM     22  O   UNL     1      30.252 -22.856 -14.706  0.00  0.00    -0.471 OA
ATOM     23  C   UNL     1      29.262 -23.882 -14.666  0.00  0.00    +0.252 C 
ENDBRANCH   5  22
BRANCH   1  24
ATOM     24  C   UNL     1      35.575 -24.393 -13.545  0.00  0.00    +0.080 C 
BRANCH  24  29
ATOM     25  O   UNL     1      35.926 -26.225 -15.080  0.00  0.00    -0.428 OA
ATOM     26  O   UNL     1      38.537 -24.069 -14.228  0.00  0.00    -0.271 OA
ATOM     27  O   UNL     1      36.989 -28.240 -15.263  0.00  0.00    -0.226 OA
ATOM     28  N   UNL     1      38.118 -26.297 -14.728  0.00  0.00    -0.218 N 
ATOM     29  C   UNL     1      36.314 -24.874 -14.775  0.00  0.00    +0.250 C 
ATOM     30  C   UNL     1      37.794 -24.987 -14.539  0.00  0.00    +0.271 C 
ATOM     31  C   UNL     1      37.024 -27.038 -15.042  0.00  0.00    +0.408 C 
ATOM     32  H   UNL     1      39.029 -26.661 -14.648  0.00  0.00    +0.161 HD
ENDBRANCH  24  29
ENDBRANCH   1  24
TORSDOF 7
ENDMDL
MODEL 7
REMARK VINA RESULT:     -10.6     10.363     14.247
REMARK  Name = 56842109
REMARK  7 active torsions:
REMARK  status: ('A' for Active; 'I' for Inactive)
REMARK    1  A    between atoms: C_1  and  C_24
REMARK    2  A    between atoms: C_3  and  C_9
REMARK    3  A    between atoms: C_5  and  O_22
REMARK    4  A    between atoms: N_8  and  C_11
REMARK    5  A    between atoms: C_11  and  C_12
REMARK    6  A    between atoms: C_15  and  C_21
REMARK    7  A    between atoms: C_24  and  C_29
REMARK                            x       y       z     vdW  Elec       q    Type
REMARK                         _______ _______ _______ _____ _____    ______ ____
ROOT
ATOM      1  C   UNL     1      32.219  -8.942 -22.355  0.00  0.00    -0.018 C 
ATOM      2  C   UNL     1      32.883  -9.826 -23.206  0.00  0.00    +0.003 C 
ATOM      3  C   UNL     1      32.849 -11.197 -22.952  0.00  0.00    +0.087 C 
ATOM      4  C   UNL     1      31.522  -9.430 -21.251  0.00  0.00    -0.001 C 
ATOM      5  C   UNL     1      32.151 -11.685 -21.848  0.00  0.00    +0.143 C 
ATOM      6  C   UNL     1      31.488 -10.801 -20.997  0.00  0.00    +0.037 C 
ENDROOT
BRANCH   3   9
ATOM      7  O   UNL     1      34.533 -11.709 -24.501  0.00  0.00    -0.270 OA
ATOM      8  N   UNL     1      33.070 -13.415 -23.931  0.00  0.00    -0.297 N 
ATOM      9  C   UNL     1      33.548 -12.103 -23.855  0.00  0.00    +0.249 C 
ATOM     10  H   UNL     1      32.283 -13.657 -23.391  0.00  0.00    +0.150 HD
BRANCH   8  11
ATOM     11  C   UNL     1      33.669 -14.435 -24.762  0.00  0.00    +0.117 C 
BRANCH  11  12
ATOM     12  C   UNL     1      34.204 -15.578 -23.950  0.00  0.00    -0.003 C 
ATOM     13  C   UNL     1      34.799 -15.336 -22.712  0.00  0.00    -0.003 C 
ATOM     14  C   UNL     1      34.106 -16.883 -24.433  0.00  0.00    -0.003 C 
ATOM     15  C   UNL     1      35.198 -17.702 -22.440  0.00  0.00    +0.071 C 
ATOM     16  C   UNL     1      35.297 -16.398 -21.957  0.00  0.00    +0.004 C 
ATOM     17  C   UNL     1      34.604 -17.945 -23.679  0.00  0.00    +0.004 C 
BRANCH  15  21
ATOM     18  F   UNL     1      37.092 -18.862 -21.589  0.00  0.00    -0.166 F 
ATOM     19  F   UNL     1      35.321 -18.818 -20.327  0.00  0.00    -0.166 F 
ATOM     20  F   UNL     1      35.355 -20.065 -22.101  0.00  0.00    -0.166 F 
ATOM     21  C   UNL     1      35.728 -18.838 -21.632  0.00  0.00    +0.419 C 
ENDBRANCH  15  21
ENDBRANCH  11  12
ENDBRANCH   8  11
ENDBRANCH   3   9
BRANCH   5  22
ATOM     22  O   UNL     1      32.104 -13.021 -21.585  0.00  0.00    -0.471 OA
ATOM     23  C   UNL     1      32.559 -13.444 -20.301  0.00  0.00    +0.252 C 
ENDBRANCH   5  22
BRANCH   1  24
ATOM     24  C   UNL     1      32.256  -7.459 -22.631  0.00  0.00    +0.080 C 
BRANCH  24  29
ATOM     25  O   UNL     1      30.735  -5.595 -22.424  0.00  0.00    -0.428 OA
ATOM     26  O   UNL     1      32.773  -6.555 -19.757  0.00  0.00    -0.271 OA
ATOM     27  O   UNL     1      30.698  -3.318 -22.222  0.00  0.00    -0.226 OA
ATOM     28  N   UNL     1      31.865  -4.665 -20.753  0.00  0.00    -0.218 N 
ATOM     29  C   UNL     1      31.337  -6.686 -21.709  0.00  0.00    +0.250 C 
ATOM     30  C   UNL     1      32.091  -6.001 -20.604  0.00  0.00    +0.271 C 
ATOM     31  C   UNL     1      31.071  -4.412 -21.826  0.00  0.00    +0.408 C 
ATOM     32  H   UNL     1      32.230  -3.971 -20.158  0.00  0.00    +0.161 HD
ENDBRANCH  24  29
ENDBRANCH   1  24
TORSDOF 7
ENDMDL
MODEL 8
REMARK VINA RESULT:     -10.5      7.440     11.952
REMARK  Name = 56842109
REMARK  7 active torsions:
REMARK  status: ('A' for Active; 'I' for Inactive)
REMARK    1  A    between atoms: C_1  and  C_24
REMARK    2  A    between atoms: C_3  and  C_9
REMARK    3  A    between atoms: C_5  and  O_22
REMARK    4  A    between atoms: N_8  and  C_11
REMARK    5  A    between atoms: C_11  and  C_12
REMARK    6  A    between atoms: C_15  and  C_21
REMARK    7  A    between atoms: C_24  and  C_29
REMARK                            x       y       z     vdW  Elec       q    Type
REMARK                         _______ _______ _______ _____ _____    ______ ____
ROOT
ATOM      1  C   UNL     1      33.939 -13.878 -22.944  0.00  0.00    -0.018 C 
ATOM      2  C   UNL     1      34.596 -14.745 -22.070  0.00  0.00    +0.003 C 
ATOM      3  C   UNL     1      34.875 -16.054 -22.464  0.00  0.00    +0.087 C 
ATOM      4  C   UNL     1      33.562 -14.321 -24.211  0.00  0.00    -0.001 C 
ATOM      5  C   UNL     1      34.498 -16.496 -23.731  0.00  0.00    +0.143 C 
ATOM      6  C   UNL     1      33.841 -15.630 -24.605  0.00  0.00    +0.037 C 
ENDROOT
BRANCH   3   9
ATOM      7  O   UNL     1      35.392 -16.825 -20.311  0.00  0.00    -0.270 OA
ATOM      8  N   UNL     1      36.390 -17.923 -22.093  0.00  0.00    -0.297 N 
ATOM      9  C   UNL     1      35.563 -16.941 -21.536  0.00  0.00    +0.249 C 
ATOM     10  H   UNL     1      36.480 -17.956 -23.073  0.00  0.00    +0.150 HD
BRANCH   8  11
ATOM     11  C   UNL     1      37.120 -18.890 -21.306  0.00  0.00    +0.117 C 
BRANCH  11  12
ATOM     12  C   UNL     1      36.205 -19.769 -20.504  0.00  0.00    -0.003 C 
ATOM     13  C   UNL     1      36.724 -20.577 -19.493  0.00  0.00    -0.003 C 
ATOM     14  C   UNL     1      34.836 -19.777 -20.770  0.00  0.00    -0.003 C 
ATOM     15  C   UNL     1      34.506 -21.402 -19.012  0.00  0.00    +0.071 C 
ATOM     16  C   UNL     1      35.875 -21.394 -18.746  0.00  0.00    +0.004 C 
ATOM     17  C   UNL     1      33.986 -20.594 -20.024  0.00  0.00    +0.004 C 
BRANCH  15  21
ATOM     18  F   UNL     1      33.440 -23.513 -18.762  0.00  0.00    -0.166 F 
ATOM     19  F   UNL     1      34.030 -22.491 -16.935  0.00  0.00    -0.166 F 
ATOM     20  F   UNL     1      32.334 -21.769 -18.079  0.00  0.00    -0.166 F 
ATOM     21  C   UNL     1      33.596 -22.273 -18.213  0.00  0.00    +0.419 C 
ENDBRANCH  15  21
ENDBRANCH  11  12
ENDBRANCH   8  11
ENDBRANCH   3   9
BRANCH   5  22
ATOM     22  O   UNL     1      34.764 -17.771 -24.135  0.00  0.00    -0.471 OA
ATOM     23  C   UNL     1      33.646 -18.633 -24.333  0.00  0.00    +0.252 C 
ENDBRANCH   5  22
BRANCH   1  24
ATOM     24  C   UNL     1      33.639 -12.463 -22.518  0.00  0.00    +0.080 C 
BRANCH  24  29
ATOM     25  O   UNL     1      34.415 -11.534 -24.607  0.00  0.00    -0.428 OA
ATOM     26  O   UNL     1      32.311  -9.709 -22.501  0.00  0.00    -0.271 OA
ATOM     27  O   UNL     1      35.788  -9.915 -25.457  0.00  0.00    -0.226 OA
ATOM     28  N   UNL     1      34.091  -9.432 -23.966  0.00  0.00    -0.218 N 
ATOM     29  C   UNL     1      33.304 -11.573 -23.696  0.00  0.00    +0.250 C 
ATOM     30  C   UNL     1      33.139 -10.136 -23.290  0.00  0.00    +0.271 C 
ATOM     31  C   UNL     1      34.853 -10.245 -24.741  0.00  0.00    +0.408 C 
ATOM     32  H   UNL     1      34.211  -8.457 -23.900  0.00  0.00    +0.161 HD
ENDBRANCH  24  29
ENDBRANCH   1  24
TORSDOF 7
ENDMDL
MODEL 9
REMARK VINA RESULT:     -10.5      2.252      5.598
REMARK  Name = 56842109
REMARK  7 active torsions:
REMARK  status: ('A' for Active; 'I' for Inactive)
REMARK    1  A    between atoms: C_1  and  C_24
REMARK    2  A    between atoms: C_3  and  C_9
REMARK    3  A    between atoms: C_5  and  O_22
REMARK    4  A    between atoms: N_8  and  C_11
REMARK    5  A    between atoms: C_11  and  C_12
REMARK    6  A    between atoms: C_15  and  C_21
REMARK    7  A    between atoms: C_24  and  C_29
REMARK                            x       y       z     vdW  Elec       q    Type
REMARK                         _______ _______ _______ _____ _____    ______ ____
ROOT
ATOM      1  C   UNL     1      32.023 -23.069 -14.132  0.00  0.00    -0.018 C 
ATOM      2  C   UNL     1      33.133 -22.978 -14.972  0.00  0.00    +0.003 C 
ATOM      3  C   UNL     1      34.380 -23.424 -14.530  0.00  0.00    +0.087 C 
ATOM      4  C   UNL     1      32.159 -23.604 -12.852  0.00  0.00    -0.001 C 
ATOM      5  C   UNL     1      34.516 -23.960 -13.250  0.00  0.00    +0.143 C 
ATOM      6  C   UNL     1      33.406 -24.050 -12.410  0.00  0.00    +0.037 C 
ENDROOT
BRANCH   3   9
ATOM      7  O   UNL     1      36.421 -24.183 -15.397  0.00  0.00    -0.270 OA
ATOM      8  N   UNL     1      35.545 -22.239 -16.309  0.00  0.00    -0.297 N 
ATOM      9  C   UNL     1      35.525 -23.322 -15.424  0.00  0.00    +0.249 C 
ATOM     10  H   UNL     1      34.801 -21.595 -16.274  0.00  0.00    +0.150 HD
BRANCH   8  11
ATOM     11  C   UNL     1      36.600 -22.014 -17.270  0.00  0.00    +0.117 C 
BRANCH  11  12
ATOM     12  C   UNL     1      36.102 -21.305 -18.496  0.00  0.00    -0.003 C 
ATOM     13  C   UNL     1      34.782 -21.478 -18.913  0.00  0.00    -0.003 C 
ATOM     14  C   UNL     1      36.958 -20.473 -19.218  0.00  0.00    -0.003 C 
ATOM     15  C   UNL     1      35.174 -19.988 -20.773  0.00  0.00    +0.071 C 
ATOM     16  C   UNL     1      34.318 -20.820 -20.052  0.00  0.00    +0.004 C 
ATOM     17  C   UNL     1      36.494 -19.815 -20.356  0.00  0.00    +0.004 C 
BRANCH  15  21
ATOM     18  F   UNL     1      34.876 -17.932 -21.930  0.00  0.00    -0.166 F 
ATOM     19  F   UNL     1      35.281 -19.690 -23.144  0.00  0.00    -0.166 F 
ATOM     20  F   UNL     1      33.339 -19.445 -22.209  0.00  0.00    -0.166 F 
ATOM     21  C   UNL     1      34.677 -19.281 -21.989  0.00  0.00    +0.419 C 
ENDBRANCH  15  21
ENDBRANCH  11  12
ENDBRANCH   8  11
ENDBRANCH   3   9
BRANCH   5  22
ATOM     22  O   UNL     1      35.724 -24.403 -12.802  0.00  0.00    -0.471 OA
ATOM     23  C   UNL     1      36.291 -23.720 -11.685  0.00  0.00    +0.252 C 
ENDBRANCH   5  22
BRANCH   1  24
ATOM     24  C   UNL     1      30.675 -22.588 -14.610  0.00  0.00    +0.080 C 
BRANCH  24  29
ATOM     25  O   UNL     1      29.280 -22.500 -16.578  0.00  0.00    -0.428 OA
ATOM     26  O   UNL     1      29.854 -25.516 -14.916  0.00  0.00    -0.271 OA
ATOM     27  O   UNL     1      27.106 -22.714 -17.254  0.00  0.00    -0.226 OA
ATOM     28  N   UNL     1      28.200 -24.376 -16.081  0.00  0.00    -0.218 N 
ATOM     29  C   UNL     1      30.224 -23.312 -15.861  0.00  0.00    +0.250 C 
ATOM     30  C   UNL     1      29.440 -24.554 -15.543  0.00  0.00    +0.271 C 
ATOM     31  C   UNL     1      28.091 -23.167 -16.689  0.00  0.00    +0.408 C 
ATOM     32  H   UNL     1      27.475 -25.040 -16.034  0.00  0.00    +0.161 HD
ENDBRANCH  24  29
ENDBRANCH   1  24
TORSDOF 7
ENDMDL
