MODEL 1
REMARK VINA RESULT:     -12.2      0.000      0.000
REMARK  Name = 25243853
REMARK  6 active torsions:
REMARK  status: ('A' for Active; 'I' for Inactive)
REMARK    1  A    between atoms: N_1  and  C_6
REMARK    2  A    between atoms: N_1  and  C_21
REMARK    3  A    between atoms: C_3  and  C_16
REMARK    4  A    between atoms: C_11  and  C_18
REMARK    5  A    between atoms: C_18  and  O_19
REMARK    6  A    between atoms: C_21  and  C_28
REMARK                            x       y       z     vdW  Elec       q    Type
REMARK                         _______ _______ _______ _____ _____    ______ ____
ROOT
ATOM      1  N   UNL     1      35.281 -19.242 -21.639  0.00  0.00    -0.327 N 
ATOM      2  H   UNL     1      35.332 -19.609 -22.550  0.00  0.00    +0.147 HD
ENDROOT
BRANCH   1   6
ATOM      3  C   UNL     1      33.906 -21.732 -18.548  0.00  0.00    +0.054 C 
ATOM      4  C   UNL     1      35.271 -21.652 -18.824  0.00  0.00    +0.006 C 
ATOM      5  C   UNL     1      32.998 -20.985 -19.299  0.00  0.00    +0.006 C 
ATOM      6  C   UNL     1      34.819 -20.078 -20.600  0.00  0.00    +0.045 C 
ATOM      7  C   UNL     1      35.727 -20.824 -19.850  0.00  0.00    +0.014 C 
ATOM      8  C   UNL     1      33.454 -20.158 -20.324  0.00  0.00    +0.014 C 
BRANCH   3  16
ATOM      9  O   UNL     1      32.225 -22.874 -17.485  0.00  0.00    -0.270 OA
ATOM     10  N   UNL     1      34.350 -23.053 -16.524  0.00  0.00    -0.276 N 
ATOM     11  C   UNL     1      35.691 -22.841 -13.956  0.00  0.00    +0.102 C 
ATOM     12  C   UNL     1      34.221 -23.256 -14.075  0.00  0.00    +0.033 C 
ATOM     13  C   UNL     1      36.171 -22.064 -15.185  0.00  0.00    +0.033 C 
ATOM     14  C   UNL     1      33.904 -23.902 -15.422  0.00  0.00    +0.094 C 
ATOM     15  C   UNL     1      35.781 -22.728 -16.507  0.00  0.00    +0.094 C 
ATOM     16  C   UNL     1      33.425 -22.603 -17.469  0.00  0.00    +0.249 C 
BRANCH  11  18
ATOM     17  O   UNL     1      36.121 -25.134 -13.350  0.00  0.00    -0.250 OA
ATOM     18  C   UNL     1      36.553 -24.046 -13.706  0.00  0.00    +0.317 C 
BRANCH  18  19
ATOM     19  O   UNL     1      37.858 -23.727 -13.937  0.00  0.00    -0.444 OA
ATOM     20  C   UNL     1      38.707 -24.828 -14.278  0.00  0.00    +0.256 C 
ENDBRANCH  18  19
ENDBRANCH  11  18
ENDBRANCH   3  16
ENDBRANCH   1   6
BRANCH   1  21
ATOM     21  C   UNL     1      35.678 -17.885 -21.424  0.00  0.00    +0.145 C 
BRANCH  21  28
ATOM     22  N   UNL     1      34.940 -15.704 -22.226  0.00  0.00    -0.392 NA
ATOM     23  N   UNL     1      34.379 -16.718 -24.740  0.00  0.00    -0.200 NA
ATOM     24  N   UNL     1      33.690 -14.624 -25.447  0.00  0.00    -0.271 NA
ATOM     25  N   UNL     1      33.735 -12.743 -23.960  0.00  0.00    -0.310 NA
ATOM     26  N   UNL     1      34.491 -13.028 -21.740  0.00  0.00    -0.329 N 
ATOM     27  N   UNL     1      32.989 -12.503 -26.167  0.00  0.00    -0.283 N 
ATOM     28  C   UNL     1      35.140 -16.999 -22.513  0.00  0.00    +0.133 C 
ATOM     29  C   UNL     1      34.863 -17.500 -23.756  0.00  0.00    +0.193 C 
ATOM     30  C   UNL     1      34.456 -14.923 -23.212  0.00  0.00    +0.248 C 
ATOM     31  C   UNL     1      34.169 -15.421 -24.485  0.00  0.00    +0.131 C 
ATOM     32  C   UNL     1      34.216 -13.576 -23.020  0.00  0.00    +0.231 C 
ATOM     33  C   UNL     1      33.496 -13.328 -25.140  0.00  0.00    +0.207 C 
ATOM     34  H   UNL     1      34.330 -12.072 -21.569  0.00  0.00    +0.145 HD
ATOM     35  H   UNL     1      34.842 -13.603 -21.023  0.00  0.00    +0.145 HD
ATOM     36  H   UNL     1      32.796 -12.883 -27.054  0.00  0.00    +0.156 HD
ATOM     37  H   UNL     1      32.829 -11.546 -25.996  0.00  0.00    +0.156 HD
ENDBRANCH  21  28
ENDBRANCH   1  21
TORSDOF 6
ENDMDL
MODEL 2
REMARK VINA RESULT:     -11.6      5.652     11.944
REMARK  Name = 25243853
REMARK  6 active torsions:
REMARK  status: ('A' for Active; 'I' for Inactive)
REMARK    1  A    between atoms: N_1  and  C_6
REMARK    2  A    between atoms: N_1  and  C_21
REMARK    3  A    between atoms: C_3  and  C_16
REMARK    4  A    between atoms: C_11  and  C_18
REMARK    5  A    between atoms: C_18  and  O_19
REMARK    6  A    between atoms: C_21  and  C_28
REMARK                            x       y       z     vdW  Elec       q    Type
REMARK                         _______ _______ _______ _____ _____    ______ ____
ROOT
ATOM      1  N   UNL     1      35.296 -16.321 -23.532  0.00  0.00    -0.327 N 
ATOM      2  H   UNL     1      36.230 -16.182 -23.808  0.00  0.00    +0.147 HD
ENDROOT
BRANCH   1   6
ATOM      3  C   UNL     1      33.068 -13.002 -22.242  0.00  0.00    +0.054 C 
ATOM      4  C   UNL     1      33.812 -13.743 -21.323  0.00  0.00    +0.006 C 
ATOM      5  C   UNL     1      33.065 -13.364 -23.589  0.00  0.00    +0.006 C 
ATOM      6  C   UNL     1      34.548 -15.206 -23.099  0.00  0.00    +0.045 C 
ATOM      7  C   UNL     1      34.552 -14.845 -21.752  0.00  0.00    +0.014 C 
ATOM      8  C   UNL     1      33.804 -14.465 -24.018  0.00  0.00    +0.014 C 
BRANCH   3  16
ATOM      9  O   UNL     1      31.232 -12.091 -21.213  0.00  0.00    -0.270 OA
ATOM     10  N   UNL     1      32.800 -10.567 -22.046  0.00  0.00    -0.276 N 
ATOM     11  C   UNL     1      32.968  -8.154 -23.654  0.00  0.00    +0.102 C 
ATOM     12  C   UNL     1      31.721  -8.500 -22.833  0.00  0.00    +0.033 C 
ATOM     13  C   UNL     1      33.815  -9.392 -23.962  0.00  0.00    +0.033 C 
ATOM     14  C   UNL     1      32.041  -9.389 -21.633  0.00  0.00    +0.094 C 
ATOM     15  C   UNL     1      34.061 -10.273 -22.737  0.00  0.00    +0.094 C 
ATOM     16  C   UNL     1      32.289 -11.842 -21.792  0.00  0.00    +0.249 C 
BRANCH  11  18
ATOM     17  O   UNL     1      35.000  -7.118 -22.876  0.00  0.00    -0.250 OA
ATOM     18  C   UNL     1      33.779  -7.103 -22.951  0.00  0.00    +0.317 C 
BRANCH  18  19
ATOM     19  O   UNL     1      32.946  -6.159 -22.429  0.00  0.00    -0.444 OA
ATOM     20  C   UNL     1      32.793  -4.973 -23.214  0.00  0.00    +0.256 C 
ENDBRANCH  18  19
ENDBRANCH  11  18
ENDBRANCH   3  16
ENDBRANCH   1   6
BRANCH   1  21
ATOM     21  C   UNL     1      34.755 -17.644 -23.590  0.00  0.00    +0.145 C 
BRANCH  21  28
ATOM     22  N   UNL     1      34.288 -19.165 -21.742  0.00  0.00    -0.392 NA
ATOM     23  N   UNL     1      36.944 -19.175 -20.962  0.00  0.00    -0.200 NA
ATOM     24  N   UNL     1      36.443 -20.621 -19.224  0.00  0.00    -0.271 NA
ATOM     25  N   UNL     1      34.200 -21.391 -18.868  0.00  0.00    -0.310 NA
ATOM     26  N   UNL     1      32.474 -20.665 -20.308  0.00  0.00    -0.329 N 
ATOM     27  N   UNL     1      35.938 -22.085 -17.461  0.00  0.00    -0.283 N 
ATOM     28  C   UNL     1      35.210 -18.452 -22.407  0.00  0.00    +0.133 C 
ATOM     29  C   UNL     1      36.523 -18.457 -22.021  0.00  0.00    +0.193 C 
ATOM     30  C   UNL     1      34.712 -19.884 -20.684  0.00  0.00    +0.248 C 
ATOM     31  C   UNL     1      36.048 -19.898 -20.279  0.00  0.00    +0.131 C 
ATOM     32  C   UNL     1      33.843 -20.652 -19.934  0.00  0.00    +0.231 C 
ATOM     33  C   UNL     1      35.503 -21.330 -18.571  0.00  0.00    +0.207 C 
ATOM     34  H   UNL     1      31.828 -21.202 -19.795  0.00  0.00    +0.145 HD
ATOM     35  H   UNL     1      32.170 -20.137 -21.081  0.00  0.00    +0.145 HD
ATOM     36  H   UNL     1      36.887 -22.075 -17.200  0.00  0.00    +0.156 HD
ATOM     37  H   UNL     1      35.293 -22.623 -16.947  0.00  0.00    +0.156 HD
ENDBRANCH  21  28
ENDBRANCH   1  21
TORSDOF 6
ENDMDL
MODEL 3
REMARK VINA RESULT:     -11.5      4.383     11.114
REMARK  Name = 25243853
REMARK  6 active torsions:
REMARK  status: ('A' for Active; 'I' for Inactive)
REMARK    1  A    between atoms: N_1  and  C_6
REMARK    2  A    between atoms: N_1  and  C_21
REMARK    3  A    between atoms: C_3  and  C_16
REMARK    4  A    between atoms: C_11  and  C_18
REMARK    5  A    between atoms: C_18  and  O_19
REMARK    6  A    between atoms: C_21  and  C_28
REMARK                            x       y       z     vdW  Elec       q    Type
REMARK                         _______ _______ _______ _____ _____    ______ ____
ROOT
ATOM      1  N   UNL     1      36.014 -19.818 -19.970  0.00  0.00    -0.327 N 
ATOM      2  H   UNL     1      36.479 -19.462 -19.179  0.00  0.00    +0.147 HD
ENDROOT
BRANCH   1   6
ATOM      3  C   UNL     1      34.743 -17.120 -22.928  0.00  0.00    +0.054 C 
ATOM      4  C   UNL     1      34.541 -18.490 -23.101  0.00  0.00    +0.006 C 
ATOM      5  C   UNL     1      35.365 -16.647 -21.773  0.00  0.00    +0.006 C 
ATOM      6  C   UNL     1      35.586 -18.912 -20.964  0.00  0.00    +0.045 C 
ATOM      7  C   UNL     1      34.963 -19.385 -22.118  0.00  0.00    +0.014 C 
ATOM      8  C   UNL     1      35.787 -17.542 -20.791  0.00  0.00    +0.014 C 
BRANCH   3  16
ATOM      9  O   UNL     1      34.402 -16.560 -25.126  0.00  0.00    -0.270 OA
ATOM     10  N   UNL     1      33.799 -14.938 -23.552  0.00  0.00    -0.276 N 
ATOM     11  C   UNL     1      34.127 -12.108 -22.990  0.00  0.00    +0.102 C 
ATOM     12  C   UNL     1      34.155 -12.663 -24.418  0.00  0.00    +0.033 C 
ATOM     13  C   UNL     1      34.453 -13.182 -21.948  0.00  0.00    +0.033 C 
ATOM     14  C   UNL     1      33.370 -13.965 -24.553  0.00  0.00    +0.094 C 
ATOM     15  C   UNL     1      33.677 -14.483 -22.162  0.00  0.00    +0.094 C 
ATOM     16  C   UNL     1      34.299 -16.177 -23.962  0.00  0.00    +0.249 C 
BRANCH  11  18
ATOM     17  O   UNL     1      31.980 -11.907 -21.913  0.00  0.00    -0.250 OA
ATOM     18  C   UNL     1      32.799 -11.465 -22.708  0.00  0.00    +0.317 C 
BRANCH  18  19
ATOM     19  O   UNL     1      32.668 -10.340 -23.466  0.00  0.00    -0.444 OA
ATOM     20  C   UNL     1      32.851  -9.104 -22.767  0.00  0.00    +0.256 C 
ENDBRANCH  18  19
ENDBRANCH  11  18
ENDBRANCH   3  16
ENDBRANCH   1   6
BRANCH   1  21
ATOM     21  C   UNL     1      35.803 -21.229 -20.064  0.00  0.00    +0.145 C 
BRANCH  21  28
ATOM     22  N   UNL     1      35.138 -22.220 -17.936  0.00  0.00    -0.392 NA
ATOM     23  N   UNL     1      32.452 -21.903 -18.525  0.00  0.00    -0.200 NA
ATOM     24  N   UNL     1      31.880 -22.851 -16.492  0.00  0.00    -0.271 NA
ATOM     25  N   UNL     1      33.568 -23.597 -14.960  0.00  0.00    -0.310 NA
ATOM     26  N   UNL     1      35.848 -23.365 -15.532  0.00  0.00    -0.329 N 
ATOM     27  N   UNL     1      31.297 -23.812 -14.432  0.00  0.00    -0.283 N 
ATOM     28  C   UNL     1      34.741 -21.669 -19.094  0.00  0.00    +0.133 C 
ATOM     29  C   UNL     1      33.413 -21.512 -19.384  0.00  0.00    +0.193 C 
ATOM     30  C   UNL     1      34.176 -22.610 -17.078  0.00  0.00    +0.248 C 
ATOM     31  C   UNL     1      32.817 -22.455 -17.362  0.00  0.00    +0.131 C 
ATOM     32  C   UNL     1      34.479 -23.187 -15.861  0.00  0.00    +0.231 C 
ATOM     33  C   UNL     1      32.299 -23.401 -15.336  0.00  0.00    +0.207 C 
ATOM     34  H   UNL     1      36.099 -23.774 -14.672  0.00  0.00    +0.145 HD
ATOM     35  H   UNL     1      36.547 -23.081 -16.163  0.00  0.00    +0.145 HD
ATOM     36  H   UNL     1      30.347 -23.691 -14.661  0.00  0.00    +0.156 HD
ATOM     37  H   UNL     1      31.547 -24.221 -13.572  0.00  0.00    +0.156 HD
ENDBRANCH  21  28
ENDBRANCH   1  21
TORSDOF 6
ENDMDL
MODEL 4
REMARK VINA RESULT:     -11.3      5.457      9.002
REMARK  Name = 25243853
REMARK  6 active torsions:
REMARK  status: ('A' for Active; 'I' for Inactive)
REMARK    1  A    between atoms: N_1  and  C_6
REMARK    2  A    between atoms: N_1  and  C_21
REMARK    3  A    between atoms: C_3  and  C_16
REMARK    4  A    between atoms: C_11  and  C_18
REMARK    5  A    between atoms: C_18  and  O_19
REMARK    6  A    between atoms: C_21  and  C_28
REMARK                            x       y       z     vdW  Elec       q    Type
REMARK                         _______ _______ _______ _____ _____    ______ ____
ROOT
ATOM      1  N   UNL     1      32.970 -10.744 -22.796  0.00  0.00    -0.327 N 
ATOM      2  H   UNL     1      33.416 -10.025 -23.300  0.00  0.00    +0.147 HD
ENDROOT
BRANCH   1   6
ATOM      3  C   UNL     1      33.919 -14.728 -23.730  0.00  0.00    +0.054 C 
ATOM      4  C   UNL     1      33.775 -14.339 -22.398  0.00  0.00    +0.006 C 
ATOM      5  C   UNL     1      33.747 -13.794 -24.751  0.00  0.00    +0.006 C 
ATOM      6  C   UNL     1      33.288 -12.083 -23.110  0.00  0.00    +0.045 C 
ATOM      7  C   UNL     1      33.459 -13.016 -22.088  0.00  0.00    +0.014 C 
ATOM      8  C   UNL     1      33.432 -12.471 -24.442  0.00  0.00    +0.014 C 
BRANCH   3  16
ATOM      9  O   UNL     1      33.814 -16.545 -25.125  0.00  0.00    -0.270 OA
ATOM     10  N   UNL     1      35.026 -16.843 -23.146  0.00  0.00    -0.276 N 
ATOM     11  C   UNL     1      35.299 -18.695 -20.925  0.00  0.00    +0.102 C 
ATOM     12  C   UNL     1      34.845 -19.153 -22.315  0.00  0.00    +0.033 C 
ATOM     13  C   UNL     1      35.061 -17.198 -20.705  0.00  0.00    +0.033 C 
ATOM     14  C   UNL     1      35.356 -18.238 -23.427  0.00  0.00    +0.094 C 
ATOM     15  C   UNL     1      35.545 -16.334 -21.871  0.00  0.00    +0.094 C 
ATOM     16  C   UNL     1      34.250 -16.120 -24.056  0.00  0.00    +0.249 C 
BRANCH  11  18
ATOM     17  O   UNL     1      37.648 -18.738 -21.466  0.00  0.00    -0.250 OA
ATOM     18  C   UNL     1      36.742 -19.052 -20.706  0.00  0.00    +0.317 C 
BRANCH  18  19
ATOM     19  O   UNL     1      36.864 -19.764 -19.550  0.00  0.00    -0.444 OA
ATOM     20  C   UNL     1      36.136 -20.996 -19.508  0.00  0.00    +0.256 C 
ENDBRANCH  18  19
ENDBRANCH  11  18
ENDBRANCH   3  16
ENDBRANCH   1   6
BRANCH   1  21
ATOM     21  C   UNL     1      32.031 -10.387 -21.779  0.00  0.00    +0.145 C 
BRANCH  21  28
ATOM     22  N   UNL     1      31.636  -8.143 -22.650  0.00  0.00    -0.392 NA
ATOM     23  N   UNL     1      32.285  -6.989 -20.219  0.00  0.00    -0.200 NA
ATOM     24  N   UNL     1      31.895  -4.883 -21.099  0.00  0.00    -0.271 NA
ATOM     25  N   UNL     1      31.204  -4.607 -23.379  0.00  0.00    -0.310 NA
ATOM     26  N   UNL     1      30.918  -6.509 -24.750  0.00  0.00    -0.329 N 
ATOM     27  N   UNL     1      31.501  -2.747 -21.988  0.00  0.00    -0.283 N 
ATOM     28  C   UNL     1      31.993  -8.895 -21.597  0.00  0.00    +0.133 C 
ATOM     29  C   UNL     1      32.313  -8.323 -20.395  0.00  0.00    +0.193 C 
ATOM     30  C   UNL     1      31.608  -6.808 -22.471  0.00  0.00    +0.248 C 
ATOM     31  C   UNL     1      31.932  -6.212 -21.250  0.00  0.00    +0.131 C 
ATOM     32  C   UNL     1      31.253  -5.947 -23.491  0.00  0.00    +0.231 C 
ATOM     33  C   UNL     1      31.534  -4.146 -22.167  0.00  0.00    +0.207 C 
ATOM     34  H   UNL     1      30.661  -5.923 -25.499  0.00  0.00    +0.145 HD
ATOM     35  H   UNL     1      30.943  -7.485 -24.876  0.00  0.00    +0.145 HD
ATOM     36  H   UNL     1      31.736  -2.356 -21.115  0.00  0.00    +0.156 HD
ATOM     37  H   UNL     1      31.245  -2.160 -22.736  0.00  0.00    +0.156 HD
ENDBRANCH  21  28
ENDBRANCH   1  21
TORSDOF 6
ENDMDL
MODEL 5
REMARK VINA RESULT:     -11.0      5.468      8.915
REMARK  Name = 25243853
REMARK  6 active torsions:
REMARK  status: ('A' for Active; 'I' for Inactive)
REMARK    1  A    between atoms: N_1  and  C_6
REMARK    2  A    between atoms: N_1  and  C_21
REMARK    3  A    between atoms: C_3  and  C_16
REMARK    4  A    between atoms: C_11  and  C_18
REMARK    5  A    between atoms: C_18  and  O_19
REMARK    6  A    between atoms: C_21  and  C_28
REMARK                            x       y       z     vdW  Elec       q    Type
REMARK                         _______ _______ _______ _____ _____    ______ ____
ROOT
ATOM      1  N   UNL     1      33.120 -10.867 -22.863  0.00  0.00    -0.327 N 
ATOM      2  H   UNL     1      32.382 -10.673 -22.242  0.00  0.00    +0.147 HD
ENDROOT
BRANCH   1   6
ATOM      3  C   UNL     1      34.003 -14.881 -23.732  0.00  0.00    +0.054 C 
ATOM      4  C   UNL     1      33.706 -13.993 -24.766  0.00  0.00    +0.006 C 
ATOM      5  C   UNL     1      34.008 -14.435 -22.410  0.00  0.00    +0.006 C 
ATOM      6  C   UNL     1      33.417 -12.215 -23.155  0.00  0.00    +0.045 C 
ATOM      7  C   UNL     1      33.413 -12.660 -24.477  0.00  0.00    +0.014 C 
ATOM      8  C   UNL     1      33.715 -13.103 -22.121  0.00  0.00    +0.014 C 
BRANCH   3  16
ATOM      9  O   UNL     1      33.876 -16.717 -25.101  0.00  0.00    -0.270 OA
ATOM     10  N   UNL     1      35.067 -17.007 -23.108  0.00  0.00    -0.276 N 
ATOM     11  C   UNL     1      35.291 -18.829 -20.858  0.00  0.00    +0.102 C 
ATOM     12  C   UNL     1      34.838 -19.299 -22.244  0.00  0.00    +0.033 C 
ATOM     13  C   UNL     1      35.078 -17.325 -20.662  0.00  0.00    +0.033 C 
ATOM     14  C   UNL     1      35.374 -18.411 -23.365  0.00  0.00    +0.094 C 
ATOM     15  C   UNL     1      35.586 -16.488 -21.838  0.00  0.00    +0.094 C 
ATOM     16  C   UNL     1      34.312 -16.284 -24.035  0.00  0.00    +0.249 C 
BRANCH  11  18
ATOM     17  O   UNL     1      37.643 -18.914 -21.375  0.00  0.00    -0.250 OA
ATOM     18  C   UNL     1      36.725 -19.209 -20.623  0.00  0.00    +0.317 C 
BRANCH  18  19
ATOM     19  O   UNL     1      36.823 -19.917 -19.462  0.00  0.00    -0.444 OA
ATOM     20  C   UNL     1      36.121 -21.164 -19.443  0.00  0.00    +0.256 C 
ENDBRANCH  18  19
ENDBRANCH  11  18
ENDBRANCH   3  16
ENDBRANCH   1   6
BRANCH   1  21
ATOM     21  C   UNL     1      33.842  -9.772 -23.432  0.00  0.00    +0.145 C 
BRANCH  21  28
ATOM     22  N   UNL     1      33.612  -7.367 -23.766  0.00  0.00    -0.392 NA
ATOM     23  N   UNL     1      31.178  -7.327 -22.447  0.00  0.00    -0.200 NA
ATOM     24  N   UNL     1      31.012  -5.044 -22.793  0.00  0.00    -0.271 NA
ATOM     25  N   UNL     1      32.731  -3.844 -23.959  0.00  0.00    -0.310 NA
ATOM     26  N   UNL     1      34.624  -5.006 -24.765  0.00  0.00    -0.329 N 
ATOM     27  N   UNL     1      30.842  -2.729 -23.142  0.00  0.00    -0.283 N 
ATOM     28  C   UNL     1      33.077  -8.490 -23.260  0.00  0.00    +0.133 C 
ATOM     29  C   UNL     1      31.873  -8.469 -22.609  0.00  0.00    +0.193 C 
ATOM     30  C   UNL     1      32.914  -6.226 -23.603  0.00  0.00    +0.248 C 
ATOM     31  C   UNL     1      31.685  -6.191 -22.941  0.00  0.00    +0.131 C 
ATOM     32  C   UNL     1      33.377  -5.018 -24.087  0.00  0.00    +0.231 C 
ATOM     33  C   UNL     1      31.566  -3.929 -23.307  0.00  0.00    +0.207 C 
ATOM     34  H   UNL     1      34.983  -4.162 -25.121  0.00  0.00    +0.145 HD
ATOM     35  H   UNL     1      35.130  -5.843 -24.879  0.00  0.00    +0.145 HD
ATOM     36  H   UNL     1      29.978  -2.736 -22.669  0.00  0.00    +0.156 HD
ATOM     37  H   UNL     1      31.200  -1.884 -23.498  0.00  0.00    +0.156 HD
ENDBRANCH  21  28
ENDBRANCH   1  21
TORSDOF 6
ENDMDL
MODEL 6
REMARK VINA RESULT:     -10.9      2.861      5.727
REMARK  Name = 25243853
REMARK  6 active torsions:
REMARK  status: ('A' for Active; 'I' for Inactive)
REMARK    1  A    between atoms: N_1  and  C_6
REMARK    2  A    between atoms: N_1  and  C_21
REMARK    3  A    between atoms: C_3  and  C_16
REMARK    4  A    between atoms: C_11  and  C_18
REMARK    5  A    between atoms: C_18  and  O_19
REMARK    6  A    between atoms: C_21  and  C_28
REMARK                            x       y       z     vdW  Elec       q    Type
REMARK                         _______ _______ _______ _____ _____    ______ ____
ROOT
ATOM      1  N   UNL     1      33.430 -14.838 -24.126  0.00  0.00    -0.327 N 
ATOM      2  H   UNL     1      32.448 -14.899 -24.118  0.00  0.00    +0.147 HD
ENDROOT
BRANCH   1   6
ATOM      3  C   UNL     1      35.634 -17.697 -21.977  0.00  0.00    +0.054 C 
ATOM      4  C   UNL     1      35.132 -18.009 -23.241  0.00  0.00    +0.006 C 
ATOM      5  C   UNL     1      35.404 -16.436 -21.428  0.00  0.00    +0.006 C 
ATOM      6  C   UNL     1      34.171 -15.798 -23.404  0.00  0.00    +0.045 C 
ATOM      7  C   UNL     1      34.401 -17.059 -23.955  0.00  0.00    +0.014 C 
ATOM      8  C   UNL     1      34.673 -15.486 -22.141  0.00  0.00    +0.014 C 
BRANCH   3  16
ATOM      9  O   UNL     1      37.615 -18.717 -21.436  0.00  0.00    -0.270 OA
ATOM     10  N   UNL     1      35.714 -19.530 -20.342  0.00  0.00    -0.276 N 
ATOM     11  C   UNL     1      34.374 -22.025 -19.700  0.00  0.00    +0.102 C 
ATOM     12  C   UNL     1      35.891 -21.943 -19.894  0.00  0.00    +0.033 C 
ATOM     13  C   UNL     1      33.642 -20.867 -20.386  0.00  0.00    +0.033 C 
ATOM     14  C   UNL     1      36.444 -20.551 -19.595  0.00  0.00    +0.094 C 
ATOM     15  C   UNL     1      34.268 -19.503 -20.093  0.00  0.00    +0.094 C 
ATOM     16  C   UNL     1      36.404 -18.696 -21.226  0.00  0.00    +0.249 C 
BRANCH  11  18
ATOM     17  O   UNL     1      34.860 -22.304 -17.356  0.00  0.00    -0.250 OA
ATOM     18  C   UNL     1      34.039 -22.087 -18.237  0.00  0.00    +0.317 C 
BRANCH  18  19
ATOM     19  O   UNL     1      32.705 -21.868 -18.066  0.00  0.00    -0.444 OA
ATOM     20  C   UNL     1      32.096 -22.595 -16.994  0.00  0.00    +0.256 C 
ENDBRANCH  18  19
ENDBRANCH  11  18
ENDBRANCH   3  16
ENDBRANCH   1   6
BRANCH   1  21
ATOM     21  C   UNL     1      34.044 -13.781 -24.868  0.00  0.00    +0.145 C 
BRANCH  21  28
ATOM     22  N   UNL     1      32.999 -12.438 -23.121  0.00  0.00    -0.392 NA
ATOM     23  N   UNL     1      33.921 -10.086 -24.253  0.00  0.00    -0.200 NA
ATOM     24  N   UNL     1      32.909  -8.862 -22.569  0.00  0.00    -0.271 NA
ATOM     25  N   UNL     1      31.677  -9.950 -20.822  0.00  0.00    -0.310 NA
ATOM     26  N   UNL     1      31.492 -12.305 -20.817  0.00  0.00    -0.329 N 
ATOM     27  N   UNL     1      31.882  -7.618 -20.864  0.00  0.00    -0.283 N 
ATOM     28  C   UNL     1      33.736 -12.449 -24.243  0.00  0.00    +0.133 C 
ATOM     29  C   UNL     1      34.192 -11.286 -24.802  0.00  0.00    +0.193 C 
ATOM     30  C   UNL     1      32.730 -11.237 -22.574  0.00  0.00    +0.248 C 
ATOM     31  C   UNL     1      33.189 -10.042 -23.133  0.00  0.00    +0.131 C 
ATOM     32  C   UNL     1      31.981 -11.117 -21.419  0.00  0.00    +0.231 C 
ATOM     33  C   UNL     1      32.169  -8.872 -21.444  0.00  0.00    +0.207 C 
ATOM     34  H   UNL     1      30.954 -12.255 -19.994  0.00  0.00    +0.145 HD
ATOM     35  H   UNL     1      31.689 -13.180 -21.223  0.00  0.00    +0.145 HD
ATOM     36  H   UNL     1      32.220  -6.793 -21.283  0.00  0.00    +0.156 HD
ATOM     37  H   UNL     1      31.345  -7.567 -20.041  0.00  0.00    +0.156 HD
ENDBRANCH  21  28
ENDBRANCH   1  21
TORSDOF 6
ENDMDL
MODEL 7
REMARK VINA RESULT:     -10.8      2.098      3.340
REMARK  Name = 25243853
REMARK  6 active torsions:
REMARK  status: ('A' for Active; 'I' for Inactive)
REMARK    1  A    between atoms: N_1  and  C_6
REMARK    2  A    between atoms: N_1  and  C_21
REMARK    3  A    between atoms: C_3  and  C_16
REMARK    4  A    between atoms: C_11  and  C_18
REMARK    5  A    between atoms: C_18  and  O_19
REMARK    6  A    between atoms: C_21  and  C_28
REMARK                            x       y       z     vdW  Elec       q    Type
REMARK                         _______ _______ _______ _____ _____    ______ ____
ROOT
ATOM      1  N   UNL     1      35.006 -20.010 -21.050  0.00  0.00    -0.327 N 
ATOM      2  H   UNL     1      34.366 -20.248 -21.758  0.00  0.00    +0.147 HD
ENDROOT
BRANCH   1   6
ATOM      3  C   UNL     1      34.942 -22.204 -17.468  0.00  0.00    +0.054 C 
ATOM      4  C   UNL     1      36.141 -21.664 -17.934  0.00  0.00    +0.006 C 
ATOM      5  C   UNL     1      33.765 -22.014 -18.192  0.00  0.00    +0.006 C 
ATOM      6  C   UNL     1      34.985 -20.746 -19.846  0.00  0.00    +0.045 C 
ATOM      7  C   UNL     1      36.162 -20.935 -19.123  0.00  0.00    +0.014 C 
ATOM      8  C   UNL     1      33.786 -21.286 -19.380  0.00  0.00    +0.014 C 
BRANCH   3  16
ATOM      9  O   UNL     1      35.979 -23.499 -15.885  0.00  0.00    -0.270 OA
ATOM     10  N   UNL     1      33.717 -23.038 -15.508  0.00  0.00    -0.276 N 
ATOM     11  C   UNL     1      31.229 -24.366 -14.815  0.00  0.00    +0.102 C 
ATOM     12  C   UNL     1      32.591 -24.908 -14.370  0.00  0.00    +0.033 C 
ATOM     13  C   UNL     1      31.344 -23.452 -16.038  0.00  0.00    +0.033 C 
ATOM     14  C   UNL     1      33.650 -23.812 -14.270  0.00  0.00    +0.094 C 
ATOM     15  C   UNL     1      32.453 -22.407 -15.905  0.00  0.00    +0.094 C 
ATOM     16  C   UNL     1      34.919 -22.971 -16.217  0.00  0.00    +0.249 C 
BRANCH  11  18
ATOM     17  O   UNL     1      30.845 -23.827 -12.497  0.00  0.00    -0.250 OA
ATOM     18  C   UNL     1      30.551 -23.663 -13.674  0.00  0.00    +0.317 C 
BRANCH  18  19
ATOM     19  O   UNL     1      29.583 -22.836 -14.159  0.00  0.00    -0.444 OA
ATOM     20  C   UNL     1      28.512 -23.485 -14.853  0.00  0.00    +0.256 C 
ENDBRANCH  18  19
ENDBRANCH  11  18
ENDBRANCH   3  16
ENDBRANCH   1   6
BRANCH   1  21
ATOM     21  C   UNL     1      35.919 -18.935 -21.285  0.00  0.00    +0.145 C 
BRANCH  21  28
ATOM     22  N   UNL     1      35.161 -16.710 -21.938  0.00  0.00    -0.392 NA
ATOM     23  N   UNL     1      34.566 -17.567 -24.502  0.00  0.00    -0.200 NA
ATOM     24  N   UNL     1      33.859 -15.436 -25.065  0.00  0.00    -0.271 NA
ATOM     25  N   UNL     1      33.920 -13.652 -23.464  0.00  0.00    -0.310 NA
ATOM     26  N   UNL     1      34.711 -14.072 -21.278  0.00  0.00    -0.329 N 
ATOM     27  N   UNL     1      33.141 -13.276 -25.640  0.00  0.00    -0.283 N 
ATOM     28  C   UNL     1      35.361 -17.984 -22.308  0.00  0.00    +0.133 C 
ATOM     29  C   UNL     1      35.067 -18.407 -23.576  0.00  0.00    +0.193 C 
ATOM     30  C   UNL     1      34.660 -15.871 -22.865  0.00  0.00    +0.248 C 
ATOM     31  C   UNL     1      34.355 -16.290 -24.162  0.00  0.00    +0.131 C 
ATOM     32  C   UNL     1      34.418 -14.541 -22.585  0.00  0.00    +0.231 C 
ATOM     33  C   UNL     1      33.666 -14.162 -24.674  0.00  0.00    +0.207 C 
ATOM     34  H   UNL     1      34.549 -13.130 -21.044  0.00  0.00    +0.145 HD
ATOM     35  H   UNL     1      35.074 -14.690 -20.603  0.00  0.00    +0.145 HD
ATOM     36  H   UNL     1      32.936 -13.601 -26.546  0.00  0.00    +0.156 HD
ATOM     37  H   UNL     1      32.980 -12.333 -25.407  0.00  0.00    +0.156 HD
ENDBRANCH  21  28
ENDBRANCH   1  21
TORSDOF 6
ENDMDL
MODEL 8
REMARK VINA RESULT:     -10.8      1.700      3.141
REMARK  Name = 25243853
REMARK  6 active torsions:
REMARK  status: ('A' for Active; 'I' for Inactive)
REMARK    1  A    between atoms: N_1  and  C_6
REMARK    2  A    between atoms: N_1  and  C_21
REMARK    3  A    between atoms: C_3  and  C_16
REMARK    4  A    between atoms: C_11  and  C_18
REMARK    5  A    between atoms: C_18  and  O_19
REMARK    6  A    between atoms: C_21  and  C_28
REMARK                            x       y       z     vdW  Elec       q    Type
REMARK                         _______ _______ _______ _____ _____    ______ ____
ROOT
ATOM      1  N   UNL     1      34.885 -21.166 -19.925  0.00  0.00    -0.327 N 
ATOM      2  H   UNL     1      34.207 -21.279 -20.629  0.00  0.00    +0.147 HD
ENDROOT
BRANCH   1   6
ATOM      3  C   UNL     1      34.215 -22.964 -16.188  0.00  0.00    +0.054 C 
ATOM      4  C   UNL     1      35.473 -22.445 -16.496  0.00  0.00    +0.006 C 
ATOM      5  C   UNL     1      33.181 -22.884 -17.120  0.00  0.00    +0.006 C 
ATOM      6  C   UNL     1      34.660 -21.769 -18.669  0.00  0.00    +0.045 C 
ATOM      7  C   UNL     1      35.695 -21.847 -17.737  0.00  0.00    +0.014 C 
ATOM      8  C   UNL     1      33.402 -22.288 -18.360  0.00  0.00    +0.014 C 
BRANCH   3  16
ATOM      9  O   UNL     1      32.805 -23.758 -14.563  0.00  0.00    -0.270 OA
ATOM     10  N   UNL     1      35.092 -23.953 -14.116  0.00  0.00    -0.276 N 
ATOM     11  C   UNL     1      37.035 -23.422 -12.023  0.00  0.00    +0.102 C 
ATOM     12  C   UNL     1      35.566 -23.723 -11.712  0.00  0.00    +0.033 C 
ATOM     13  C   UNL     1      37.228 -22.910 -13.454  0.00  0.00    +0.033 C 
ATOM     14  C   UNL     1      34.898 -24.559 -12.801  0.00  0.00    +0.094 C 
ATOM     15  C   UNL     1      36.495 -23.754 -14.498  0.00  0.00    +0.094 C 
ATOM     16  C   UNL     1      33.981 -23.592 -14.882  0.00  0.00    +0.249 C 
BRANCH  11  18
ATOM     17  O   UNL     1      37.531 -25.577 -11.064  0.00  0.00    -0.250 OA
ATOM     18  C   UNL     1      37.881 -24.636 -11.764  0.00  0.00    +0.317 C 
BRANCH  18  19
ATOM     19  O   UNL     1      39.069 -24.512 -12.421  0.00  0.00    -0.444 OA
ATOM     20  C   UNL     1      39.457 -25.644 -13.206  0.00  0.00    +0.256 C 
ENDBRANCH  18  19
ENDBRANCH  11  18
ENDBRANCH   3  16
ENDBRANCH   1   6
BRANCH   1  21
ATOM     21  C   UNL     1      36.055 -20.399 -20.219  0.00  0.00    +0.145 C 
BRANCH  21  28
ATOM     22  N   UNL     1      35.128 -19.283 -22.179  0.00  0.00    -0.392 NA
ATOM     23  N   UNL     1      35.607 -16.782 -21.093  0.00  0.00    -0.200 NA
ATOM     24  N   UNL     1      34.716 -15.777 -22.978  0.00  0.00    -0.271 NA
ATOM     25  N   UNL     1      33.882 -17.093 -24.801  0.00  0.00    -0.310 NA
ATOM     26  N   UNL     1      33.970 -19.451 -24.675  0.00  0.00    -0.329 N 
ATOM     27  N   UNL     1      33.814 -14.755 -24.890  0.00  0.00    -0.283 N 
ATOM     28  C   UNL     1      35.691 -19.147 -20.968  0.00  0.00    +0.133 C 
ATOM     29  C   UNL     1      35.926 -17.911 -20.432  0.00  0.00    +0.193 C 
ATOM     30  C   UNL     1      34.809 -18.152 -22.839  0.00  0.00    +0.248 C 
ATOM     31  C   UNL     1      35.043 -16.884 -22.303  0.00  0.00    +0.131 C 
ATOM     32  C   UNL     1      34.225 -18.183 -24.091  0.00  0.00    +0.231 C 
ATOM     33  C   UNL     1      34.152 -15.934 -24.192  0.00  0.00    +0.207 C 
ATOM     34  H   UNL     1      33.556 -19.508 -25.566  0.00  0.00    +0.145 HD
ATOM     35  H   UNL     1      34.208 -20.273 -24.190  0.00  0.00    +0.145 HD
ATOM     36  H   UNL     1      33.993 -13.875 -24.485  0.00  0.00    +0.156 HD
ATOM     37  H   UNL     1      33.400 -14.811 -25.781  0.00  0.00    +0.156 HD
ENDBRANCH  21  28
ENDBRANCH   1  21
TORSDOF 6
ENDMDL
MODEL 9
REMARK VINA RESULT:     -10.6      1.114      2.159
REMARK  Name = 25243853
REMARK  6 active torsions:
REMARK  status: ('A' for Active; 'I' for Inactive)
REMARK    1  A    between atoms: N_1  and  C_6
REMARK    2  A    between atoms: N_1  and  C_21
REMARK    3  A    between atoms: C_3  and  C_16
REMARK    4  A    between atoms: C_11  and  C_18
REMARK    5  A    between atoms: C_18  and  O_19
REMARK    6  A    between atoms: C_21  and  C_28
REMARK                            x       y       z     vdW  Elec       q    Type
REMARK                         _______ _______ _______ _____ _____    ______ ____
ROOT
ATOM      1  N   UNL     1      34.949 -18.968 -22.115  0.00  0.00    -0.327 N 
ATOM      2  H   UNL     1      34.541 -19.120 -22.998  0.00  0.00    +0.147 HD
ENDROOT
BRANCH   1   6
ATOM      3  C   UNL     1      33.798 -21.440 -18.920  0.00  0.00    +0.054 C 
ATOM      4  C   UNL     1      32.829 -20.767 -19.664  0.00  0.00    +0.006 C 
ATOM      5  C   UNL     1      35.148 -21.293 -19.237  0.00  0.00    +0.006 C 
ATOM      6  C   UNL     1      34.562 -19.799 -21.042  0.00  0.00    +0.045 C 
ATOM      7  C   UNL     1      33.212 -19.947 -20.726  0.00  0.00    +0.014 C 
ATOM      8  C   UNL     1      35.531 -20.472 -20.297  0.00  0.00    +0.014 C 
BRANCH   3  16
ATOM      9  O   UNL     1      32.194 -22.547 -17.710  0.00  0.00    -0.270 OA
ATOM     10  N   UNL     1      34.393 -22.781 -16.948  0.00  0.00    -0.276 N 
ATOM     11  C   UNL     1      35.967 -22.613 -14.512  0.00  0.00    +0.102 C 
ATOM     12  C   UNL     1      34.482 -22.992 -14.497  0.00  0.00    +0.033 C 
ATOM     13  C   UNL     1      36.351 -21.841 -15.778  0.00  0.00    +0.033 C 
ATOM     14  C   UNL     1      34.028 -23.624 -15.812  0.00  0.00    +0.094 C 
ATOM     15  C   UNL     1      35.827 -22.490 -17.060  0.00  0.00    +0.094 C 
ATOM     16  C   UNL     1      33.396 -22.304 -17.803  0.00  0.00    +0.249 C 
BRANCH  11  18
ATOM     17  O   UNL     1      36.629 -24.890 -14.941  0.00  0.00    -0.250 OA
ATOM     18  C   UNL     1      36.819 -23.839 -14.345  0.00  0.00    +0.317 C 
BRANCH  18  19
ATOM     19  O   UNL     1      37.808 -23.586 -13.442  0.00  0.00    -0.444 OA
ATOM     20  C   UNL     1      37.367 -23.114 -12.165  0.00  0.00    +0.256 C 
ENDBRANCH  18  19
ENDBRANCH  11  18
ENDBRANCH   3  16
ENDBRANCH   1   6
BRANCH   1  21
ATOM     21  C   UNL     1      35.908 -17.917 -21.976  0.00  0.00    +0.145 C 
BRANCH  21  28
ATOM     22  N   UNL     1      34.807 -15.947 -22.900  0.00  0.00    -0.392 NA
ATOM     23  N   UNL     1      34.400 -14.880 -20.379  0.00  0.00    -0.200 NA
ATOM     24  N   UNL     1      33.363 -13.032 -21.312  0.00  0.00    -0.271 NA
ATOM     25  N   UNL     1      33.108 -12.830 -23.688  0.00  0.00    -0.310 NA
ATOM     26  N   UNL     1      33.926 -14.538 -25.100  0.00  0.00    -0.329 N 
ATOM     27  N   UNL     1      32.312 -11.158 -22.256  0.00  0.00    -0.283 N 
ATOM     28  C   UNL     1      35.217 -16.593 -21.798  0.00  0.00    +0.133 C 
ATOM     29  C   UNL     1      35.015 -16.065 -20.552  0.00  0.00    +0.193 C 
ATOM     30  C   UNL     1      34.191 -14.762 -22.725  0.00  0.00    +0.248 C 
ATOM     31  C   UNL     1      33.978 -14.212 -21.459  0.00  0.00    +0.131 C 
ATOM     32  C   UNL     1      33.730 -14.018 -23.794  0.00  0.00    +0.231 C 
ATOM     33  C   UNL     1      32.958 -12.400 -22.430  0.00  0.00    +0.207 C 
ATOM     34  H   UNL     1      33.611 -14.033 -25.884  0.00  0.00    +0.145 HD
ATOM     35  H   UNL     1      34.379 -15.403 -25.223  0.00  0.00    +0.145 HD
ATOM     36  H   UNL     1      32.177 -10.796 -21.350  0.00  0.00    +0.156 HD
ATOM     37  H   UNL     1      31.996 -10.652 -23.039  0.00  0.00    +0.156 HD
ENDBRANCH  21  28
ENDBRANCH   1  21
TORSDOF 6
ENDMDL
