MODEL 1
REMARK VINA RESULT:     -10.6      0.000      0.000
REMARK  Name = 18376177
REMARK  11 active torsions:
REMARK  status: ('A' for Active; 'I' for Inactive)
REMARK    1  A    between atoms: N_1  and  S_2
REMARK    2  A    between atoms: N_1  and  C_11
REMARK    3  A    between atoms: N_1  and  C_23
REMARK    4  A    between atoms: S_2  and  C_6
REMARK    5  A    between atoms: C_11  and  C_12
REMARK    6  A    between atoms: C_15  and  N_18
REMARK    7  A    between atoms: C_23  and  C_24
REMARK    8  A    between atoms: C_27  and  O_30
REMARK    9  A    between atoms: O_30  and  C_31
REMARK   10  A    between atoms: C_31  and  C_33
REMARK   11  A    between atoms: C_33  and  O_34
REMARK                            x       y       z     vdW  Elec       q    Type
REMARK                         _______ _______ _______ _____ _____    ______ ____
ROOT
ATOM      1  N   UNL     1      33.337 -23.151 -14.921  0.00  0.00    -0.147 NA
ENDROOT
BRANCH   1   2
ATOM      2  S   UNL     1      32.138 -23.888 -13.925  0.00  0.00    +0.065 S 
ATOM      3  O   UNL     1      31.952 -23.095 -12.724  0.00  0.00    -0.153 OA
ATOM      4  O   UNL     1      32.413 -25.308 -13.807  0.00  0.00    -0.153 OA
BRANCH   2   6
ATOM      5  N   UNL     1      29.362 -22.404 -16.453  0.00  0.00    -0.241 NA
ATOM      6  C   UNL     1      30.668 -23.718 -14.900  0.00  0.00    +0.141 C 
ATOM      7  C   UNL     1      29.690 -24.705 -14.898  0.00  0.00    +0.023 C 
ATOM      8  C   UNL     1      30.459 -22.597 -15.687  0.00  0.00    +0.119 C 
ATOM      9  C   UNL     1      28.547 -24.544 -15.674  0.00  0.00    +0.022 C 
ATOM     10  C   UNL     1      28.432 -23.385 -16.427  0.00  0.00    +0.099 C 
ENDBRANCH   2   6
ENDBRANCH   1   2
BRANCH   1  11
ATOM     11  C   UNL     1      33.666 -23.808 -16.212  0.00  0.00    +0.122 C 
BRANCH  11  12
ATOM     12  C   UNL     1      34.042 -22.815 -17.276  0.00  0.00    -0.004 C 
ATOM     13  C   UNL     1      33.056 -22.259 -18.089  0.00  0.00    -0.002 C 
ATOM     14  C   UNL     1      35.377 -22.452 -17.451  0.00  0.00    -0.002 C 
ATOM     15  C   UNL     1      34.740 -20.975 -19.254  0.00  0.00    +0.074 C 
ATOM     16  C   UNL     1      33.405 -21.338 -19.078  0.00  0.00    +0.016 C 
ATOM     17  C   UNL     1      35.726 -21.532 -18.439  0.00  0.00    +0.016 C 
BRANCH  15  18
ATOM     18  N   UNL     1      35.085 -20.062 -20.233  0.00  0.00    -0.189 N 
ATOM     19  N   UNL     1      36.273 -19.435 -20.190  0.00  0.00    -0.172 NA
ATOM     20  C   UNL     1      34.313 -19.709 -21.300  0.00  0.00    +0.091 C 
ATOM     21  C   UNL     1      35.046 -18.785 -22.004  0.00  0.00    +0.040 C 
ATOM     22  C   UNL     1      36.242 -18.655 -21.276  0.00  0.00    +0.120 C 
ENDBRANCH  15  18
ENDBRANCH  11  12
ENDBRANCH   1  11
BRANCH   1  23
ATOM     23  C   UNL     1      34.544 -22.596 -14.257  0.00  0.00    +0.123 C 
BRANCH  23  24
ATOM     24  C   UNL     1      35.382 -23.665 -13.614  0.00  0.00    -0.001 C 
ATOM     25  C   UNL     1      36.262 -24.422 -14.388  0.00  0.00    +0.034 C 
ATOM     26  C   UNL     1      35.281 -23.901 -12.242  0.00  0.00    -0.003 C 
ATOM     27  C   UNL     1      37.040 -25.414 -13.791  0.00  0.00    +0.139 C 
ATOM     28  C   UNL     1      36.058 -24.893 -11.646  0.00  0.00    +0.003 C 
ATOM     29  C   UNL     1      36.939 -25.649 -12.420  0.00  0.00    +0.037 C 
BRANCH  27  30
ATOM     30  O   UNL     1      37.896 -26.154 -14.546  0.00  0.00    -0.464 OA
BRANCH  30  31
ATOM     31  C   UNL     1      39.164 -26.470 -13.971  0.00  0.00    +0.314 C 
BRANCH  31  33
ATOM     32  O   UNL     1      40.976 -24.872 -14.222  0.00  0.00    -0.246 OA
ATOM     33  C   UNL     1      40.251 -25.732 -14.700  0.00  0.00    +0.359 C 
BRANCH  33  34
ATOM     34  O   UNL     1      40.324 -26.156 -15.987  0.00  0.00    -0.478 OA
ATOM     35  H   UNL     1      39.631 -26.671 -16.351  0.00  0.00    +0.295 HD
ENDBRANCH  33  34
ENDBRANCH  31  33
ENDBRANCH  30  31
ENDBRANCH  27  30
ENDBRANCH  23  24
ENDBRANCH   1  23
TORSDOF 11
ENDMDL
MODEL 2
REMARK VINA RESULT:     -10.4      2.560      6.992
REMARK  Name = 18376177
REMARK  11 active torsions:
REMARK  status: ('A' for Active; 'I' for Inactive)
REMARK    1  A    between atoms: N_1  and  S_2
REMARK    2  A    between atoms: N_1  and  C_11
REMARK    3  A    between atoms: N_1  and  C_23
REMARK    4  A    between atoms: S_2  and  C_6
REMARK    5  A    between atoms: C_11  and  C_12
REMARK    6  A    between atoms: C_15  and  N_18
REMARK    7  A    between atoms: C_23  and  C_24
REMARK    8  A    between atoms: C_27  and  O_30
REMARK    9  A    between atoms: O_30  and  C_31
REMARK   10  A    between atoms: C_31  and  C_33
REMARK   11  A    between atoms: C_33  and  O_34
REMARK                            x       y       z     vdW  Elec       q    Type
REMARK                         _______ _______ _______ _____ _____    ______ ____
ROOT
ATOM      1  N   UNL     1      34.157 -23.471 -15.094  0.00  0.00    -0.147 NA
ENDROOT
BRANCH   1   2
ATOM      2  S   UNL     1      35.809 -23.194 -14.688  0.00  0.00    +0.065 S 
ATOM      3  O   UNL     1      36.105 -21.778 -14.806  0.00  0.00    -0.153 OA
ATOM      4  O   UNL     1      36.645 -24.157 -15.380  0.00  0.00    -0.153 OA
BRANCH   2   6
ATOM      5  N   UNL     1      34.861 -24.749 -11.086  0.00  0.00    -0.241 NA
ATOM      6  C   UNL     1      35.858 -23.600 -12.965  0.00  0.00    +0.141 C 
ATOM      7  C   UNL     1      36.874 -23.123 -12.145  0.00  0.00    +0.023 C 
ATOM      8  C   UNL     1      34.883 -24.402 -12.392  0.00  0.00    +0.119 C 
ATOM      9  C   UNL     1      36.886 -23.459 -10.796  0.00  0.00    +0.022 C 
ATOM     10  C   UNL     1      35.865 -24.268 -10.319  0.00  0.00    +0.099 C 
ENDBRANCH   2   6
ENDBRANCH   1   2
BRANCH   1  11
ATOM     11  C   UNL     1      33.846 -23.912 -16.477  0.00  0.00    +0.122 C 
BRANCH  11  12
ATOM     12  C   UNL     1      34.154 -22.851 -17.496  0.00  0.00    -0.004 C 
ATOM     13  C   UNL     1      35.471 -22.439 -17.696  0.00  0.00    -0.002 C 
ATOM     14  C   UNL     1      33.123 -22.278 -18.241  0.00  0.00    -0.002 C 
ATOM     15  C   UNL     1      34.726 -20.879 -19.385  0.00  0.00    +0.074 C 
ATOM     16  C   UNL     1      35.757 -21.453 -18.641  0.00  0.00    +0.016 C 
ATOM     17  C   UNL     1      33.409 -21.293 -19.185  0.00  0.00    +0.016 C 
BRANCH  15  18
ATOM     18  N   UNL     1      35.010 -19.903 -20.322  0.00  0.00    -0.189 N 
ATOM     19  N   UNL     1      36.123 -19.157 -20.212  0.00  0.00    -0.172 NA
ATOM     20  C   UNL     1      34.247 -19.598 -21.410  0.00  0.00    +0.091 C 
ATOM     21  C   UNL     1      34.905 -18.580 -22.056  0.00  0.00    +0.040 C 
ATOM     22  C   UNL     1      36.052 -18.350 -21.275  0.00  0.00    +0.120 C 
ENDBRANCH  15  18
ENDBRANCH  11  12
ENDBRANCH   1  11
BRANCH   1  23
ATOM     23  C   UNL     1      33.146 -22.513 -14.577  0.00  0.00    +0.123 C 
BRANCH  23  24
ATOM     24  C   UNL     1      31.742 -23.022 -14.743  0.00  0.00    -0.001 C 
ATOM     25  C   UNL     1      30.862 -22.372 -15.608  0.00  0.00    +0.034 C 
ATOM     26  C   UNL     1      31.318 -24.146 -14.033  0.00  0.00    -0.003 C 
ATOM     27  C   UNL     1      29.559 -22.845 -15.762  0.00  0.00    +0.139 C 
ATOM     28  C   UNL     1      30.016 -24.619 -14.187  0.00  0.00    +0.003 C 
ATOM     29  C   UNL     1      29.136 -23.969 -15.053  0.00  0.00    +0.037 C 
BRANCH  27  30
ATOM     30  O   UNL     1      28.699 -22.209 -16.604  0.00  0.00    -0.464 OA
BRANCH  30  31
ATOM     31  C   UNL     1      27.421 -22.812 -16.806  0.00  0.00    +0.314 C 
BRANCH  31  33
ATOM     32  O   UNL     1      25.570 -22.021 -15.446  0.00  0.00    -0.246 OA
ATOM     33  C   UNL     1      26.337 -21.860 -16.383  0.00  0.00    +0.359 C 
BRANCH  33  34
ATOM     34  O   UNL     1      26.324 -20.775 -17.197  0.00  0.00    -0.478 OA
ATOM     35  H   UNL     1      26.930 -20.075 -17.056  0.00  0.00    +0.295 HD
ENDBRANCH  33  34
ENDBRANCH  31  33
ENDBRANCH  30  31
ENDBRANCH  27  30
ENDBRANCH  23  24
ENDBRANCH   1  23
TORSDOF 11
ENDMDL
MODEL 3
REMARK VINA RESULT:     -10.0      0.905      1.706
REMARK  Name = 18376177
REMARK  11 active torsions:
REMARK  status: ('A' for Active; 'I' for Inactive)
REMARK    1  A    between atoms: N_1  and  S_2
REMARK    2  A    between atoms: N_1  and  C_11
REMARK    3  A    between atoms: N_1  and  C_23
REMARK    4  A    between atoms: S_2  and  C_6
REMARK    5  A    between atoms: C_11  and  C_12
REMARK    6  A    between atoms: C_15  and  N_18
REMARK    7  A    between atoms: C_23  and  C_24
REMARK    8  A    between atoms: C_27  and  O_30
REMARK    9  A    between atoms: O_30  and  C_31
REMARK   10  A    between atoms: C_31  and  C_33
REMARK   11  A    between atoms: C_33  and  O_34
REMARK                            x       y       z     vdW  Elec       q    Type
REMARK                         _______ _______ _______ _____ _____    ______ ____
ROOT
ATOM      1  N   UNL     1      33.304 -23.129 -14.892  0.00  0.00    -0.147 NA
ENDROOT
BRANCH   1   2
ATOM      2  S   UNL     1      32.105 -23.866 -13.897  0.00  0.00    +0.065 S 
ATOM      3  O   UNL     1      31.915 -23.069 -12.699  0.00  0.00    -0.153 OA
ATOM      4  O   UNL     1      32.383 -25.285 -13.774  0.00  0.00    -0.153 OA
BRANCH   2   6
ATOM      5  N   UNL     1      29.349 -22.415 -16.466  0.00  0.00    -0.241 NA
ATOM      6  C   UNL     1      30.637 -23.702 -14.875  0.00  0.00    +0.141 C 
ATOM      7  C   UNL     1      29.644 -24.674 -14.845  0.00  0.00    +0.023 C 
ATOM      8  C   UNL     1      30.443 -22.602 -15.695  0.00  0.00    +0.119 C 
ATOM      9  C   UNL     1      28.503 -24.518 -15.624  0.00  0.00    +0.022 C 
ATOM     10  C   UNL     1      28.405 -23.381 -16.411  0.00  0.00    +0.099 C 
ENDBRANCH   2   6
ENDBRANCH   1   2
BRANCH   1  11
ATOM     11  C   UNL     1      33.648 -23.797 -16.173  0.00  0.00    +0.122 C 
BRANCH  11  12
ATOM     12  C   UNL     1      34.022 -22.812 -17.246  0.00  0.00    -0.004 C 
ATOM     13  C   UNL     1      35.357 -22.448 -17.422  0.00  0.00    -0.002 C 
ATOM     14  C   UNL     1      33.035 -22.263 -18.064  0.00  0.00    -0.002 C 
ATOM     15  C   UNL     1      34.717 -20.983 -19.235  0.00  0.00    +0.074 C 
ATOM     16  C   UNL     1      35.704 -21.533 -18.417  0.00  0.00    +0.016 C 
ATOM     17  C   UNL     1      33.382 -21.349 -19.058  0.00  0.00    +0.016 C 
BRANCH  15  18
ATOM     18  N   UNL     1      35.062 -20.078 -20.221  0.00  0.00    -0.189 N 
ATOM     19  N   UNL     1      36.250 -19.450 -20.184  0.00  0.00    -0.172 NA
ATOM     20  C   UNL     1      34.289 -19.733 -21.291  0.00  0.00    +0.091 C 
ATOM     21  C   UNL     1      35.022 -18.815 -22.003  0.00  0.00    +0.040 C 
ATOM     22  C   UNL     1      36.219 -18.680 -21.276  0.00  0.00    +0.120 C 
ENDBRANCH  15  18
ENDBRANCH  11  12
ENDBRANCH   1  11
BRANCH   1  23
ATOM     23  C   UNL     1      34.502 -22.557 -14.225  0.00  0.00    +0.123 C 
BRANCH  23  24
ATOM     24  C   UNL     1      35.354 -23.613 -13.580  0.00  0.00    -0.001 C 
ATOM     25  C   UNL     1      36.276 -24.329 -14.343  0.00  0.00    +0.034 C 
ATOM     26  C   UNL     1      35.222 -23.878 -12.216  0.00  0.00    -0.003 C 
ATOM     27  C   UNL     1      37.066 -25.309 -13.744  0.00  0.00    +0.139 C 
ATOM     28  C   UNL     1      36.012 -24.858 -11.617  0.00  0.00    +0.003 C 
ATOM     29  C   UNL     1      36.935 -25.574 -12.381  0.00  0.00    +0.037 C 
BRANCH  27  30
ATOM     30  O   UNL     1      37.964 -26.010 -14.489  0.00  0.00    -0.464 OA
BRANCH  30  31
ATOM     31  C   UNL     1      38.172 -27.378 -14.140  0.00  0.00    +0.314 C 
BRANCH  31  33
ATOM     32  O   UNL     1      37.068 -28.350 -16.074  0.00  0.00    -0.246 OA
ATOM     33  C   UNL     1      37.178 -28.244 -14.861  0.00  0.00    +0.359 C 
BRANCH  33  34
ATOM     34  O   UNL     1      36.402 -28.909 -13.969  0.00  0.00    -0.478 OA
ATOM     35  H   UNL     1      35.682 -29.428 -14.268  0.00  0.00    +0.295 HD
ENDBRANCH  33  34
ENDBRANCH  31  33
ENDBRANCH  30  31
ENDBRANCH  27  30
ENDBRANCH  23  24
ENDBRANCH   1  23
TORSDOF 11
ENDMDL
MODEL 4
REMARK VINA RESULT:      -9.9      2.655      7.052
REMARK  Name = 18376177
REMARK  11 active torsions:
REMARK  status: ('A' for Active; 'I' for Inactive)
REMARK    1  A    between atoms: N_1  and  S_2
REMARK    2  A    between atoms: N_1  and  C_11
REMARK    3  A    between atoms: N_1  and  C_23
REMARK    4  A    between atoms: S_2  and  C_6
REMARK    5  A    between atoms: C_11  and  C_12
REMARK    6  A    between atoms: C_15  and  N_18
REMARK    7  A    between atoms: C_23  and  C_24
REMARK    8  A    between atoms: C_27  and  O_30
REMARK    9  A    between atoms: O_30  and  C_31
REMARK   10  A    between atoms: C_31  and  C_33
REMARK   11  A    between atoms: C_33  and  O_34
REMARK                            x       y       z     vdW  Elec       q    Type
REMARK                         _______ _______ _______ _____ _____    ______ ____
ROOT
ATOM      1  N   UNL     1      34.541 -24.229 -13.385  0.00  0.00    -0.147 NA
ENDROOT
BRANCH   1   2
ATOM      2  S   UNL     1      35.638 -24.132 -12.059  0.00  0.00    +0.065 S 
ATOM      3  O   UNL     1      35.113 -24.892 -10.940  0.00  0.00    -0.153 OA
ATOM      4  O   UNL     1      36.035 -22.750 -11.860  0.00  0.00    -0.153 OA
BRANCH   2   6
ATOM      5  N   UNL     1      39.187 -24.936 -13.807  0.00  0.00    -0.241 NA
ATOM      6  C   UNL     1      37.056 -25.002 -12.666  0.00  0.00    +0.141 C 
ATOM      7  C   UNL     1      37.178 -26.377 -12.502  0.00  0.00    +0.023 C 
ATOM      8  C   UNL     1      38.080 -24.334 -13.320  0.00  0.00    +0.119 C 
ATOM      9  C   UNL     1      38.302 -27.033 -12.989  0.00  0.00    +0.022 C 
ATOM     10  C   UNL     1      39.271 -26.274 -13.628  0.00  0.00    +0.099 C 
ENDBRANCH   2   6
ENDBRANCH   1   2
BRANCH   1  11
ATOM     11  C   UNL     1      35.039 -24.810 -14.658  0.00  0.00    +0.122 C 
BRANCH  11  12
ATOM     12  C   UNL     1      34.942 -23.842 -15.803  0.00  0.00    -0.004 C 
ATOM     13  C   UNL     1      35.964 -22.920 -16.024  0.00  0.00    -0.002 C 
ATOM     14  C   UNL     1      33.829 -23.866 -16.644  0.00  0.00    -0.002 C 
ATOM     15  C   UNL     1      34.760 -22.043 -17.928  0.00  0.00    +0.074 C 
ATOM     16  C   UNL     1      35.872 -22.020 -17.087  0.00  0.00    +0.016 C 
ATOM     17  C   UNL     1      33.738 -22.967 -17.706  0.00  0.00    +0.016 C 
BRANCH  15  18
ATOM     18  N   UNL     1      34.671 -21.152 -18.981  0.00  0.00    -0.189 N 
ATOM     19  N   UNL     1      35.777 -20.566 -19.472  0.00  0.00    -0.172 NA
ATOM     20  C   UNL     1      33.523 -20.784 -19.618  0.00  0.00    +0.091 C 
ATOM     21  C   UNL     1      33.903 -19.894 -20.592  0.00  0.00    +0.040 C 
ATOM     22  C   UNL     1      35.300 -19.797 -20.456  0.00  0.00    +0.120 C 
ENDBRANCH  15  18
ENDBRANCH  11  12
ENDBRANCH   1  11
BRANCH   1  23
ATOM     23  C   UNL     1      33.633 -23.077 -13.620  0.00  0.00    +0.123 C 
BRANCH  23  24
ATOM     24  C   UNL     1      32.205 -23.505 -13.805  0.00  0.00    -0.001 C 
ATOM     25  C   UNL     1      31.277 -22.623 -14.358  0.00  0.00    +0.034 C 
ATOM     26  C   UNL     1      31.807 -24.787 -13.422  0.00  0.00    -0.003 C 
ATOM     27  C   UNL     1      29.952 -23.022 -14.529  0.00  0.00    +0.139 C 
ATOM     28  C   UNL     1      30.481 -25.185 -13.593  0.00  0.00    +0.003 C 
ATOM     29  C   UNL     1      29.554 -24.303 -14.148  0.00  0.00    +0.037 C 
BRANCH  27  30
ATOM     30  O   UNL     1      29.046 -22.160 -15.067  0.00  0.00    -0.464 OA
BRANCH  30  31
ATOM     31  C   UNL     1      27.717 -22.646 -15.252  0.00  0.00    +0.314 C 
BRANCH  31  33
ATOM     32  O   UNL     1      27.479 -23.282 -17.584  0.00  0.00    -0.246 OA
ATOM     33  C   UNL     1      27.306 -22.471 -16.687  0.00  0.00    +0.359 C 
BRANCH  33  34
ATOM     34  O   UNL     1      26.704 -21.267 -16.858  0.00  0.00    -0.478 OA
ATOM     35  H   UNL     1      25.834 -21.129 -16.541  0.00  0.00    +0.295 HD
ENDBRANCH  33  34
ENDBRANCH  31  33
ENDBRANCH  30  31
ENDBRANCH  27  30
ENDBRANCH  23  24
ENDBRANCH   1  23
TORSDOF 11
ENDMDL
MODEL 5
REMARK VINA RESULT:      -9.8      2.602      6.691
REMARK  Name = 18376177
REMARK  11 active torsions:
REMARK  status: ('A' for Active; 'I' for Inactive)
REMARK    1  A    between atoms: N_1  and  S_2
REMARK    2  A    between atoms: N_1  and  C_11
REMARK    3  A    between atoms: N_1  and  C_23
REMARK    4  A    between atoms: S_2  and  C_6
REMARK    5  A    between atoms: C_11  and  C_12
REMARK    6  A    between atoms: C_15  and  N_18
REMARK    7  A    between atoms: C_23  and  C_24
REMARK    8  A    between atoms: C_27  and  O_30
REMARK    9  A    between atoms: O_30  and  C_31
REMARK   10  A    between atoms: C_31  and  C_33
REMARK   11  A    between atoms: C_33  and  O_34
REMARK                            x       y       z     vdW  Elec       q    Type
REMARK                         _______ _______ _______ _____ _____    ______ ____
ROOT
ATOM      1  N   UNL     1      34.239 -23.268 -16.154  0.00  0.00    -0.147 NA
ENDROOT
BRANCH   1   2
ATOM      2  S   UNL     1      35.800 -22.868 -15.541  0.00  0.00    +0.065 S 
ATOM      3  O   UNL     1      35.660 -21.964 -14.414  0.00  0.00    -0.153 OA
ATOM      4  O   UNL     1      36.673 -22.506 -16.642  0.00  0.00    -0.153 OA
BRANCH   2   6
ATOM      5  N   UNL     1      35.983 -26.777 -14.553  0.00  0.00    -0.241 NA
ATOM      6  C   UNL     1      36.374 -24.417 -14.904  0.00  0.00    +0.141 C 
ATOM      7  C   UNL     1      37.609 -24.520 -14.275  0.00  0.00    +0.023 C 
ATOM      8  C   UNL     1      35.605 -25.565 -15.016  0.00  0.00    +0.119 C 
ATOM      9  C   UNL     1      38.034 -25.750 -13.785  0.00  0.00    +0.022 C 
ATOM     10  C   UNL     1      37.191 -26.839 -13.948  0.00  0.00    +0.099 C 
ENDBRANCH   2   6
ENDBRANCH   1   2
BRANCH   1  11
ATOM     11  C   UNL     1      34.127 -23.619 -17.593  0.00  0.00    +0.122 C 
BRANCH  11  12
ATOM     12  C   UNL     1      34.329 -22.429 -18.487  0.00  0.00    -0.004 C 
ATOM     13  C   UNL     1      35.615 -22.073 -18.894  0.00  0.00    -0.002 C 
ATOM     14  C   UNL     1      33.232 -21.679 -18.910  0.00  0.00    -0.002 C 
ATOM     15  C   UNL     1      34.705 -20.217 -20.145  0.00  0.00    +0.074 C 
ATOM     16  C   UNL     1      35.803 -20.967 -19.724  0.00  0.00    +0.016 C 
ATOM     17  C   UNL     1      33.420 -20.573 -19.739  0.00  0.00    +0.016 C 
BRANCH  15  18
ATOM     18  N   UNL     1      34.892 -19.122 -20.969  0.00  0.00    -0.189 N 
ATOM     19  N   UNL     1      35.408 -17.981 -20.478  0.00  0.00    -0.172 NA
ATOM     20  C   UNL     1      34.598 -19.066 -22.299  0.00  0.00    +0.091 C 
ATOM     21  C   UNL     1      34.945 -17.802 -22.708  0.00  0.00    +0.040 C 
ATOM     22  C   UNL     1      35.437 -17.178 -21.546  0.00  0.00    +0.120 C 
ENDBRANCH  15  18
ENDBRANCH  11  12
ENDBRANCH   1  11
BRANCH   1  23
ATOM     23  C   UNL     1      33.083 -22.459 -15.689  0.00  0.00    +0.123 C 
BRANCH  23  24
ATOM     24  C   UNL     1      32.019 -23.303 -15.046  0.00  0.00    -0.001 C 
ATOM     25  C   UNL     1      30.698 -23.215 -15.485  0.00  0.00    +0.034 C 
ATOM     26  C   UNL     1      32.353 -24.175 -14.009  0.00  0.00    -0.003 C 
ATOM     27  C   UNL     1      29.711 -23.998 -14.888  0.00  0.00    +0.139 C 
ATOM     28  C   UNL     1      31.366 -24.959 -13.412  0.00  0.00    +0.003 C 
ATOM     29  C   UNL     1      30.045 -24.871 -13.852  0.00  0.00    +0.037 C 
BRANCH  27  30
ATOM     30  O   UNL     1      28.422 -23.910 -15.314  0.00  0.00    -0.464 OA
BRANCH  30  31
ATOM     31  C   UNL     1      27.841 -22.608 -15.364  0.00  0.00    +0.314 C 
BRANCH  31  33
ATOM     32  O   UNL     1      26.635 -21.371 -17.073  0.00  0.00    -0.246 OA
ATOM     33  C   UNL     1      27.276 -22.355 -16.734  0.00  0.00    +0.359 C 
BRANCH  33  34
ATOM     34  O   UNL     1      27.579 -23.385 -17.563  0.00  0.00    -0.478 OA
ATOM     35  H   UNL     1      27.645 -24.256 -17.224  0.00  0.00    +0.295 HD
ENDBRANCH  33  34
ENDBRANCH  31  33
ENDBRANCH  30  31
ENDBRANCH  27  30
ENDBRANCH  23  24
ENDBRANCH   1  23
TORSDOF 11
ENDMDL
MODEL 6
REMARK VINA RESULT:      -9.7      1.639      2.648
REMARK  Name = 18376177
REMARK  11 active torsions:
REMARK  status: ('A' for Active; 'I' for Inactive)
REMARK    1  A    between atoms: N_1  and  S_2
REMARK    2  A    between atoms: N_1  and  C_11
REMARK    3  A    between atoms: N_1  and  C_23
REMARK    4  A    between atoms: S_2  and  C_6
REMARK    5  A    between atoms: C_11  and  C_12
REMARK    6  A    between atoms: C_15  and  N_18
REMARK    7  A    between atoms: C_23  and  C_24
REMARK    8  A    between atoms: C_27  and  O_30
REMARK    9  A    between atoms: O_30  and  C_31
REMARK   10  A    between atoms: C_31  and  C_33
REMARK   11  A    between atoms: C_33  and  O_34
REMARK                            x       y       z     vdW  Elec       q    Type
REMARK                         _______ _______ _______ _____ _____    ______ ____
ROOT
ATOM      1  N   UNL     1      33.196 -22.925 -15.454  0.00  0.00    -0.147 NA
ENDROOT
BRANCH   1   2
ATOM      2  S   UNL     1      32.104 -23.639 -14.326  0.00  0.00    +0.065 S 
ATOM      3  O   UNL     1      32.002 -22.793 -13.151  0.00  0.00    -0.153 OA
ATOM      4  O   UNL     1      32.423 -25.046 -14.168  0.00  0.00    -0.153 OA
BRANCH   2   6
ATOM      5  N   UNL     1      29.000 -22.247 -16.499  0.00  0.00    -0.241 NA
ATOM      6  C   UNL     1      30.554 -23.545 -15.178  0.00  0.00    +0.141 C 
ATOM      7  C   UNL     1      29.688 -24.631 -15.211  0.00  0.00    +0.023 C 
ATOM      8  C   UNL     1      30.166 -22.386 -15.832  0.00  0.00    +0.119 C 
ATOM      9  C   UNL     1      28.478 -24.528 -15.888  0.00  0.00    +0.022 C 
ATOM     10  C   UNL     1      28.183 -23.325 -16.510  0.00  0.00    +0.099 C 
ENDBRANCH   2   6
ENDBRANCH   1   2
BRANCH   1  11
ATOM     11  C   UNL     1      33.254 -23.499 -16.822  0.00  0.00    +0.122 C 
BRANCH  11  12
ATOM     12  C   UNL     1      33.697 -22.490 -17.844  0.00  0.00    -0.004 C 
ATOM     13  C   UNL     1      35.056 -22.282 -18.074  0.00  0.00    -0.002 C 
ATOM     14  C   UNL     1      32.748 -21.761 -18.562  0.00  0.00    -0.002 C 
ATOM     15  C   UNL     1      34.519 -20.614 -19.739  0.00  0.00    +0.074 C 
ATOM     16  C   UNL     1      35.467 -21.344 -19.022  0.00  0.00    +0.016 C 
ATOM     17  C   UNL     1      33.159 -20.824 -19.509  0.00  0.00    +0.016 C 
BRANCH  15  18
ATOM     18  N   UNL     1      34.927 -19.687 -20.679  0.00  0.00    -0.189 N 
ATOM     19  N   UNL     1      35.961 -18.866 -20.422  0.00  0.00    -0.172 NA
ATOM     20  C   UNL     1      34.370 -19.502 -21.910  0.00  0.00    +0.091 C 
ATOM     21  C   UNL     1      35.087 -18.490 -22.499  0.00  0.00    +0.040 C 
ATOM     22  C   UNL     1      36.053 -18.137 -21.539  0.00  0.00    +0.120 C 
ENDBRANCH  15  18
ENDBRANCH  11  12
ENDBRANCH   1  11
BRANCH   1  23
ATOM     23  C   UNL     1      34.541 -22.530 -14.961  0.00  0.00    +0.123 C 
BRANCH  23  24
ATOM     24  C   UNL     1      35.361 -23.714 -14.533  0.00  0.00    -0.001 C 
ATOM     25  C   UNL     1      36.137 -23.645 -13.376  0.00  0.00    +0.034 C 
ATOM     26  C   UNL     1      35.346 -24.884 -15.293  0.00  0.00    -0.003 C 
ATOM     27  C   UNL     1      36.899 -24.744 -12.980  0.00  0.00    +0.139 C 
ATOM     28  C   UNL     1      36.108 -25.983 -14.897  0.00  0.00    +0.003 C 
ATOM     29  C   UNL     1      36.884 -25.913 -13.740  0.00  0.00    +0.037 C 
BRANCH  27  30
ATOM     30  O   UNL     1      37.658 -24.675 -11.853  0.00  0.00    -0.464 OA
BRANCH  30  31
ATOM     31  C   UNL     1      37.106 -25.235 -10.661  0.00  0.00    +0.314 C 
BRANCH  31  33
ATOM     32  O   UNL     1      36.888 -22.990  -9.760  0.00  0.00    -0.246 OA
ATOM     33  C   UNL     1      36.499 -24.147  -9.821  0.00  0.00    +0.359 C 
BRANCH  33  34
ATOM     34  O   UNL     1      35.440 -24.629  -9.124  0.00  0.00    -0.478 OA
ATOM     35  H   UNL     1      35.509 -25.448  -8.673  0.00  0.00    +0.295 HD
ENDBRANCH  33  34
ENDBRANCH  31  33
ENDBRANCH  30  31
ENDBRANCH  27  30
ENDBRANCH  23  24
ENDBRANCH   1  23
TORSDOF 11
ENDMDL
MODEL 7
REMARK VINA RESULT:      -9.6      3.266      7.605
REMARK  Name = 18376177
REMARK  11 active torsions:
REMARK  status: ('A' for Active; 'I' for Inactive)
REMARK    1  A    between atoms: N_1  and  S_2
REMARK    2  A    between atoms: N_1  and  C_11
REMARK    3  A    between atoms: N_1  and  C_23
REMARK    4  A    between atoms: S_2  and  C_6
REMARK    5  A    between atoms: C_11  and  C_12
REMARK    6  A    between atoms: C_15  and  N_18
REMARK    7  A    between atoms: C_23  and  C_24
REMARK    8  A    between atoms: C_27  and  O_30
REMARK    9  A    between atoms: O_30  and  C_31
REMARK   10  A    between atoms: C_31  and  C_33
REMARK   11  A    between atoms: C_33  and  O_34
REMARK                            x       y       z     vdW  Elec       q    Type
REMARK                         _______ _______ _______ _____ _____    ______ ____
ROOT
ATOM      1  N   UNL     1      35.478 -23.881 -12.897  0.00  0.00    -0.147 NA
ENDROOT
BRANCH   1   2
ATOM      2  S   UNL     1      36.973 -23.825 -12.040  0.00  0.00    +0.065 S 
ATOM      3  O   UNL     1      36.728 -24.036 -10.625  0.00  0.00    -0.153 OA
ATOM      4  O   UNL     1      37.732 -22.663 -12.467  0.00  0.00    -0.153 OA
BRANCH   2   6
ATOM      5  N   UNL     1      37.944 -27.666 -12.814  0.00  0.00    -0.241 NA
ATOM      6  C   UNL     1      37.821 -25.257 -12.647  0.00  0.00    +0.141 C 
ATOM      7  C   UNL     1      38.980 -25.136 -13.403  0.00  0.00    +0.023 C 
ATOM      8  C   UNL     1      37.348 -26.533 -12.382  0.00  0.00    +0.119 C 
ATOM      9  C   UNL     1      39.623 -26.279 -13.866  0.00  0.00    +0.022 C 
ATOM     10  C   UNL     1      39.070 -27.509 -13.547  0.00  0.00    +0.099 C 
ENDBRANCH   2   6
ENDBRANCH   1   2
BRANCH   1  11
ATOM     11  C   UNL     1      34.250 -24.208 -12.129  0.00  0.00    +0.122 C 
BRANCH  11  12
ATOM     12  C   UNL     1      33.000 -23.987 -12.933  0.00  0.00    -0.004 C 
ATOM     13  C   UNL     1      32.721 -22.725 -13.455  0.00  0.00    -0.002 C 
ATOM     14  C   UNL     1      32.119 -25.045 -13.157  0.00  0.00    -0.002 C 
ATOM     15  C   UNL     1      30.678 -23.577 -14.424  0.00  0.00    +0.074 C 
ATOM     16  C   UNL     1      31.559 -22.519 -14.201  0.00  0.00    +0.016 C 
ATOM     17  C   UNL     1      30.958 -24.840 -13.902  0.00  0.00    +0.016 C 
BRANCH  15  18
ATOM     18  N   UNL     1      29.528 -23.373 -15.164  0.00  0.00    -0.189 N 
ATOM     19  N   UNL     1      28.757 -22.294 -14.942  0.00  0.00    -0.172 NA
ATOM     20  C   UNL     1      29.063 -24.189 -16.153  0.00  0.00    +0.091 C 
ATOM     21  C   UNL     1      27.907 -23.604 -16.610  0.00  0.00    +0.040 C 
ATOM     22  C   UNL     1      27.768 -22.442 -15.829  0.00  0.00    +0.120 C 
ENDBRANCH  15  18
ENDBRANCH  11  12
ENDBRANCH   1  11
BRANCH   1  23
ATOM     23  C   UNL     1      35.475 -24.507 -14.244  0.00  0.00    +0.123 C 
BRANCH  23  24
ATOM     24  C   UNL     1      35.775 -23.517 -15.333  0.00  0.00    -0.001 C 
ATOM     25  C   UNL     1      34.793 -23.188 -16.268  0.00  0.00    +0.034 C 
ATOM     26  C   UNL     1      37.036 -22.925 -15.409  0.00  0.00    -0.003 C 
ATOM     27  C   UNL     1      35.072 -22.269 -17.279  0.00  0.00    +0.139 C 
ATOM     28  C   UNL     1      37.315 -22.006 -16.420  0.00  0.00    +0.003 C 
ATOM     29  C   UNL     1      36.333 -21.677 -17.355  0.00  0.00    +0.037 C 
BRANCH  27  30
ATOM     30  O   UNL     1      34.116 -21.951 -18.192  0.00  0.00    -0.464 OA
BRANCH  30  31
ATOM     31  C   UNL     1      34.551 -21.323 -19.398  0.00  0.00    +0.314 C 
BRANCH  31  33
ATOM     32  O   UNL     1      32.273 -20.501 -19.588  0.00  0.00    -0.246 OA
ATOM     33  C   UNL     1      33.429 -20.512 -19.984  0.00  0.00    +0.359 C 
BRANCH  33  34
ATOM     34  O   UNL     1      33.879 -19.778 -21.031  0.00  0.00    -0.478 OA
ATOM     35  H   UNL     1      33.441 -19.823 -21.859  0.00  0.00    +0.295 HD
ENDBRANCH  33  34
ENDBRANCH  31  33
ENDBRANCH  30  31
ENDBRANCH  27  30
ENDBRANCH  23  24
ENDBRANCH   1  23
TORSDOF 11
ENDMDL
MODEL 8
REMARK VINA RESULT:      -9.5      3.261      7.430
REMARK  Name = 18376177
REMARK  11 active torsions:
REMARK  status: ('A' for Active; 'I' for Inactive)
REMARK    1  A    between atoms: N_1  and  S_2
REMARK    2  A    between atoms: N_1  and  C_11
REMARK    3  A    between atoms: N_1  and  C_23
REMARK    4  A    between atoms: S_2  and  C_6
REMARK    5  A    between atoms: C_11  and  C_12
REMARK    6  A    between atoms: C_15  and  N_18
REMARK    7  A    between atoms: C_23  and  C_24
REMARK    8  A    between atoms: C_27  and  O_30
REMARK    9  A    between atoms: O_30  and  C_31
REMARK   10  A    between atoms: C_31  and  C_33
REMARK   11  A    between atoms: C_33  and  O_34
REMARK                            x       y       z     vdW  Elec       q    Type
REMARK                         _______ _______ _______ _____ _____    ______ ____
ROOT
ATOM      1  N   UNL     1      34.984 -23.624 -13.807  0.00  0.00    -0.147 NA
ENDROOT
BRANCH   1   2
ATOM      2  S   UNL     1      36.513 -23.345 -13.061  0.00  0.00    +0.065 S 
ATOM      3  O   UNL     1      36.310 -22.911 -11.690  0.00  0.00    -0.153 OA
ATOM      4  O   UNL     1      37.344 -22.549 -13.945  0.00  0.00    -0.153 OA
BRANCH   2   6
ATOM      5  N   UNL     1      37.341 -27.125 -11.912  0.00  0.00    -0.241 NA
ATOM      6  C   UNL     1      37.216 -24.969 -12.999  0.00  0.00    +0.141 C 
ATOM      7  C   UNL     1      38.157 -25.378 -13.937  0.00  0.00    +0.023 C 
ATOM      8  C   UNL     1      36.844 -25.872 -12.016  0.00  0.00    +0.119 C 
ATOM      9  C   UNL     1      38.691 -26.659 -13.864  0.00  0.00    +0.022 C 
ATOM     10  C   UNL     1      38.254 -27.487 -12.841  0.00  0.00    +0.099 C 
ENDBRANCH   2   6
ENDBRANCH   1   2
BRANCH   1  11
ATOM     11  C   UNL     1      33.848 -24.018 -12.936  0.00  0.00    +0.122 C 
BRANCH  11  12
ATOM     12  C   UNL     1      32.517 -23.750 -13.580  0.00  0.00    -0.004 C 
ATOM     13  C   UNL     1      32.117 -22.438 -13.833  0.00  0.00    -0.002 C 
ATOM     14  C   UNL     1      31.681 -24.812 -13.923  0.00  0.00    -0.002 C 
ATOM     15  C   UNL     1      30.044 -23.252 -14.772  0.00  0.00    +0.074 C 
ATOM     16  C   UNL     1      30.880 -22.189 -14.429  0.00  0.00    +0.016 C 
ATOM     17  C   UNL     1      30.445 -24.563 -14.519  0.00  0.00    +0.016 C 
BRANCH  15  18
ATOM     18  N   UNL     1      28.819 -23.004 -15.365  0.00  0.00    -0.189 N 
ATOM     19  N   UNL     1      27.931 -22.185 -14.775  0.00  0.00    -0.172 NA
ATOM     20  C   UNL     1      28.388 -23.524 -16.549  0.00  0.00    +0.091 C 
ATOM     21  C   UNL     1      27.130 -23.011 -16.749  0.00  0.00    +0.040 C 
ATOM     22  C   UNL     1      26.901 -22.194 -15.626  0.00  0.00    +0.120 C 
ENDBRANCH  15  18
ENDBRANCH  11  12
ENDBRANCH   1  11
BRANCH   1  23
ATOM     23  C   UNL     1      34.968 -24.351 -15.103  0.00  0.00    +0.123 C 
BRANCH  23  24
ATOM     24  C   UNL     1      34.678 -23.440 -16.262  0.00  0.00    -0.001 C 
ATOM     25  C   UNL     1      35.683 -22.618 -16.773  0.00  0.00    +0.034 C 
ATOM     26  C   UNL     1      33.403 -23.417 -16.829  0.00  0.00    -0.003 C 
ATOM     27  C   UNL     1      35.413 -21.774 -17.849  0.00  0.00    +0.139 C 
ATOM     28  C   UNL     1      33.133 -22.572 -17.905  0.00  0.00    +0.003 C 
ATOM     29  C   UNL     1      34.139 -21.750 -18.416  0.00  0.00    +0.037 C 
BRANCH  27  30
ATOM     30  O   UNL     1      36.393 -20.970 -18.346  0.00  0.00    -0.464 OA
BRANCH  30  31
ATOM     31  C   UNL     1      36.409 -20.760 -19.757  0.00  0.00    +0.314 C 
BRANCH  31  33
ATOM     32  O   UNL     1      37.542 -18.619 -19.940  0.00  0.00    -0.246 OA
ATOM     33  C   UNL     1      36.527 -19.291 -20.052  0.00  0.00    +0.359 C 
BRANCH  33  34
ATOM     34  O   UNL     1      35.334 -18.799 -20.469  0.00  0.00    -0.478 OA
ATOM     35  H   UNL     1      34.558 -18.967 -19.970  0.00  0.00    +0.295 HD
ENDBRANCH  33  34
ENDBRANCH  31  33
ENDBRANCH  30  31
ENDBRANCH  27  30
ENDBRANCH  23  24
ENDBRANCH   1  23
TORSDOF 11
ENDMDL
MODEL 9
REMARK VINA RESULT:      -8.8      2.466      6.467
REMARK  Name = 18376177
REMARK  11 active torsions:
REMARK  status: ('A' for Active; 'I' for Inactive)
REMARK    1  A    between atoms: N_1  and  S_2
REMARK    2  A    between atoms: N_1  and  C_11
REMARK    3  A    between atoms: N_1  and  C_23
REMARK    4  A    between atoms: S_2  and  C_6
REMARK    5  A    between atoms: C_11  and  C_12
REMARK    6  A    between atoms: C_15  and  N_18
REMARK    7  A    between atoms: C_23  and  C_24
REMARK    8  A    between atoms: C_27  and  O_30
REMARK    9  A    between atoms: O_30  and  C_31
REMARK   10  A    between atoms: C_31  and  C_33
REMARK   11  A    between atoms: C_33  and  O_34
REMARK                            x       y       z     vdW  Elec       q    Type
REMARK                         _______ _______ _______ _____ _____    ______ ____
ROOT
ATOM      1  N   UNL     1      36.083 -24.157 -15.346  0.00  0.00    -0.147 NA
ENDROOT
BRANCH   1   2
ATOM      2  S   UNL     1      37.537 -24.656 -14.567  0.00  0.00    +0.065 S 
ATOM      3  O   UNL     1      38.599 -23.715 -14.875  0.00  0.00    -0.153 OA
ATOM      4  O   UNL     1      37.749 -26.073 -14.801  0.00  0.00    -0.153 OA
BRANCH   2   6
ATOM      5  N   UNL     1      36.483 -25.472 -10.757  0.00  0.00    -0.241 NA
ATOM      6  C   UNL     1      37.144 -24.461 -12.851  0.00  0.00    +0.141 C 
ATOM      7  C   UNL     1      37.176 -23.210 -12.246  0.00  0.00    +0.023 C 
ATOM      8  C   UNL     1      36.794 -25.551 -12.070  0.00  0.00    +0.119 C 
ATOM      9  C   UNL     1      36.863 -23.088 -10.897  0.00  0.00    +0.022 C 
ATOM     10  C   UNL     1      36.526 -24.240 -10.203  0.00  0.00    +0.099 C 
ENDBRANCH   2   6
ENDBRANCH   1   2
BRANCH   1  11
ATOM     11  C   UNL     1      35.706 -22.723 -15.259  0.00  0.00    +0.122 C 
BRANCH  11  12
ATOM     12  C   UNL     1      35.747 -22.041 -16.598  0.00  0.00    -0.004 C 
ATOM     13  C   UNL     1      34.644 -22.109 -17.449  0.00  0.00    -0.002 C 
ATOM     14  C   UNL     1      36.888 -21.341 -16.990  0.00  0.00    -0.002 C 
ATOM     15  C   UNL     1      35.824 -20.778 -19.085  0.00  0.00    +0.074 C 
ATOM     16  C   UNL     1      34.683 -21.477 -18.693  0.00  0.00    +0.016 C 
ATOM     17  C   UNL     1      36.927 -20.710 -18.233  0.00  0.00    +0.016 C 
BRANCH  15  18
ATOM     18  N   UNL     1      35.861 -20.151 -20.316  0.00  0.00    -0.189 N 
ATOM     19  N   UNL     1      34.806 -20.218 -21.146  0.00  0.00    -0.172 NA
ATOM     20  C   UNL     1      36.906 -19.428 -20.810  0.00  0.00    +0.091 C 
ATOM     21  C   UNL     1      36.508 -18.992 -22.050  0.00  0.00    +0.040 C 
ATOM     22  C   UNL     1      35.208 -19.508 -22.205  0.00  0.00    +0.120 C 
ENDBRANCH  15  18
ENDBRANCH  11  12
ENDBRANCH   1  11
BRANCH   1  23
ATOM     23  C   UNL     1      34.900 -25.049 -15.242  0.00  0.00    +0.123 C 
BRANCH  23  24
ATOM     24  C   UNL     1      33.713 -24.352 -14.637  0.00  0.00    -0.001 C 
ATOM     25  C   UNL     1      32.635 -23.983 -15.442  0.00  0.00    +0.034 C 
ATOM     26  C   UNL     1      33.689 -24.075 -13.270  0.00  0.00    -0.003 C 
ATOM     27  C   UNL     1      31.535 -23.337 -14.881  0.00  0.00    +0.139 C 
ATOM     28  C   UNL     1      32.588 -23.429 -12.709  0.00  0.00    +0.003 C 
ATOM     29  C   UNL     1      31.510 -23.060 -13.514  0.00  0.00    +0.037 C 
BRANCH  27  30
ATOM     30  O   UNL     1      30.484 -22.974 -15.667  0.00  0.00    -0.464 OA
BRANCH  30  31
ATOM     31  C   UNL     1      29.358 -23.851 -15.693  0.00  0.00    +0.314 C 
BRANCH  31  33
ATOM     32  O   UNL     1      27.483 -23.855 -17.237  0.00  0.00    -0.246 OA
ATOM     33  C   UNL     1      28.259 -23.243 -16.518  0.00  0.00    +0.359 C 
BRANCH  33  34
ATOM     34  O   UNL     1      28.241 -21.897 -16.354  0.00  0.00    -0.478 OA
ATOM     35  H   UNL     1      28.985 -21.384 -16.603  0.00  0.00    +0.295 HD
ENDBRANCH  33  34
ENDBRANCH  31  33
ENDBRANCH  30  31
ENDBRANCH  27  30
ENDBRANCH  23  24
ENDBRANCH   1  23
TORSDOF 11
ENDMDL
