MODEL 1
REMARK VINA RESULT:     -11.6      0.000      0.000
REMARK  Name = 25243828
REMARK  6 active torsions:
REMARK  status: ('A' for Active; 'I' for Inactive)
REMARK    1  A    between atoms: C_1  and  C_18
REMARK    2  A    between atoms: C_4  and  O_7
REMARK    3  A    between atoms: O_7  and  C_9
REMARK    4  A    between atoms: C_11  and  C_17
REMARK    5  A    between atoms: C_18  and  C_21
REMARK    6  A    between atoms: C_26  and  O_27
REMARK                            x       y       z     vdW  Elec       q    Type
REMARK                         _______ _______ _______ _____ _____    ______ ____
ROOT
ATOM      1  C   UNL     1      35.197 -18.208 -21.941  0.00  0.00    -0.019 C 
ATOM      2  C   UNL     1      35.428 -16.841 -22.092  0.00  0.00    +0.033 C 
ATOM      3  C   UNL     1      34.534 -18.918 -22.943  0.00  0.00    -0.004 C 
ATOM      4  C   UNL     1      34.996 -16.183 -23.244  0.00  0.00    +0.147 C 
ATOM      5  C   UNL     1      34.101 -18.261 -24.094  0.00  0.00    +0.003 C 
ATOM      6  C   UNL     1      34.333 -16.893 -24.246  0.00  0.00    +0.038 C 
ENDROOT
BRANCH   4   7
ATOM      7  O   UNL     1      35.219 -14.849 -23.391  0.00  0.00    -0.436 OA
BRANCH   7   9
ATOM      8  N   UNL     1      33.975 -12.876 -23.440  0.00  0.00    -0.210 NA
ATOM      9  C   UNL     1      34.354 -13.977 -22.752  0.00  0.00    +0.230 C 
ATOM     10  C   UNL     1      33.930 -14.272 -21.466  0.00  0.00    +0.058 C 
ATOM     11  C   UNL     1      32.647 -12.239 -21.523  0.00  0.00    +0.091 C 
ATOM     12  C   UNL     1      33.059 -13.382 -20.847  0.00  0.00    +0.010 C 
ATOM     13  C   UNL     1      33.129 -12.034 -22.806  0.00  0.00    +0.106 C 
BRANCH  11  17
ATOM     14  F   UNL     1      31.983  -9.963 -21.204  0.00  0.00    -0.166 F 
ATOM     15  F   UNL     1      30.407 -11.453 -21.230  0.00  0.00    -0.166 F 
ATOM     16  F   UNL     1      31.747 -11.320 -19.523  0.00  0.00    -0.166 F 
ATOM     17  C   UNL     1      31.718 -11.266 -20.887  0.00  0.00    +0.420 C 
ENDBRANCH  11  17
ENDBRANCH   7   9
ENDBRANCH   4   7
BRANCH   1  18
ATOM     18  C   UNL     1      35.660 -18.918 -20.699  0.00  0.00    +0.027 C 
BRANCH  18  21
ATOM     19  O   UNL     1      33.799 -23.321 -16.811  0.00  0.00    -0.226 OA
ATOM     20  N   UNL     1      33.555 -22.147 -18.805  0.00  0.00    -0.246 N 
ATOM     21  C   UNL     1      34.934 -20.248 -20.507  0.00  0.00    +0.008 C 
ATOM     22  C   UNL     1      35.687 -21.144 -19.511  0.00  0.00    +0.022 C 
ATOM     23  C   UNL     1      33.489 -20.018 -20.035  0.00  0.00    +0.022 C 
ATOM     24  C   UNL     1      34.922 -22.439 -19.242  0.00  0.00    +0.097 C 
ATOM     25  C   UNL     1      32.782 -21.344 -19.761  0.00  0.00    +0.097 C 
ATOM     26  C   UNL     1      33.112 -22.642 -17.574  0.00  0.00    +0.402 C 
BRANCH  26  27
ATOM     27  O   UNL     1      31.832 -22.329 -17.220  0.00  0.00    -0.466 OA
ATOM     28  H   UNL     1      31.265 -22.993 -16.882  0.00  0.00    +0.297 HD
ENDBRANCH  26  27
ENDBRANCH  18  21
ENDBRANCH   1  18
TORSDOF 6
ENDMDL
MODEL 2
REMARK VINA RESULT:     -11.3      4.601      8.698
REMARK  Name = 25243828
REMARK  6 active torsions:
REMARK  status: ('A' for Active; 'I' for Inactive)
REMARK    1  A    between atoms: C_1  and  C_18
REMARK    2  A    between atoms: C_4  and  O_7
REMARK    3  A    between atoms: O_7  and  C_9
REMARK    4  A    between atoms: C_11  and  C_17
REMARK    5  A    between atoms: C_18  and  C_21
REMARK    6  A    between atoms: C_26  and  O_27
REMARK                            x       y       z     vdW  Elec       q    Type
REMARK                         _______ _______ _______ _____ _____    ______ ____
ROOT
ATOM      1  C   UNL     1      34.923 -16.224 -22.890  0.00  0.00    -0.019 C 
ATOM      2  C   UNL     1      35.618 -16.987 -21.952  0.00  0.00    +0.033 C 
ATOM      3  C   UNL     1      34.229 -16.851 -23.925  0.00  0.00    -0.004 C 
ATOM      4  C   UNL     1      35.621 -18.378 -22.049  0.00  0.00    +0.147 C 
ATOM      5  C   UNL     1      34.232 -18.243 -24.022  0.00  0.00    +0.003 C 
ATOM      6  C   UNL     1      34.927 -19.007 -23.084  0.00  0.00    +0.038 C 
ENDROOT
BRANCH   4   7
ATOM      7  O   UNL     1      36.300 -19.124 -21.136  0.00  0.00    -0.436 OA
BRANCH   7   9
ATOM      8  N   UNL     1      36.264 -20.761 -19.475  0.00  0.00    -0.210 NA
ATOM      9  C   UNL     1      35.567 -19.965 -20.317  0.00  0.00    +0.230 C 
ATOM     10  C   UNL     1      34.184 -19.946 -20.400  0.00  0.00    +0.058 C 
ATOM     11  C   UNL     1      34.152 -21.632 -18.685  0.00  0.00    +0.091 C 
ATOM     12  C   UNL     1      33.470 -20.799 -19.564  0.00  0.00    +0.010 C 
ATOM     13  C   UNL     1      35.536 -21.576 -18.678  0.00  0.00    +0.106 C 
BRANCH  11  17
ATOM     14  F   UNL     1      33.980 -22.678 -16.539  0.00  0.00    -0.166 F 
ATOM     15  F   UNL     1      32.122 -22.182 -17.544  0.00  0.00    -0.166 F 
ATOM     16  F   UNL     1      33.342 -23.829 -18.269  0.00  0.00    -0.166 F 
ATOM     17  C   UNL     1      33.417 -22.557 -17.779  0.00  0.00    +0.420 C 
ENDBRANCH  11  17
ENDBRANCH   7   9
ENDBRANCH   4   7
BRANCH   1  18
ATOM     18  C   UNL     1      34.922 -14.723 -22.788  0.00  0.00    +0.027 C 
BRANCH  18  21
ATOM     19  O   UNL     1      31.971 -10.856 -19.005  0.00  0.00    -0.226 OA
ATOM     20  N   UNL     1      32.029 -12.136 -20.947  0.00  0.00    -0.246 N 
ATOM     21  C   UNL     1      33.588 -14.196 -22.265  0.00  0.00    +0.008 C 
ATOM     22  C   UNL     1      33.640 -13.984 -20.744  0.00  0.00    +0.022 C 
ATOM     23  C   UNL     1      33.201 -12.888 -22.976  0.00  0.00    +0.022 C 
ATOM     24  C   UNL     1      32.341 -13.372 -20.223  0.00  0.00    +0.097 C 
ATOM     25  C   UNL     1      31.908 -12.311 -22.401  0.00  0.00    +0.097 C 
ATOM     26  C   UNL     1      31.868 -10.947 -20.229  0.00  0.00    +0.402 C 
BRANCH  26  27
ATOM     27  O   UNL     1      31.588  -9.830 -20.960  0.00  0.00    -0.466 OA
ATOM     28  H   UNL     1      30.708  -9.654 -21.226  0.00  0.00    +0.297 HD
ENDBRANCH  26  27
ENDBRANCH  18  21
ENDBRANCH   1  18
TORSDOF 6
ENDMDL
MODEL 3
REMARK VINA RESULT:     -11.2      5.386      8.804
REMARK  Name = 25243828
REMARK  6 active torsions:
REMARK  status: ('A' for Active; 'I' for Inactive)
REMARK    1  A    between atoms: C_1  and  C_18
REMARK    2  A    between atoms: C_4  and  O_7
REMARK    3  A    between atoms: O_7  and  C_9
REMARK    4  A    between atoms: C_11  and  C_17
REMARK    5  A    between atoms: C_18  and  C_21
REMARK    6  A    between atoms: C_26  and  O_27
REMARK                            x       y       z     vdW  Elec       q    Type
REMARK                         _______ _______ _______ _____ _____    ______ ____
ROOT
ATOM      1  C   UNL     1      33.631 -23.310 -14.736  0.00  0.00    -0.019 C 
ATOM      2  C   UNL     1      33.844 -23.397 -16.111  0.00  0.00    +0.033 C 
ATOM      3  C   UNL     1      32.366 -22.985 -14.245  0.00  0.00    -0.004 C 
ATOM      4  C   UNL     1      32.793 -23.158 -16.996  0.00  0.00    +0.147 C 
ATOM      5  C   UNL     1      31.315 -22.746 -15.130  0.00  0.00    +0.003 C 
ATOM      6  C   UNL     1      31.528 -22.833 -16.506  0.00  0.00    +0.038 C 
ENDROOT
BRANCH   4   7
ATOM      7  O   UNL     1      33.001 -23.241 -18.339  0.00  0.00    -0.436 OA
BRANCH   7   9
ATOM      8  N   UNL     1      35.037 -22.274 -18.936  0.00  0.00    -0.210 NA
ATOM      9  C   UNL     1      33.687 -22.205 -18.950  0.00  0.00    +0.230 C 
ATOM     10  C   UNL     1      32.968 -21.174 -19.533  0.00  0.00    +0.058 C 
ATOM     11  C   UNL     1      35.072 -20.183 -20.149  0.00  0.00    +0.091 C 
ATOM     12  C   UNL     1      33.682 -20.147 -20.142  0.00  0.00    +0.010 C 
ATOM     13  C   UNL     1      35.696 -21.258 -19.538  0.00  0.00    +0.106 C 
BRANCH  11  17
ATOM     14  F   UNL     1      35.426 -17.840 -20.481  0.00  0.00    -0.166 F 
ATOM     15  F   UNL     1      37.187 -19.107 -20.449  0.00  0.00    -0.166 F 
ATOM     16  F   UNL     1      35.840 -19.163 -22.155  0.00  0.00    -0.166 F 
ATOM     17  C   UNL     1      35.863 -19.098 -20.791  0.00  0.00    +0.420 C 
ENDBRANCH  11  17
ENDBRANCH   7   9
ENDBRANCH   4   7
BRANCH   1  18
ATOM     18  C   UNL     1      34.764 -23.565 -13.780  0.00  0.00    +0.027 C 
BRANCH  18  21
ATOM     19  O   UNL     1      40.727 -25.086 -13.467  0.00  0.00    -0.226 OA
ATOM     20  N   UNL     1      38.626 -25.327 -14.436  0.00  0.00    -0.246 N 
ATOM     21  C   UNL     1      35.999 -24.100 -14.500  0.00  0.00    +0.008 C 
ATOM     22  C   UNL     1      37.254 -23.312 -14.095  0.00  0.00    +0.022 C 
ATOM     23  C   UNL     1      36.190 -25.599 -14.216  0.00  0.00    +0.022 C 
ATOM     24  C   UNL     1      38.509 -23.898 -14.740  0.00  0.00    +0.097 C 
ATOM     25  C   UNL     1      37.469 -26.124 -14.867  0.00  0.00    +0.097 C 
ATOM     26  C   UNL     1      39.779 -25.797 -13.799  0.00  0.00    +0.402 C 
BRANCH  26  27
ATOM     27  O   UNL     1      39.823 -27.134 -13.535  0.00  0.00    -0.466 OA
ATOM     28  H   UNL     1      39.519 -27.458 -12.711  0.00  0.00    +0.297 HD
ENDBRANCH  26  27
ENDBRANCH  18  21
ENDBRANCH   1  18
TORSDOF 6
ENDMDL
MODEL 4
REMARK VINA RESULT:     -11.2      5.218      8.597
REMARK  Name = 25243828
REMARK  6 active torsions:
REMARK  status: ('A' for Active; 'I' for Inactive)
REMARK    1  A    between atoms: C_1  and  C_18
REMARK    2  A    between atoms: C_4  and  O_7
REMARK    3  A    between atoms: O_7  and  C_9
REMARK    4  A    between atoms: C_11  and  C_17
REMARK    5  A    between atoms: C_18  and  C_21
REMARK    6  A    between atoms: C_26  and  O_27
REMARK                            x       y       z     vdW  Elec       q    Type
REMARK                         _______ _______ _______ _____ _____    ______ ____
ROOT
ATOM      1  C   UNL     1      33.490 -23.962 -14.369  0.00  0.00    -0.019 C 
ATOM      2  C   UNL     1      33.138 -23.977 -15.718  0.00  0.00    +0.033 C 
ATOM      3  C   UNL     1      34.640 -23.291 -13.954  0.00  0.00    -0.004 C 
ATOM      4  C   UNL     1      33.938 -23.321 -16.654  0.00  0.00    +0.147 C 
ATOM      5  C   UNL     1      35.440 -22.635 -14.890  0.00  0.00    +0.003 C 
ATOM      6  C   UNL     1      35.089 -22.649 -16.240  0.00  0.00    +0.038 C 
ENDROOT
BRANCH   4   7
ATOM      7  O   UNL     1      33.597 -23.337 -17.972  0.00  0.00    -0.436 OA
BRANCH   7   9
ATOM      8  N   UNL     1      35.306 -22.138 -19.013  0.00  0.00    -0.210 NA
ATOM      9  C   UNL     1      33.985 -22.260 -18.750  0.00  0.00    +0.230 C 
ATOM     10  C   UNL     1      33.018 -21.381 -19.212  0.00  0.00    +0.058 C 
ATOM     11  C   UNL     1      34.783 -20.150 -20.286  0.00  0.00    +0.091 C 
ATOM     12  C   UNL     1      33.433 -20.309 -19.994  0.00  0.00    +0.010 C 
ATOM     13  C   UNL     1      35.671 -21.083 -19.776  0.00  0.00    +0.106 C 
BRANCH  11  17
ATOM     14  F   UNL     1      35.162 -17.797 -20.498  0.00  0.00    -0.166 F 
ATOM     15  F   UNL     1      36.570 -19.115 -21.493  0.00  0.00    -0.166 F 
ATOM     16  F   UNL     1      34.558 -18.881 -22.284  0.00  0.00    -0.166 F 
ATOM     17  C   UNL     1      35.258 -19.012 -21.119  0.00  0.00    +0.420 C 
ENDBRANCH  11  17
ENDBRANCH   7   9
ENDBRANCH   4   7
BRANCH   1  18
ATOM     18  C   UNL     1      32.629 -24.671 -13.358  0.00  0.00    +0.027 C 
BRANCH  18  21
ATOM     19  O   UNL     1      28.223 -22.074 -16.795  0.00  0.00    -0.226 OA
ATOM     20  N   UNL     1      28.875 -23.551 -15.120  0.00  0.00    -0.246 N 
ATOM     21  C   UNL     1      31.162 -24.269 -13.488  0.00  0.00    +0.008 C 
ATOM     22  C   UNL     1      31.029 -22.882 -14.136  0.00  0.00    +0.022 C 
ATOM     23  C   UNL     1      30.378 -25.317 -14.295  0.00  0.00    +0.022 C 
ATOM     24  C   UNL     1      29.563 -22.510 -14.353  0.00  0.00    +0.097 C 
ATOM     25  C   UNL     1      28.927 -24.882 -14.499  0.00  0.00    +0.097 C 
ATOM     26  C   UNL     1      28.245 -23.210 -16.321  0.00  0.00    +0.402 C 
BRANCH  26  27
ATOM     27  O   UNL     1      27.631 -24.226 -16.993  0.00  0.00    -0.466 OA
ATOM     28  H   UNL     1      26.908 -24.675 -16.603  0.00  0.00    +0.297 HD
ENDBRANCH  26  27
ENDBRANCH  18  21
ENDBRANCH   1  18
TORSDOF 6
ENDMDL
MODEL 5
REMARK VINA RESULT:     -10.9      4.552      9.288
REMARK  Name = 25243828
REMARK  6 active torsions:
REMARK  status: ('A' for Active; 'I' for Inactive)
REMARK    1  A    between atoms: C_1  and  C_18
REMARK    2  A    between atoms: C_4  and  O_7
REMARK    3  A    between atoms: O_7  and  C_9
REMARK    4  A    between atoms: C_11  and  C_17
REMARK    5  A    between atoms: C_18  and  C_21
REMARK    6  A    between atoms: C_26  and  O_27
REMARK                            x       y       z     vdW  Elec       q    Type
REMARK                         _______ _______ _______ _____ _____    ______ ____
ROOT
ATOM      1  C   UNL     1      34.433 -15.135 -22.288  0.00  0.00    -0.019 C 
ATOM      2  C   UNL     1      35.200 -16.194 -21.804  0.00  0.00    +0.033 C 
ATOM      3  C   UNL     1      33.911 -15.185 -23.581  0.00  0.00    -0.004 C 
ATOM      4  C   UNL     1      35.447 -17.304 -22.613  0.00  0.00    +0.147 C 
ATOM      5  C   UNL     1      34.157 -16.295 -24.390  0.00  0.00    +0.003 C 
ATOM      6  C   UNL     1      34.924 -17.355 -23.906  0.00  0.00    +0.038 C 
ENDROOT
BRANCH   4   7
ATOM      7  O   UNL     1      36.197 -18.337 -22.143  0.00  0.00    -0.436 OA
BRANCH   7   9
ATOM      8  N   UNL     1      36.395 -19.838 -20.368  0.00  0.00    -0.210 NA
ATOM      9  C   UNL     1      35.594 -19.227 -21.270  0.00  0.00    +0.230 C 
ATOM     10  C   UNL     1      34.228 -19.437 -21.363  0.00  0.00    +0.058 C 
ATOM     11  C   UNL     1      34.437 -20.982 -19.531  0.00  0.00    +0.091 C 
ATOM     12  C   UNL     1      33.645 -20.333 -20.472  0.00  0.00    +0.010 C 
ATOM     13  C   UNL     1      35.794 -20.703 -19.520  0.00  0.00    +0.106 C 
BRANCH  11  17
ATOM     14  F   UNL     1      32.607 -21.582 -18.111  0.00  0.00    -0.166 F 
ATOM     15  F   UNL     1      33.674 -23.204 -19.079  0.00  0.00    -0.166 F 
ATOM     16  F   UNL     1      34.608 -22.113 -17.446  0.00  0.00    -0.166 F 
ATOM     17  C   UNL     1      33.844 -21.947 -18.566  0.00  0.00    +0.420 C 
ENDBRANCH  11  17
ENDBRANCH   7   9
ENDBRANCH   4   7
BRANCH   1  18
ATOM     18  C   UNL     1      34.168 -13.937 -21.418  0.00  0.00    +0.027 C 
BRANCH  18  21
ATOM     19  O   UNL     1      31.586  -8.343 -21.356  0.00  0.00    -0.226 OA
ATOM     20  N   UNL     1      32.341 -10.210 -22.521  0.00  0.00    -0.246 N 
ATOM     21  C   UNL     1      33.248 -12.933 -22.107  0.00  0.00    +0.008 C 
ATOM     22  C   UNL     1      32.366 -12.205 -21.081  0.00  0.00    +0.022 C 
ATOM     23  C   UNL     1      34.062 -11.921 -22.930  0.00  0.00    +0.022 C 
ATOM     24  C   UNL     1      31.505 -11.133 -21.750  0.00  0.00    +0.097 C 
ATOM     25  C   UNL     1      33.154 -10.863 -23.556  0.00  0.00    +0.097 C 
ATOM     26  C   UNL     1      32.294  -8.843 -22.230  0.00  0.00    +0.402 C 
BRANCH  26  27
ATOM     27  O   UNL     1      33.102  -8.036 -22.977  0.00  0.00    -0.466 OA
ATOM     28  H   UNL     1      33.630  -7.386 -22.557  0.00  0.00    +0.297 HD
ENDBRANCH  26  27
ENDBRANCH  18  21
ENDBRANCH   1  18
TORSDOF 6
ENDMDL
MODEL 6
REMARK VINA RESULT:     -10.8      5.332      8.716
REMARK  Name = 25243828
REMARK  6 active torsions:
REMARK  status: ('A' for Active; 'I' for Inactive)
REMARK    1  A    between atoms: C_1  and  C_18
REMARK    2  A    between atoms: C_4  and  O_7
REMARK    3  A    between atoms: O_7  and  C_9
REMARK    4  A    between atoms: C_11  and  C_17
REMARK    5  A    between atoms: C_18  and  C_21
REMARK    6  A    between atoms: C_26  and  O_27
REMARK                            x       y       z     vdW  Elec       q    Type
REMARK                         _______ _______ _______ _____ _____    ______ ____
ROOT
ATOM      1  C   UNL     1      34.586 -23.048 -14.832  0.00  0.00    -0.019 C 
ATOM      2  C   UNL     1      34.534 -23.075 -16.225  0.00  0.00    +0.033 C 
ATOM      3  C   UNL     1      33.407 -23.104 -14.088  0.00  0.00    -0.004 C 
ATOM      4  C   UNL     1      33.303 -23.158 -16.875  0.00  0.00    +0.147 C 
ATOM      5  C   UNL     1      32.176 -23.186 -14.738  0.00  0.00    +0.003 C 
ATOM      6  C   UNL     1      32.123 -23.214 -16.132  0.00  0.00    +0.038 C 
ENDROOT
BRANCH   4   7
ATOM      7  O   UNL     1      33.251 -23.182 -18.235  0.00  0.00    -0.436 OA
BRANCH   7   9
ATOM      8  N   UNL     1      35.217 -22.197 -19.013  0.00  0.00    -0.210 NA
ATOM      9  C   UNL     1      33.869 -22.151 -18.922  0.00  0.00    +0.230 C 
ATOM     10  C   UNL     1      33.089 -21.147 -19.472  0.00  0.00    +0.058 C 
ATOM     11  C   UNL     1      35.120 -20.138 -20.274  0.00  0.00    +0.091 C 
ATOM     12  C   UNL     1      33.734 -20.124 -20.160  0.00  0.00    +0.010 C 
ATOM     13  C   UNL     1      35.809 -21.187 -19.688  0.00  0.00    +0.106 C 
BRANCH  11  17
ATOM     14  F   UNL     1      35.470 -17.797 -20.621  0.00  0.00    -0.166 F 
ATOM     15  F   UNL     1      37.196 -19.093 -20.838  0.00  0.00    -0.166 F 
ATOM     16  F   UNL     1      35.635 -19.102 -22.352  0.00  0.00    -0.166 F 
ATOM     17  C   UNL     1      35.839 -19.057 -21.002  0.00  0.00    +0.420 C 
ENDBRANCH  11  17
ENDBRANCH   7   9
ENDBRANCH   4   7
BRANCH   1  18
ATOM     18  C   UNL     1      35.913 -22.957 -14.129  0.00  0.00    +0.027 C 
BRANCH  18  21
ATOM     19  O   UNL     1      37.130 -28.549 -16.414  0.00  0.00    -0.226 OA
ATOM     20  N   UNL     1      37.624 -26.811 -14.948  0.00  0.00    -0.246 N 
ATOM     21  C   UNL     1      36.528 -24.336 -13.906  0.00  0.00    +0.008 C 
ATOM     22  C   UNL     1      35.633 -25.437 -14.497  0.00  0.00    +0.022 C 
ATOM     23  C   UNL     1      37.940 -24.410 -14.511  0.00  0.00    +0.022 C 
ATOM     24  C   UNL     1      36.282 -26.813 -14.360  0.00  0.00    +0.097 C 
ATOM     25  C   UNL     1      38.529 -25.812 -14.364  0.00  0.00    +0.097 C 
ATOM     26  C   UNL     1      37.925 -27.723 -15.964  0.00  0.00    +0.402 C 
BRANCH  26  27
ATOM     27  O   UNL     1      39.187 -27.664 -16.478  0.00  0.00    -0.466 OA
ATOM     28  H   UNL     1      39.316 -27.428 -17.375  0.00  0.00    +0.297 HD
ENDBRANCH  26  27
ENDBRANCH  18  21
ENDBRANCH   1  18
TORSDOF 6
ENDMDL
MODEL 7
REMARK VINA RESULT:     -10.6      5.421     10.863
REMARK  Name = 25243828
REMARK  6 active torsions:
REMARK  status: ('A' for Active; 'I' for Inactive)
REMARK    1  A    between atoms: C_1  and  C_18
REMARK    2  A    between atoms: C_4  and  O_7
REMARK    3  A    between atoms: O_7  and  C_9
REMARK    4  A    between atoms: C_11  and  C_17
REMARK    5  A    between atoms: C_18  and  C_21
REMARK    6  A    between atoms: C_26  and  O_27
REMARK                            x       y       z     vdW  Elec       q    Type
REMARK                         _______ _______ _______ _____ _____    ______ ____
ROOT
ATOM      1  C   UNL     1      34.576 -10.297 -24.431  0.00  0.00    -0.019 C 
ATOM      2  C   UNL     1      33.848 -11.475 -24.266  0.00  0.00    +0.033 C 
ATOM      3  C   UNL     1      35.285 -10.075 -25.611  0.00  0.00    -0.004 C 
ATOM      4  C   UNL     1      33.829 -12.432 -25.281  0.00  0.00    +0.147 C 
ATOM      5  C   UNL     1      35.267 -11.031 -26.627  0.00  0.00    +0.003 C 
ATOM      6  C   UNL     1      34.538 -12.210 -26.462  0.00  0.00    +0.038 C 
ENDROOT
BRANCH   4   7
ATOM      7  O   UNL     1      33.121 -13.582 -25.120  0.00  0.00    -0.436 OA
BRANCH   7   9
ATOM      8  N   UNL     1      33.859 -15.792 -24.998  0.00  0.00    -0.210 NA
ATOM      9  C   UNL     1      33.702 -14.599 -24.381  0.00  0.00    +0.230 C 
ATOM     10  C   UNL     1      34.087 -14.345 -23.075  0.00  0.00    +0.058 C 
ATOM     11  C   UNL     1      34.849 -16.623 -22.956  0.00  0.00    +0.091 C 
ATOM     12  C   UNL     1      34.672 -15.382 -22.355  0.00  0.00    +0.010 C 
ATOM     13  C   UNL     1      34.430 -16.776 -24.267  0.00  0.00    +0.106 C 
BRANCH  11  17
ATOM     14  F   UNL     1      36.595 -18.252 -22.806  0.00  0.00    -0.166 F 
ATOM     15  F   UNL     1      35.857 -17.427 -20.940  0.00  0.00    -0.166 F 
ATOM     16  F   UNL     1      34.629 -18.820 -22.072  0.00  0.00    -0.166 F 
ATOM     17  C   UNL     1      35.469 -17.752 -22.211  0.00  0.00    +0.420 C 
ENDBRANCH  11  17
ENDBRANCH   7   9
ENDBRANCH   4   7
BRANCH   1  18
ATOM     18  C   UNL     1      34.599  -9.266 -23.336  0.00  0.00    +0.027 C 
BRANCH  18  21
ATOM     19  O   UNL     1      30.275  -5.223 -21.624  0.00  0.00    -0.226 OA
ATOM     20  N   UNL     1      32.133  -5.774 -22.912  0.00  0.00    -0.246 N 
ATOM     21  C   UNL     1      33.760  -8.042 -23.698  0.00  0.00    +0.008 C 
ATOM     22  C   UNL     1      32.310  -8.210 -23.215  0.00  0.00    +0.022 C 
ATOM     23  C   UNL     1      34.377  -6.763 -23.110  0.00  0.00    +0.022 C 
ATOM     24  C   UNL     1      31.485  -6.954 -23.492  0.00  0.00    +0.097 C 
ATOM     25  C   UNL     1      33.500  -5.546 -23.398  0.00  0.00    +0.097 C 
ATOM     26  C   UNL     1      31.427  -4.992 -21.992  0.00  0.00    +0.402 C 
BRANCH  26  27
ATOM     27  O   UNL     1      32.088  -3.914 -21.481  0.00  0.00    -0.466 OA
ATOM     28  H   UNL     1      32.878  -4.037 -20.994  0.00  0.00    +0.297 HD
ENDBRANCH  26  27
ENDBRANCH  18  21
ENDBRANCH   1  18
TORSDOF 6
ENDMDL
MODEL 8
REMARK VINA RESULT:     -10.5      5.490     11.091
REMARK  Name = 25243828
REMARK  6 active torsions:
REMARK  status: ('A' for Active; 'I' for Inactive)
REMARK    1  A    between atoms: C_1  and  C_18
REMARK    2  A    between atoms: C_4  and  O_7
REMARK    3  A    between atoms: O_7  and  C_9
REMARK    4  A    between atoms: C_11  and  C_17
REMARK    5  A    between atoms: C_18  and  C_21
REMARK    6  A    between atoms: C_26  and  O_27
REMARK                            x       y       z     vdW  Elec       q    Type
REMARK                         _______ _______ _______ _____ _____    ______ ____
ROOT
ATOM      1  C   UNL     1      33.464 -10.661 -23.132  0.00  0.00    -0.019 C 
ATOM      2  C   UNL     1      33.867 -11.655 -24.023  0.00  0.00    +0.033 C 
ATOM      3  C   UNL     1      32.634 -10.981 -22.057  0.00  0.00    -0.004 C 
ATOM      4  C   UNL     1      33.440 -12.971 -23.839  0.00  0.00    +0.147 C 
ATOM      5  C   UNL     1      32.207 -12.296 -21.874  0.00  0.00    +0.003 C 
ATOM      6  C   UNL     1      32.611 -13.292 -22.764  0.00  0.00    +0.038 C 
ENDROOT
BRANCH   4   7
ATOM      7  O   UNL     1      33.831 -13.942 -24.709  0.00  0.00    -0.436 OA
BRANCH   7   9
ATOM      8  N   UNL     1      33.783 -16.267 -24.891  0.00  0.00    -0.210 NA
ATOM      9  C   UNL     1      34.166 -15.179 -24.186  0.00  0.00    +0.230 C 
ATOM     10  C   UNL     1      34.865 -15.236 -22.991  0.00  0.00    +0.058 C 
ATOM     11  C   UNL     1      34.815 -17.633 -23.185  0.00  0.00    +0.091 C 
ATOM     12  C   UNL     1      35.192 -16.491 -22.487  0.00  0.00    +0.010 C 
ATOM     13  C   UNL     1      34.118 -17.469 -24.370  0.00  0.00    +0.106 C 
BRANCH  11  17
ATOM     14  F   UNL     1      34.281 -19.446 -21.717  0.00  0.00    -0.166 F 
ATOM     15  F   UNL     1      35.152 -19.957 -23.637  0.00  0.00    -0.166 F 
ATOM     16  F   UNL     1      36.385 -19.047 -22.094  0.00  0.00    -0.166 F 
ATOM     17  C   UNL     1      35.148 -18.989 -22.671  0.00  0.00    +0.420 C 
ENDBRANCH  11  17
ENDBRANCH   7   9
ENDBRANCH   4   7
BRANCH   1  18
ATOM     18  C   UNL     1      33.922  -9.242 -23.330  0.00  0.00    +0.027 C 
BRANCH  18  21
ATOM     19  O   UNL     1      32.339  -3.352 -22.450  0.00  0.00    -0.226 OA
ATOM     20  N   UNL     1      31.773  -5.607 -22.545  0.00  0.00    -0.246 N 
ATOM     21  C   UNL     1      32.967  -8.246 -22.676  0.00  0.00    +0.008 C 
ATOM     22  C   UNL     1      33.733  -7.033 -22.126  0.00  0.00    +0.022 C 
ATOM     23  C   UNL     1      31.886  -7.791 -23.671  0.00  0.00    +0.022 C 
ATOM     24  C   UNL     1      32.778  -5.988 -21.550  0.00  0.00    +0.097 C 
ATOM     25  C   UNL     1      30.976  -6.733 -23.050  0.00  0.00    +0.097 C 
ATOM     26  C   UNL     1      31.650  -4.262 -22.911  0.00  0.00    +0.402 C 
BRANCH  26  27
ATOM     27  O   UNL     1      30.703  -3.973 -23.848  0.00  0.00    -0.466 OA
ATOM     28  H   UNL     1      30.681  -3.124 -24.244  0.00  0.00    +0.297 HD
ENDBRANCH  26  27
ENDBRANCH  18  21
ENDBRANCH   1  18
TORSDOF 6
ENDMDL
MODEL 9
REMARK VINA RESULT:     -10.5      4.858      9.390
REMARK  Name = 25243828
REMARK  6 active torsions:
REMARK  status: ('A' for Active; 'I' for Inactive)
REMARK    1  A    between atoms: C_1  and  C_18
REMARK    2  A    between atoms: C_4  and  O_7
REMARK    3  A    between atoms: O_7  and  C_9
REMARK    4  A    between atoms: C_11  and  C_17
REMARK    5  A    between atoms: C_18  and  C_21
REMARK    6  A    between atoms: C_26  and  O_27
REMARK                            x       y       z     vdW  Elec       q    Type
REMARK                         _______ _______ _______ _____ _____    ______ ____
ROOT
ATOM      1  C   UNL     1      34.687 -20.912 -19.425  0.00  0.00    -0.019 C 
ATOM      2  C   UNL     1      34.143 -21.869 -18.569  0.00  0.00    +0.033 C 
ATOM      3  C   UNL     1      36.022 -20.531 -19.287  0.00  0.00    -0.004 C 
ATOM      4  C   UNL     1      34.934 -22.445 -17.574  0.00  0.00    +0.147 C 
ATOM      5  C   UNL     1      36.813 -21.107 -18.293  0.00  0.00    +0.003 C 
ATOM      6  C   UNL     1      36.269 -22.065 -17.436  0.00  0.00    +0.038 C 
ENDROOT
BRANCH   4   7
ATOM      7  O   UNL     1      34.403 -23.378 -16.737  0.00  0.00    -0.436 OA
BRANCH   7   9
ATOM      8  N   UNL     1      32.177 -22.925 -17.266  0.00  0.00    -0.210 NA
ATOM      9  C   UNL     1      33.097 -23.195 -16.313  0.00  0.00    +0.230 C 
ATOM     10  C   UNL     1      32.809 -23.297 -14.962  0.00  0.00    +0.058 C 
ATOM     11  C   UNL     1      30.514 -22.833 -15.513  0.00  0.00    +0.091 C 
ATOM     12  C   UNL     1      31.489 -23.112 -14.563  0.00  0.00    +0.010 C 
ATOM     13  C   UNL     1      30.905 -22.751 -16.840  0.00  0.00    +0.106 C 
BRANCH  11  17
ATOM     14  F   UNL     1      28.936 -21.788 -14.049  0.00  0.00    -0.166 F 
ATOM     15  F   UNL     1      28.319 -22.090 -16.107  0.00  0.00    -0.166 F 
ATOM     16  F   UNL     1      28.472 -23.790 -14.760  0.00  0.00    -0.166 F 
ATOM     17  C   UNL     1      29.095 -22.628 -15.117  0.00  0.00    +0.420 C 
ENDBRANCH  11  17
ENDBRANCH   7   9
ENDBRANCH   4   7
BRANCH   1  18
ATOM     18  C   UNL     1      33.836 -20.288 -20.496  0.00  0.00    +0.027 C 
BRANCH  18  21
ATOM     19  O   UNL     1      34.041 -16.057 -24.972  0.00  0.00    -0.226 OA
ATOM     20  N   UNL     1      35.081 -17.250 -23.266  0.00  0.00    -0.246 N 
ATOM     21  C   UNL     1      34.681 -19.527 -21.515  0.00  0.00    +0.008 C 
ATOM     22  C   UNL     1      33.934 -19.388 -22.851  0.00  0.00    +0.022 C 
ATOM     23  C   UNL     1      35.075 -18.143 -20.973  0.00  0.00    +0.022 C 
ATOM     24  C   UNL     1      34.733 -18.549 -23.848  0.00  0.00    +0.097 C 
ATOM     25  C   UNL     1      35.851 -17.343 -22.018  0.00  0.00    +0.097 C 
ATOM     26  C   UNL     1      34.679 -16.081 -23.919  0.00  0.00    +0.402 C 
BRANCH  26  27
ATOM     27  O   UNL     1      35.025 -14.904 -23.323  0.00  0.00    -0.466 OA
ATOM     28  H   UNL     1      35.790 -14.444 -23.605  0.00  0.00    +0.297 HD
ENDBRANCH  26  27
ENDBRANCH  18  21
ENDBRANCH   1  18
TORSDOF 6
ENDMDL
