MODEL 1
REMARK VINA RESULT:     -11.1      0.000      0.000
REMARK  Name = 656913
REMARK  7 active torsions:
REMARK  status: ('A' for Active; 'I' for Inactive)
REMARK    1  A    between atoms: N_3  and  C_22
REMARK    2  A    between atoms: N_4  and  C_11
REMARK    3  A    between atoms: C_11  and  C_14
REMARK    4  A    between atoms: C_14  and  C_17
REMARK    5  A    between atoms: C_22  and  C_25
REMARK    6  A    between atoms: N_24  and  C_27
REMARK    7  A    between atoms: C_27  and  C_29
REMARK                            x       y       z     vdW  Elec       q    Type
REMARK                         _______ _______ _______ _____ _____    ______ ____
ROOT
ATOM      1 CL   UNL     1      33.183 -12.745 -25.985  0.00  0.00    -0.064 Cl
ATOM      2  O   UNL     1      34.982 -13.999 -21.463  0.00  0.00    -0.266 OA
ATOM      3  N   UNL     1      34.141 -13.377 -23.563  0.00  0.00    -0.233 N 
ATOM      4  N   UNL     1      35.050 -16.626 -22.052  0.00  0.00    -0.310 N 
ATOM      5  N   UNL     1      34.211 -16.122 -24.181  0.00  0.00    -0.223 NA
ATOM      6  C   UNL     1      34.605 -15.740 -23.000  0.00  0.00    +0.183 C 
ATOM      7  C   UNL     1      34.595 -14.272 -22.594  0.00  0.00    +0.285 C 
ATOM      8  C   UNL     1      33.741 -13.857 -24.794  0.00  0.00    +0.133 C 
ATOM      9  C   UNL     1      33.786 -15.166 -25.058  0.00  0.00    +0.127 C 
ATOM     10  H   UNL     1      35.336 -16.281 -21.174  0.00  0.00    +0.149 HD
ENDROOT
BRANCH   4  11
ATOM     11  C   UNL     1      35.114 -18.033 -22.293  0.00  0.00    +0.162 C 
BRANCH  11  14
ATOM     12  F   UNL     1      36.290 -17.776 -20.277  0.00  0.00    -0.196 F 
ATOM     13  F   UNL     1      36.964 -19.322 -21.642  0.00  0.00    -0.196 F 
ATOM     14  C   UNL     1      35.838 -18.732 -21.143  0.00  0.00    +0.317 C 
BRANCH  14  17
ATOM     15  O   UNL     1      36.745 -20.547 -19.279  0.00  0.00    -0.163 OA
ATOM     16  N   UNL     1      35.499 -20.583 -19.552  0.00  0.00    -0.128 N 
ATOM     17  C   UNL     1      34.931 -19.729 -20.463  0.00  0.00    +0.142 C 
ATOM     18  C   UNL     1      33.583 -19.756 -20.766  0.00  0.00    +0.022 C 
ATOM     19  C   UNL     1      34.684 -21.502 -18.920  0.00  0.00    +0.121 C 
ATOM     20  C   UNL     1      32.771 -20.685 -20.124  0.00  0.00    +0.003 C 
ATOM     21  C   UNL     1      33.322 -21.563 -19.196  0.00  0.00    +0.022 C 
ENDBRANCH  14  17
ENDBRANCH  11  14
ENDBRANCH   4  11
BRANCH   3  22
ATOM     22  C   UNL     1      34.101 -11.953 -23.247  0.00  0.00    +0.184 C 
BRANCH  22  25
ATOM     23  O   UNL     1      32.018 -12.493 -22.146  0.00  0.00    -0.273 OA
ATOM     24  N   UNL     1      32.631 -10.264 -22.384  0.00  0.00    -0.299 N 
ATOM     25  C   UNL     1      32.812 -11.632 -22.520  0.00  0.00    +0.243 C 
ATOM     26  H   UNL     1      33.336  -9.664 -22.721  0.00  0.00    +0.150 HD
BRANCH  24  27
ATOM     27  C   UNL     1      31.461  -9.674 -21.772  0.00  0.00    +0.119 C 
BRANCH  27  29
ATOM     28  F   UNL     1      32.624  -8.739 -19.371  0.00  0.00    -0.204 F 
ATOM     29  C   UNL     1      31.657  -8.215 -21.476  0.00  0.00    +0.025 C 
ATOM     30  C   UNL     1      32.237  -7.826 -20.274  0.00  0.00    +0.138 C 
ATOM     31  C   UNL     1      31.255  -7.268 -22.410  0.00  0.00    -0.000 C 
ATOM     32  C   UNL     1      32.417  -6.471 -20.002  0.00  0.00    +0.029 C 
ATOM     33  C   UNL     1      31.436  -5.912 -22.138  0.00  0.00    -0.000 C 
ATOM     34  C   UNL     1      32.017  -5.513 -20.934  0.00  0.00    +0.002 C 
ENDBRANCH  27  29
ENDBRANCH  24  27
ENDBRANCH  22  25
ENDBRANCH   3  22
TORSDOF 7
ENDMDL
MODEL 2
REMARK VINA RESULT:     -10.9      3.253      4.596
REMARK  Name = 656913
REMARK  7 active torsions:
REMARK  status: ('A' for Active; 'I' for Inactive)
REMARK    1  A    between atoms: N_3  and  C_22
REMARK    2  A    between atoms: N_4  and  C_11
REMARK    3  A    between atoms: C_11  and  C_14
REMARK    4  A    between atoms: C_14  and  C_17
REMARK    5  A    between atoms: C_22  and  C_25
REMARK    6  A    between atoms: N_24  and  C_27
REMARK    7  A    between atoms: C_27  and  C_29
REMARK                            x       y       z     vdW  Elec       q    Type
REMARK                         _______ _______ _______ _____ _____    ______ ____
ROOT
ATOM      1 CL   UNL     1      30.756 -10.348 -19.675  0.00  0.00    -0.064 Cl
ATOM      2  O   UNL     1      33.470 -11.028 -23.849  0.00  0.00    -0.266 OA
ATOM      3  N   UNL     1      32.193 -10.677 -21.914  0.00  0.00    -0.233 N 
ATOM      4  N   UNL     1      34.368 -13.440 -23.054  0.00  0.00    -0.310 N 
ATOM      5  N   UNL     1      33.129 -13.196 -21.079  0.00  0.00    -0.223 NA
ATOM      6  C   UNL     1      33.519 -12.739 -22.235  0.00  0.00    +0.183 C 
ATOM      7  C   UNL     1      33.055 -11.384 -22.752  0.00  0.00    +0.285 C 
ATOM      8  C   UNL     1      31.822 -11.227 -20.703  0.00  0.00    +0.133 C 
ATOM      9  C   UNL     1      32.283 -12.427 -20.335  0.00  0.00    +0.127 C 
ATOM     10  H   UNL     1      34.630 -13.045 -23.918  0.00  0.00    +0.149 HD
ENDROOT
BRANCH   4  11
ATOM     11  C   UNL     1      34.883 -14.724 -22.698  0.00  0.00    +0.162 C 
BRANCH  11  14
ATOM     12  F   UNL     1      35.241 -15.521 -24.877  0.00  0.00    -0.196 F 
ATOM     13  F   UNL     1      33.205 -15.527 -24.129  0.00  0.00    -0.196 F 
ATOM     14  C   UNL     1      34.497 -15.758 -23.756  0.00  0.00    +0.317 C 
BRANCH  14  17
ATOM     15  O   UNL     1      33.384 -17.970 -24.963  0.00  0.00    -0.163 OA
ATOM     16  N   UNL     1      34.088 -18.183 -23.920  0.00  0.00    -0.128 N 
ATOM     17  C   UNL     1      34.693 -17.160 -23.233  0.00  0.00    +0.142 C 
ATOM     18  C   UNL     1      35.459 -17.377 -22.104  0.00  0.00    +0.022 C 
ATOM     19  C   UNL     1      34.256 -19.473 -23.456  0.00  0.00    +0.121 C 
ATOM     20  C   UNL     1      35.622 -18.680 -21.645  0.00  0.00    +0.003 C 
ATOM     21  C   UNL     1      35.019 -19.735 -22.323  0.00  0.00    +0.022 C 
ENDBRANCH  14  17
ENDBRANCH  11  14
ENDBRANCH   4  11
BRANCH   3  22
ATOM     22  C   UNL     1      31.707  -9.369 -22.340  0.00  0.00    +0.184 C 
BRANCH  22  25
ATOM     23  O   UNL     1      32.779  -7.833 -20.813  0.00  0.00    -0.273 OA
ATOM     24  N   UNL     1      33.477  -7.903 -23.029  0.00  0.00    -0.299 N 
ATOM     25  C   UNL     1      32.707  -8.303 -21.946  0.00  0.00    +0.243 C 
ATOM     26  H   UNL     1      33.335  -8.350 -23.894  0.00  0.00    +0.150 HD
BRANCH  24  27
ATOM     27  C   UNL     1      34.479  -6.863 -22.949  0.00  0.00    +0.119 C 
BRANCH  27  29
ATOM     28  F   UNL     1      32.381  -5.075 -22.325  0.00  0.00    -0.204 F 
ATOM     29  C   UNL     1      34.132  -5.682 -23.809  0.00  0.00    +0.025 C 
ATOM     30  C   UNL     1      33.087  -4.843 -23.440  0.00  0.00    +0.138 C 
ATOM     31  C   UNL     1      34.863  -5.440 -24.966  0.00  0.00    -0.000 C 
ATOM     32  C   UNL     1      32.768  -3.747 -24.241  0.00  0.00    +0.029 C 
ATOM     33  C   UNL     1      34.544  -4.343 -25.766  0.00  0.00    -0.000 C 
ATOM     34  C   UNL     1      33.497  -3.497 -25.404  0.00  0.00    +0.002 C 
ENDBRANCH  27  29
ENDBRANCH  24  27
ENDBRANCH  22  25
ENDBRANCH   3  22
TORSDOF 7
ENDMDL
MODEL 3
REMARK VINA RESULT:     -10.8      8.530     12.207
REMARK  Name = 656913
REMARK  7 active torsions:
REMARK  status: ('A' for Active; 'I' for Inactive)
REMARK    1  A    between atoms: N_3  and  C_22
REMARK    2  A    between atoms: N_4  and  C_11
REMARK    3  A    between atoms: C_11  and  C_14
REMARK    4  A    between atoms: C_14  and  C_17
REMARK    5  A    between atoms: C_22  and  C_25
REMARK    6  A    between atoms: N_24  and  C_27
REMARK    7  A    between atoms: C_27  and  C_29
REMARK                            x       y       z     vdW  Elec       q    Type
REMARK                         _______ _______ _______ _____ _____    ______ ____
ROOT
ATOM      1 CL   UNL     1      29.746 -24.132 -15.683  0.00  0.00    -0.064 Cl
ATOM      2  O   UNL     1      34.486 -22.523 -15.227  0.00  0.00    -0.266 OA
ATOM      3  N   UNL     1      32.271 -23.255 -15.473  0.00  0.00    -0.233 N 
ATOM      4  N   UNL     1      34.821 -23.717 -12.837  0.00  0.00    -0.310 N 
ATOM      5  N   UNL     1      32.617 -24.504 -12.975  0.00  0.00    -0.223 NA
ATOM      6  C   UNL     1      33.614 -23.834 -13.480  0.00  0.00    +0.183 C 
ATOM      7  C   UNL     1      33.501 -23.132 -14.826  0.00  0.00    +0.285 C 
ATOM      8  C   UNL     1      31.261 -23.983 -14.876  0.00  0.00    +0.133 C 
ATOM      9  C   UNL     1      31.456 -24.565 -13.689  0.00  0.00    +0.127 C 
ATOM     10  H   UNL     1      35.540 -23.198 -13.265  0.00  0.00    +0.149 HD
ENDROOT
BRANCH   4  11
ATOM     11  C   UNL     1      35.070 -24.323 -11.567  0.00  0.00    +0.162 C 
BRANCH  11  14
ATOM     12  F   UNL     1      36.732 -24.700  -9.952  0.00  0.00    -0.196 F 
ATOM     13  F   UNL     1      36.909 -22.918 -11.176  0.00  0.00    -0.196 F 
ATOM     14  C   UNL     1      36.557 -24.236 -11.225  0.00  0.00    +0.317 C 
BRANCH  14  17
ATOM     15  O   UNL     1      37.770 -23.042 -13.392  0.00  0.00    -0.163 OA
ATOM     16  N   UNL     1      37.939 -24.300 -13.265  0.00  0.00    -0.128 N 
ATOM     17  C   UNL     1      37.385 -25.005 -12.226  0.00  0.00    +0.142 C 
ATOM     18  C   UNL     1      37.562 -26.367 -12.076  0.00  0.00    +0.022 C 
ATOM     19  C   UNL     1      38.700 -24.988 -14.191  0.00  0.00    +0.121 C 
ATOM     20  C   UNL     1      38.330 -27.050 -13.014  0.00  0.00    +0.003 C 
ATOM     21  C   UNL     1      38.903 -26.359 -14.077  0.00  0.00    +0.022 C 
ENDBRANCH  14  17
ENDBRANCH  11  14
ENDBRANCH   4  11
BRANCH   3  22
ATOM     22  C   UNL     1      32.085 -22.608 -16.767  0.00  0.00    +0.184 C 
BRANCH  22  25
ATOM     23  O   UNL     1      33.417 -24.215 -17.986  0.00  0.00    -0.273 OA
ATOM     24  N   UNL     1      33.917 -21.953 -18.172  0.00  0.00    -0.299 N 
ATOM     25  C   UNL     1      33.187 -23.039 -17.712  0.00  0.00    +0.243 C 
ATOM     26  H   UNL     1      33.643 -21.051 -17.887  0.00  0.00    +0.150 HD
BRANCH  24  27
ATOM     27  C   UNL     1      35.059 -22.078 -19.050  0.00  0.00    +0.119 C 
BRANCH  27  29
ATOM     28  F   UNL     1      33.076 -20.639 -20.458  0.00  0.00    -0.204 F 
ATOM     29  C   UNL     1      35.347 -20.800 -19.783  0.00  0.00    +0.025 C 
ATOM     30  C   UNL     1      34.322 -20.144 -20.455  0.00  0.00    +0.138 C 
ATOM     31  C   UNL     1      36.639 -20.287 -19.783  0.00  0.00    -0.000 C 
ATOM     32  C   UNL     1      34.593 -18.957 -21.135  0.00  0.00    +0.029 C 
ATOM     33  C   UNL     1      36.909 -19.100 -20.463  0.00  0.00    -0.000 C 
ATOM     34  C   UNL     1      35.887 -18.435 -21.139  0.00  0.00    +0.002 C 
ENDBRANCH  27  29
ENDBRANCH  24  27
ENDBRANCH  22  25
ENDBRANCH   3  22
TORSDOF 7
ENDMDL
MODEL 4
REMARK VINA RESULT:     -10.7      2.200      2.564
REMARK  Name = 656913
REMARK  7 active torsions:
REMARK  status: ('A' for Active; 'I' for Inactive)
REMARK    1  A    between atoms: N_3  and  C_22
REMARK    2  A    between atoms: N_4  and  C_11
REMARK    3  A    between atoms: C_11  and  C_14
REMARK    4  A    between atoms: C_14  and  C_17
REMARK    5  A    between atoms: C_22  and  C_25
REMARK    6  A    between atoms: N_24  and  C_27
REMARK    7  A    between atoms: C_27  and  C_29
REMARK                            x       y       z     vdW  Elec       q    Type
REMARK                         _______ _______ _______ _____ _____    ______ ____
ROOT
ATOM      1 CL   UNL     1      31.769 -11.110 -21.103  0.00  0.00    -0.064 Cl
ATOM      2  O   UNL     1      34.329 -14.012 -24.309  0.00  0.00    -0.266 OA
ATOM      3  N   UNL     1      33.128 -12.633 -22.841  0.00  0.00    -0.233 N 
ATOM      4  N   UNL     1      34.974 -15.805 -22.407  0.00  0.00    -0.310 N 
ATOM      5  N   UNL     1      33.799 -14.505 -20.850  0.00  0.00    -0.223 NA
ATOM      6  C   UNL     1      34.219 -14.712 -22.066  0.00  0.00    +0.183 C 
ATOM      7  C   UNL     1      33.895 -13.743 -23.195  0.00  0.00    +0.285 C 
ATOM      8  C   UNL     1      32.718 -12.482 -21.531  0.00  0.00    +0.133 C 
ATOM      9  C   UNL     1      33.053 -13.389 -20.608  0.00  0.00    +0.127 C 
ATOM     10  H   UNL     1      35.265 -15.911 -23.342  0.00  0.00    +0.149 HD
ENDROOT
BRANCH   4  11
ATOM     11  C   UNL     1      35.354 -16.797 -21.451  0.00  0.00    +0.162 C 
BRANCH  11  14
ATOM     12  F   UNL     1      36.418 -18.317 -22.889  0.00  0.00    -0.196 F 
ATOM     13  F   UNL     1      34.251 -18.238 -22.940  0.00  0.00    -0.196 F 
ATOM     14  C   UNL     1      35.318 -18.185 -22.090  0.00  0.00    +0.317 C 
BRANCH  14  17
ATOM     15  O   UNL     1      37.542 -19.081 -20.732  0.00  0.00    -0.163 OA
ATOM     16  N   UNL     1      36.430 -19.625 -20.426  0.00  0.00    -0.128 N 
ATOM     17  C   UNL     1      35.254 -19.262 -21.034  0.00  0.00    +0.142 C 
ATOM     18  C   UNL     1      34.042 -19.842 -20.710  0.00  0.00    +0.022 C 
ATOM     19  C   UNL     1      36.389 -20.609 -19.458  0.00  0.00    +0.121 C 
ATOM     20  C   UNL     1      34.013 -20.831 -19.734  0.00  0.00    +0.003 C 
ATOM     21  C   UNL     1      35.191 -21.218 -19.103  0.00  0.00    +0.022 C 
ENDBRANCH  14  17
ENDBRANCH  11  14
ENDBRANCH   4  11
BRANCH   3  22
ATOM     22  C   UNL     1      32.778 -11.658 -23.868  0.00  0.00    +0.184 C 
BRANCH  22  25
ATOM     23  O   UNL     1      34.903 -10.834 -24.670  0.00  0.00    -0.273 OA
ATOM     24  N   UNL     1      33.640  -9.509 -23.239  0.00  0.00    -0.299 N 
ATOM     25  C   UNL     1      33.891 -10.640 -24.001  0.00  0.00    +0.243 C 
ATOM     26  H   UNL     1      32.792  -9.459 -22.741  0.00  0.00    +0.150 HD
BRANCH  24  27
ATOM     27  C   UNL     1      34.560  -8.397 -23.141  0.00  0.00    +0.119 C 
BRANCH  27  29
ATOM     28  F   UNL     1      33.201  -7.801 -20.736  0.00  0.00    -0.204 F 
ATOM     29  C   UNL     1      33.847  -7.096 -22.909  0.00  0.00    +0.025 C 
ATOM     30  C   UNL     1      33.199  -6.870 -21.701  0.00  0.00    +0.138 C 
ATOM     31  C   UNL     1      33.843  -6.131 -23.909  0.00  0.00    -0.000 C 
ATOM     32  C   UNL     1      32.538  -5.661 -21.489  0.00  0.00    +0.029 C 
ATOM     33  C   UNL     1      33.182  -4.921 -23.696  0.00  0.00    -0.000 C 
ATOM     34  C   UNL     1      32.530  -4.686 -22.486  0.00  0.00    +0.002 C 
ENDBRANCH  27  29
ENDBRANCH  24  27
ENDBRANCH  22  25
ENDBRANCH   3  22
TORSDOF 7
ENDMDL
MODEL 5
REMARK VINA RESULT:     -10.6      3.230     11.133
REMARK  Name = 656913
REMARK  7 active torsions:
REMARK  status: ('A' for Active; 'I' for Inactive)
REMARK    1  A    between atoms: N_3  and  C_22
REMARK    2  A    between atoms: N_4  and  C_11
REMARK    3  A    between atoms: C_11  and  C_14
REMARK    4  A    between atoms: C_14  and  C_17
REMARK    5  A    between atoms: C_22  and  C_25
REMARK    6  A    between atoms: N_24  and  C_27
REMARK    7  A    between atoms: C_27  and  C_29
REMARK                            x       y       z     vdW  Elec       q    Type
REMARK                         _______ _______ _______ _____ _____    ______ ____
ROOT
ATOM      1 CL   UNL     1      32.331 -13.462 -20.425  0.00  0.00    -0.064 Cl
ATOM      2  O   UNL     1      34.070 -10.098 -23.728  0.00  0.00    -0.266 OA
ATOM      3  N   UNL     1      33.287 -11.691 -22.195  0.00  0.00    -0.233 N 
ATOM      4  N   UNL     1      32.041  -8.384 -23.281  0.00  0.00    -0.310 N 
ATOM      5  N   UNL     1      31.165  -9.903 -21.725  0.00  0.00    -0.223 NA
ATOM      6  C   UNL     1      32.079  -9.571 -22.592  0.00  0.00    +0.183 C 
ATOM      7  C   UNL     1      33.256 -10.487 -22.899  0.00  0.00    +0.285 C 
ATOM      8  C   UNL     1      32.283 -11.974 -21.290  0.00  0.00    +0.133 C 
ATOM      9  C   UNL     1      31.289 -11.104 -21.089  0.00  0.00    +0.127 C 
ATOM     10  H   UNL     1      32.759  -8.185 -23.925  0.00  0.00    +0.149 HD
ENDROOT
BRANCH   4  11
ATOM     11  C   UNL     1      30.996  -7.428 -23.095  0.00  0.00    +0.162 C 
BRANCH  11  14
ATOM     12  F   UNL     1      32.193  -6.198 -21.493  0.00  0.00    -0.196 F 
ATOM     13  F   UNL     1      30.557  -5.198 -22.507  0.00  0.00    -0.196 F 
ATOM     14  C   UNL     1      31.586  -6.071 -22.711  0.00  0.00    +0.317 C 
BRANCH  14  17
ATOM     15  O   UNL     1      34.304  -6.511 -22.590  0.00  0.00    -0.163 OA
ATOM     16  N   UNL     1      33.875  -5.861 -23.601  0.00  0.00    -0.128 N 
ATOM     17  C   UNL     1      32.542  -5.582 -23.771  0.00  0.00    +0.142 C 
ATOM     18  C   UNL     1      32.065  -4.881 -24.862  0.00  0.00    +0.022 C 
ATOM     19  C   UNL     1      34.764  -5.420 -24.561  0.00  0.00    +0.121 C 
ATOM     20  C   UNL     1      32.969  -4.442 -25.824  0.00  0.00    +0.003 C 
ATOM     21  C   UNL     1      34.326  -4.712 -25.675  0.00  0.00    +0.022 C 
ENDBRANCH  14  17
ENDBRANCH  11  14
ENDBRANCH   4  11
BRANCH   3  22
ATOM     22  C   UNL     1      34.384 -12.623 -22.437  0.00  0.00    +0.184 C 
BRANCH  22  25
ATOM     23  O   UNL     1      32.947 -13.596 -24.119  0.00  0.00    -0.273 OA
ATOM     24  N   UNL     1      34.707 -14.851 -23.266  0.00  0.00    -0.299 N 
ATOM     25  C   UNL     1      33.924 -13.712 -23.383  0.00  0.00    +0.243 C 
ATOM     26  H   UNL     1      35.468 -14.833 -22.642  0.00  0.00    +0.150 HD
BRANCH  24  27
ATOM     27  C   UNL     1      34.462 -16.063 -24.016  0.00  0.00    +0.119 C 
BRANCH  27  29
ATOM     28  F   UNL     1      33.608 -18.642 -24.796  0.00  0.00    -0.204 F 
ATOM     29  C   UNL     1      34.739 -17.294 -23.202  0.00  0.00    +0.025 C 
ATOM     30  C   UNL     1      34.289 -18.531 -23.647  0.00  0.00    +0.138 C 
ATOM     31  C   UNL     1      35.443 -17.181 -22.009  0.00  0.00    -0.000 C 
ATOM     32  C   UNL     1      34.547 -19.672 -22.888  0.00  0.00    +0.029 C 
ATOM     33  C   UNL     1      35.702 -18.322 -21.251  0.00  0.00    -0.000 C 
ATOM     34  C   UNL     1      35.254 -19.568 -21.690  0.00  0.00    +0.002 C 
ENDBRANCH  27  29
ENDBRANCH  24  27
ENDBRANCH  22  25
ENDBRANCH   3  22
TORSDOF 7
ENDMDL
MODEL 6
REMARK VINA RESULT:     -10.5      7.836     12.732
REMARK  Name = 656913
REMARK  7 active torsions:
REMARK  status: ('A' for Active; 'I' for Inactive)
REMARK    1  A    between atoms: N_3  and  C_22
REMARK    2  A    between atoms: N_4  and  C_11
REMARK    3  A    between atoms: C_11  and  C_14
REMARK    4  A    between atoms: C_14  and  C_17
REMARK    5  A    between atoms: C_22  and  C_25
REMARK    6  A    between atoms: N_24  and  C_27
REMARK    7  A    between atoms: C_27  and  C_29
REMARK                            x       y       z     vdW  Elec       q    Type
REMARK                         _______ _______ _______ _____ _____    ______ ____
ROOT
ATOM      1 CL   UNL     1      37.544 -23.651 -12.250  0.00  0.00    -0.064 Cl
ATOM      2  O   UNL     1      34.043 -24.134 -15.823  0.00  0.00    -0.266 OA
ATOM      3  N   UNL     1      35.658 -23.933 -14.134  0.00  0.00    -0.233 N 
ATOM      4  N   UNL     1      35.226 -22.331 -17.437  0.00  0.00    -0.310 N 
ATOM      5  N   UNL     1      36.897 -22.049 -15.818  0.00  0.00    -0.223 NA
ATOM      6  C   UNL     1      35.797 -22.618 -16.223  0.00  0.00    +0.183 C 
ATOM      7  C   UNL     1      35.071 -23.647 -15.367  0.00  0.00    +0.285 C 
ATOM      8  C   UNL     1      36.825 -23.290 -13.773  0.00  0.00    +0.133 C 
ATOM      9  C   UNL     1      37.390 -22.400 -14.595  0.00  0.00    +0.127 C 
ATOM     10  H   UNL     1      34.393 -22.792 -17.693  0.00  0.00    +0.149 HD
ENDROOT
BRANCH   4  11
ATOM     11  C   UNL     1      35.797 -21.386 -18.344  0.00  0.00    +0.162 C 
BRANCH  11  14
ATOM     12  F   UNL     1      33.629 -20.712 -18.941  0.00  0.00    -0.196 F 
ATOM     13  F   UNL     1      34.559 -22.269 -20.132  0.00  0.00    -0.196 F 
ATOM     14  C   UNL     1      34.822 -21.096 -19.485  0.00  0.00    +0.317 C 
BRANCH  14  17
ATOM     15  O   UNL     1      33.327 -19.917 -21.476  0.00  0.00    -0.163 OA
ATOM     16  N   UNL     1      34.539 -19.535 -21.371  0.00  0.00    -0.128 N 
ATOM     17  C   UNL     1      35.382 -20.049 -20.417  0.00  0.00    +0.142 C 
ATOM     18  C   UNL     1      36.696 -19.642 -20.291  0.00  0.00    +0.022 C 
ATOM     19  C   UNL     1      35.035 -18.576 -22.233  0.00  0.00    +0.121 C 
ATOM     20  C   UNL     1      37.185 -18.676 -21.164  0.00  0.00    +0.003 C 
ATOM     21  C   UNL     1      36.352 -18.138 -22.140  0.00  0.00    +0.022 C 
ENDBRANCH  14  17
ENDBRANCH  11  14
ENDBRANCH   4  11
BRANCH   3  22
ATOM     22  C   UNL     1      35.019 -24.908 -13.256  0.00  0.00    +0.184 C 
BRANCH  22  25
ATOM     23  O   UNL     1      33.674 -23.417 -11.912  0.00  0.00    -0.273 OA
ATOM     24  N   UNL     1      32.622 -25.015 -13.231  0.00  0.00    -0.299 N 
ATOM     25  C   UNL     1      33.721 -24.337 -12.725  0.00  0.00    +0.243 C 
ATOM     26  H   UNL     1      32.778 -25.739 -13.880  0.00  0.00    +0.150 HD
BRANCH  24  27
ATOM     27  C   UNL     1      31.259 -24.711 -12.854  0.00  0.00    +0.119 C 
BRANCH  27  29
ATOM     28  F   UNL     1      31.719 -22.187 -14.039  0.00  0.00    -0.204 F 
ATOM     29  C   UNL     1      30.457 -24.197 -14.014  0.00  0.00    +0.025 C 
ATOM     30  C   UNL     1      30.738 -22.945 -14.548  0.00  0.00    +0.138 C 
ATOM     31  C   UNL     1      29.438 -24.982 -14.543  0.00  0.00    -0.000 C 
ATOM     32  C   UNL     1      29.991 -22.471 -15.626  0.00  0.00    +0.029 C 
ATOM     33  C   UNL     1      28.692 -24.508 -15.621  0.00  0.00    -0.000 C 
ATOM     34  C   UNL     1      28.968 -23.253 -16.162  0.00  0.00    +0.002 C 
ENDBRANCH  27  29
ENDBRANCH  24  27
ENDBRANCH  22  25
ENDBRANCH   3  22
TORSDOF 7
ENDMDL
MODEL 7
REMARK VINA RESULT:     -10.5      7.542     13.225
REMARK  Name = 656913
REMARK  7 active torsions:
REMARK  status: ('A' for Active; 'I' for Inactive)
REMARK    1  A    between atoms: N_3  and  C_22
REMARK    2  A    between atoms: N_4  and  C_11
REMARK    3  A    between atoms: C_11  and  C_14
REMARK    4  A    between atoms: C_14  and  C_17
REMARK    5  A    between atoms: C_22  and  C_25
REMARK    6  A    between atoms: N_24  and  C_27
REMARK    7  A    between atoms: C_27  and  C_29
REMARK                            x       y       z     vdW  Elec       q    Type
REMARK                         _______ _______ _______ _____ _____    ______ ____
ROOT
ATOM      1 CL   UNL     1      29.408 -23.680 -14.761  0.00  0.00    -0.064 Cl
ATOM      2  O   UNL     1      34.296 -23.990 -15.885  0.00  0.00    -0.266 OA
ATOM      3  N   UNL     1      32.020 -23.870 -15.332  0.00  0.00    -0.233 N 
ATOM      4  N   UNL     1      34.074 -22.318 -17.985  0.00  0.00    -0.310 N 
ATOM      5  N   UNL     1      31.784 -22.123 -17.526  0.00  0.00    -0.223 NA
ATOM      6  C   UNL     1      32.957 -22.618 -17.247  0.00  0.00    +0.183 C 
ATOM      7  C   UNL     1      33.161 -23.570 -16.077  0.00  0.00    +0.285 C 
ATOM      8  C   UNL     1      30.811 -23.305 -15.687  0.00  0.00    +0.133 C 
ATOM      9  C   UNL     1      30.731 -22.478 -16.734  0.00  0.00    +0.127 C 
ATOM     10  H   UNL     1      34.936 -22.722 -17.729  0.00  0.00    +0.149 HD
ENDROOT
BRANCH   4  11
ATOM     11  C   UNL     1      34.032 -21.440 -19.111  0.00  0.00    +0.162 C 
BRANCH  11  14
ATOM     12  F   UNL     1      36.063 -22.205 -20.006  0.00  0.00    -0.196 F 
ATOM     13  F   UNL     1      36.158 -20.710 -18.438  0.00  0.00    -0.196 F 
ATOM     14  C   UNL     1      35.450 -21.074 -19.547  0.00  0.00    +0.317 C 
BRANCH  14  17
ATOM     15  O   UNL     1      37.421 -19.158 -19.743  0.00  0.00    -0.163 OA
ATOM     16  N   UNL     1      36.466 -19.083 -20.585  0.00  0.00    -0.128 N 
ATOM     17  C   UNL     1      35.428 -19.980 -20.587  0.00  0.00    +0.142 C 
ATOM     18  C   UNL     1      34.388 -19.911 -21.495  0.00  0.00    +0.022 C 
ATOM     19  C   UNL     1      36.461 -18.075 -21.530  0.00  0.00    +0.121 C 
ATOM     20  C   UNL     1      34.394 -18.893 -22.443  0.00  0.00    +0.003 C 
ATOM     21  C   UNL     1      35.434 -17.969 -22.463  0.00  0.00    +0.022 C 
ENDBRANCH  14  17
ENDBRANCH  11  14
ENDBRANCH   4  11
BRANCH   3  22
ATOM     22  C   UNL     1      32.136 -24.777 -14.195  0.00  0.00    +0.184 C 
BRANCH  22  25
ATOM     23  O   UNL     1      32.285 -23.133 -12.429  0.00  0.00    -0.273 OA
ATOM     24  N   UNL     1      34.087 -24.548 -12.816  0.00  0.00    -0.299 N 
ATOM     25  C   UNL     1      32.809 -24.060 -13.043  0.00  0.00    +0.243 C 
ATOM     26  H   UNL     1      34.406 -25.298 -13.370  0.00  0.00    +0.150 HD
BRANCH  24  27
ATOM     27  C   UNL     1      34.974 -24.013 -11.807  0.00  0.00    +0.119 C 
BRANCH  27  29
ATOM     28  F   UNL     1      37.144 -22.712 -10.548  0.00  0.00    -0.204 F 
ATOM     29  C   UNL     1      36.406 -24.384 -12.064  0.00  0.00    +0.025 C 
ATOM     30  C   UNL     1      37.424 -23.701 -11.409  0.00  0.00    +0.138 C 
ATOM     31  C   UNL     1      36.698 -25.408 -12.957  0.00  0.00    -0.000 C 
ATOM     32  C   UNL     1      38.753 -24.048 -11.650  0.00  0.00    +0.029 C 
ATOM     33  C   UNL     1      38.027 -25.755 -13.197  0.00  0.00    -0.000 C 
ATOM     34  C   UNL     1      39.055 -25.076 -12.544  0.00  0.00    +0.002 C 
ENDBRANCH  27  29
ENDBRANCH  24  27
ENDBRANCH  22  25
ENDBRANCH   3  22
TORSDOF 7
ENDMDL
MODEL 8
REMARK VINA RESULT:     -10.4      9.895     13.030
REMARK  Name = 656913
REMARK  7 active torsions:
REMARK  status: ('A' for Active; 'I' for Inactive)
REMARK    1  A    between atoms: N_3  and  C_22
REMARK    2  A    between atoms: N_4  and  C_11
REMARK    3  A    between atoms: C_11  and  C_14
REMARK    4  A    between atoms: C_14  and  C_17
REMARK    5  A    between atoms: C_22  and  C_25
REMARK    6  A    between atoms: N_24  and  C_27
REMARK    7  A    between atoms: C_27  and  C_29
REMARK                            x       y       z     vdW  Elec       q    Type
REMARK                         _______ _______ _______ _____ _____    ______ ____
ROOT
ATOM      1 CL   UNL     1      38.035 -23.321 -11.650  0.00  0.00    -0.064 Cl
ATOM      2  O   UNL     1      35.013 -24.600 -15.456  0.00  0.00    -0.266 OA
ATOM      3  N   UNL     1      36.452 -24.001 -13.704  0.00  0.00    -0.233 N 
ATOM      4  N   UNL     1      32.859 -24.855 -13.860  0.00  0.00    -0.310 N 
ATOM      5  N   UNL     1      34.204 -24.267 -12.033  0.00  0.00    -0.223 NA
ATOM      6  C   UNL     1      34.062 -24.493 -13.308  0.00  0.00    +0.183 C 
ATOM      7  C   UNL     1      35.233 -24.369 -14.273  0.00  0.00    +0.285 C 
ATOM      8  C   UNL     1      36.526 -23.777 -12.344  0.00  0.00    +0.133 C 
ATOM      9  C   UNL     1      35.440 -23.911 -11.576  0.00  0.00    +0.127 C 
ATOM     10  H   UNL     1      32.809 -25.014 -14.831  0.00  0.00    +0.149 HD
ENDROOT
BRANCH   4  11
ATOM     11  C   UNL     1      31.675 -25.009 -13.075  0.00  0.00    +0.162 C 
BRANCH  11  14
ATOM     12  F   UNL     1      31.744 -22.663 -13.011  0.00  0.00    -0.196 F 
ATOM     13  F   UNL     1      30.150 -23.649 -11.919  0.00  0.00    -0.196 F 
ATOM     14  C   UNL     1      30.869 -23.710 -13.078  0.00  0.00    +0.317 C 
BRANCH  14  17
ATOM     15  O   UNL     1      29.228 -25.778 -13.870  0.00  0.00    -0.163 OA
ATOM     16  N   UNL     1      29.210 -24.726 -14.591  0.00  0.00    -0.128 N 
ATOM     17  C   UNL     1      29.983 -23.631 -14.297  0.00  0.00    +0.142 C 
ATOM     18  C   UNL     1      29.970 -22.485 -15.069  0.00  0.00    +0.022 C 
ATOM     19  C   UNL     1      28.393 -24.670 -15.704  0.00  0.00    +0.121 C 
ATOM     20  C   UNL     1      29.144 -22.440 -16.187  0.00  0.00    +0.003 C 
ATOM     21  C   UNL     1      28.350 -23.536 -16.508  0.00  0.00    +0.022 C 
ENDBRANCH  14  17
ENDBRANCH  11  14
ENDBRANCH   4  11
BRANCH   3  22
ATOM     22  C   UNL     1      37.622 -23.864 -14.566  0.00  0.00    +0.184 C 
BRANCH  22  25
ATOM     23  O   UNL     1      37.789 -21.457 -14.707  0.00  0.00    -0.273 OA
ATOM     24  N   UNL     1      37.213 -22.668 -16.606  0.00  0.00    -0.299 N 
ATOM     25  C   UNL     1      37.575 -22.526 -15.274  0.00  0.00    +0.243 C 
ATOM     26  H   UNL     1      37.065 -23.576 -16.956  0.00  0.00    +0.150 HD
BRANCH  24  27
ATOM     27  C   UNL     1      37.044 -21.548 -17.505  0.00  0.00    +0.119 C 
BRANCH  27  29
ATOM     28  F   UNL     1      36.478 -20.096 -19.863  0.00  0.00    -0.204 F 
ATOM     29  C   UNL     1      35.693 -21.555 -18.162  0.00  0.00    +0.025 C 
ATOM     30  C   UNL     1      35.486 -20.817 -19.322  0.00  0.00    +0.138 C 
ATOM     31  C   UNL     1      34.663 -22.301 -17.602  0.00  0.00    -0.000 C 
ATOM     32  C   UNL     1      34.231 -20.826 -19.929  0.00  0.00    +0.029 C 
ATOM     33  C   UNL     1      33.409 -22.310 -18.210  0.00  0.00    -0.000 C 
ATOM     34  C   UNL     1      33.192 -21.572 -19.373  0.00  0.00    +0.002 C 
ENDBRANCH  27  29
ENDBRANCH  24  27
ENDBRANCH  22  25
ENDBRANCH   3  22
TORSDOF 7
ENDMDL
MODEL 9
REMARK VINA RESULT:     -10.4      2.991     11.145
REMARK  Name = 656913
REMARK  7 active torsions:
REMARK  status: ('A' for Active; 'I' for Inactive)
REMARK    1  A    between atoms: N_3  and  C_22
REMARK    2  A    between atoms: N_4  and  C_11
REMARK    3  A    between atoms: C_11  and  C_14
REMARK    4  A    between atoms: C_14  and  C_17
REMARK    5  A    between atoms: C_22  and  C_25
REMARK    6  A    between atoms: N_24  and  C_27
REMARK    7  A    between atoms: C_27  and  C_29
REMARK                            x       y       z     vdW  Elec       q    Type
REMARK                         _______ _______ _______ _____ _____    ______ ____
ROOT
ATOM      1 CL   UNL     1      32.017 -13.680 -19.980  0.00  0.00    -0.064 Cl
ATOM      2  O   UNL     1      32.608 -10.461 -23.793  0.00  0.00    -0.266 OA
ATOM      3  N   UNL     1      32.339 -11.992 -22.038  0.00  0.00    -0.233 N 
ATOM      4  N   UNL     1      32.079  -8.311 -22.260  0.00  0.00    -0.310 N 
ATOM      5  N   UNL     1      31.785  -9.748 -20.431  0.00  0.00    -0.223 NA
ATOM      6  C   UNL     1      32.056  -9.560 -21.692  0.00  0.00    +0.183 C 
ATOM      7  C   UNL     1      32.365 -10.725 -22.622  0.00  0.00    +0.285 C 
ATOM      8  C   UNL     1      32.045 -12.113 -20.694  0.00  0.00    +0.133 C 
ATOM      9  C   UNL     1      31.787 -11.028 -19.957  0.00  0.00    +0.127 C 
ATOM     10  H   UNL     1      32.290  -8.228 -23.218  0.00  0.00    +0.149 HD
ENDROOT
BRANCH   4  11
ATOM     11  C   UNL     1      31.809  -7.127 -21.507  0.00  0.00    +0.162 C 
BRANCH  11  14
ATOM     12  F   UNL     1      34.097  -6.746 -21.144  0.00  0.00    -0.196 F 
ATOM     13  F   UNL     1      32.738  -5.090 -20.801  0.00  0.00    -0.196 F 
ATOM     14  C   UNL     1      32.973  -6.145 -21.636  0.00  0.00    +0.317 C 
BRANCH  14  17
ATOM     15  O   UNL     1      30.992  -4.861 -23.056  0.00  0.00    -0.163 OA
ATOM     16  N   UNL     1      32.089  -5.073 -23.671  0.00  0.00    -0.128 N 
ATOM     17  C   UNL     1      33.149  -5.703 -23.068  0.00  0.00    +0.142 C 
ATOM     18  C   UNL     1      34.343  -5.937 -23.723  0.00  0.00    +0.022 C 
ATOM     19  C   UNL     1      32.232  -4.662 -24.983  0.00  0.00    +0.121 C 
ATOM     20  C   UNL     1      34.476  -5.519 -25.043  0.00  0.00    +0.003 C 
ATOM     21  C   UNL     1      33.417  -4.878 -25.678  0.00  0.00    +0.022 C 
ENDBRANCH  14  17
ENDBRANCH  11  14
ENDBRANCH   4  11
BRANCH   3  22
ATOM     22  C   UNL     1      32.623 -13.159 -22.866  0.00  0.00    +0.184 C 
BRANCH  22  25
ATOM     23  O   UNL     1      34.828 -13.064 -21.883  0.00  0.00    -0.273 OA
ATOM     24  N   UNL     1      34.197 -14.959 -23.071  0.00  0.00    -0.299 N 
ATOM     25  C   UNL     1      33.996 -13.700 -22.525  0.00  0.00    +0.243 C 
ATOM     26  H   UNL     1      33.456 -15.376 -23.569  0.00  0.00    +0.150 HD
BRANCH  24  27
ATOM     27  C   UNL     1      35.437 -15.691 -22.943  0.00  0.00    +0.119 C 
BRANCH  27  29
ATOM     28  F   UNL     1      34.376 -17.705 -24.618  0.00  0.00    -0.204 F 
ATOM     29  C   UNL     1      35.213 -17.101 -22.480  0.00  0.00    +0.025 C 
ATOM     30  C   UNL     1      34.687 -18.041 -23.359  0.00  0.00    +0.138 C 
ATOM     31  C   UNL     1      35.534 -17.451 -21.174  0.00  0.00    -0.000 C 
ATOM     32  C   UNL     1      34.480 -19.350 -22.925  0.00  0.00    +0.029 C 
ATOM     33  C   UNL     1      35.327 -18.761 -20.741  0.00  0.00    -0.000 C 
ATOM     34  C   UNL     1      34.800 -19.710 -21.616  0.00  0.00    +0.002 C 
ENDBRANCH  27  29
ENDBRANCH  24  27
ENDBRANCH  22  25
ENDBRANCH   3  22
TORSDOF 7
ENDMDL
