MODEL 1
REMARK VINA RESULT:     -11.1      0.000      0.000
REMARK  Name = 16755766
REMARK  5 active torsions:
REMARK  status: ('A' for Active; 'I' for Inactive)
REMARK    1  A    between atoms: N_1  and  C_25
REMARK    2  A    between atoms: N_3  and  C_12
REMARK    3  A    between atoms: C_5  and  C_20
REMARK    4  A    between atoms: C_25  and  C_26
REMARK    5  A    between atoms: C_26  and  C_29
REMARK                            x       y       z     vdW  Elec       q    Type
REMARK                         _______ _______ _______ _____ _____    ______ ____
ROOT
ATOM      1  N   UNL     1      32.539 -23.321 -15.570  0.00  0.00    -0.174 N 
ATOM      2  N   UNL     1      33.742 -23.517 -15.027  0.00  0.00    -0.096 NA
ATOM      3  N   UNL     1      34.243 -24.346 -12.834  0.00  0.00    -0.246 N 
ATOM      4  N   UNL     1      32.047 -24.072 -13.594  0.00  0.00    -0.319 NA
ATOM      5  C   UNL     1      31.536 -23.648 -14.727  0.00  0.00    +0.216 C 
ATOM      6  C   UNL     1      33.389 -23.975 -13.823  0.00  0.00    +0.165 C 
ATOM      7  H   UNL     1      33.796 -24.575 -11.988  0.00  0.00    +0.165 HD
ENDROOT
BRANCH   3  12
ATOM      8  F   UNL     1      40.381 -26.818 -13.754  0.00  0.00    -0.125 F 
ATOM      9  F   UNL     1      40.578 -24.947 -14.871  0.00  0.00    -0.125 F 
ATOM     10  O   UNL     1      38.516 -25.854 -14.611  0.00  0.00    -0.395 OA
ATOM     11  O   UNL     1      39.735 -24.881 -12.768  0.00  0.00    -0.395 OA
ATOM     12  C   UNL     1      35.661 -24.466 -12.788  0.00  0.00    +0.061 C 
ATOM     13  C   UNL     1      37.696 -25.234 -13.716  0.00  0.00    +0.183 C 
ATOM     14  C   UNL     1      36.322 -25.143 -13.807  0.00  0.00    +0.056 C 
ATOM     15  C   UNL     1      38.392 -24.679 -12.666  0.00  0.00    +0.182 C 
ATOM     16  C   UNL     1      36.360 -23.898 -11.714  0.00  0.00    +0.019 C 
ATOM     17  C   UNL     1      37.751 -24.003 -11.648  0.00  0.00    +0.042 C 
ATOM     18  C   UNL     1      39.790 -25.620 -13.996  0.00  0.00    +0.589 C 
ENDBRANCH   3  12
BRANCH   5  20
ATOM     19  N   UNL     1      27.417 -23.311 -15.663  0.00  0.00    -0.242 NA
ATOM     20  C   UNL     1      30.133 -23.533 -15.044  0.00  0.00    +0.050 C 
ATOM     21  C   UNL     1      29.415 -22.413 -14.639  0.00  0.00    +0.025 C 
ATOM     22  C   UNL     1      29.496 -24.542 -15.758  0.00  0.00    +0.025 C 
ATOM     23  C   UNL     1      28.071 -22.351 -14.971  0.00  0.00    +0.099 C 
ATOM     24  C   UNL     1      28.148 -24.384 -16.039  0.00  0.00    +0.099 C 
ENDBRANCH   5  20
BRANCH   1  25
ATOM     25  C   UNL     1      32.441 -22.798 -16.928  0.00  0.00    +0.129 C 
BRANCH  25  26
ATOM     26  C   UNL     1      33.793 -22.783 -17.639  0.00  0.00    +0.109 C 
BRANCH  26  29
ATOM     27  O   UNL     1      32.771 -21.700 -19.517  0.00  0.00    -0.275 OA
ATOM     28  N   UNL     1      35.019 -21.256 -19.161  0.00  0.00    -0.276 N 
ATOM     29  C   UNL     1      33.800 -21.869 -18.857  0.00  0.00    +0.228 C 
ATOM     30  C   UNL     1      36.225 -21.470 -18.364  0.00  0.00    +0.115 C 
ATOM     31  C   UNL     1      35.180 -20.356 -20.297  0.00  0.00    +0.115 C 
ENDBRANCH  26  29
ENDBRANCH  25  26
ENDBRANCH   1  25
TORSDOF 5
ENDMDL
MODEL 2
REMARK VINA RESULT:     -10.8      4.226      8.102
REMARK  Name = 16755766
REMARK  5 active torsions:
REMARK  status: ('A' for Active; 'I' for Inactive)
REMARK    1  A    between atoms: N_1  and  C_25
REMARK    2  A    between atoms: N_3  and  C_12
REMARK    3  A    between atoms: C_5  and  C_20
REMARK    4  A    between atoms: C_25  and  C_26
REMARK    5  A    between atoms: C_26  and  C_29
REMARK                            x       y       z     vdW  Elec       q    Type
REMARK                         _______ _______ _______ _____ _____    ______ ____
ROOT
ATOM      1  N   UNL     1      34.541 -23.777 -14.765  0.00  0.00    -0.174 N 
ATOM      2  N   UNL     1      34.390 -23.042 -15.868  0.00  0.00    -0.096 NA
ATOM      3  N   UNL     1      36.106 -22.130 -17.271  0.00  0.00    -0.246 N 
ATOM      4  N   UNL     1      36.593 -23.396 -15.363  0.00  0.00    -0.319 NA
ATOM      5  C   UNL     1      35.841 -23.988 -14.464  0.00  0.00    +0.216 C 
ATOM      6  C   UNL     1      35.667 -22.835 -16.196  0.00  0.00    +0.165 C 
ATOM      7  H   UNL     1      37.083 -22.014 -17.298  0.00  0.00    +0.165 HD
ENDROOT
BRANCH   3  12
ATOM      8  F   UNL     1      34.649 -17.842 -22.181  0.00  0.00    -0.125 F 
ATOM      9  F   UNL     1      34.935 -19.658 -23.366  0.00  0.00    -0.125 F 
ATOM     10  O   UNL     1      35.971 -19.489 -21.356  0.00  0.00    -0.395 OA
ATOM     11  O   UNL     1      33.578 -19.739 -21.553  0.00  0.00    -0.395 OA
ATOM     12  C   UNL     1      35.424 -21.526 -18.363  0.00  0.00    +0.061 C 
ATOM     13  C   UNL     1      35.442 -20.231 -20.344  0.00  0.00    +0.183 C 
ATOM     14  C   UNL     1      36.148 -20.799 -19.303  0.00  0.00    +0.056 C 
ATOM     15  C   UNL     1      34.077 -20.374 -20.457  0.00  0.00    +0.182 C 
ATOM     16  C   UNL     1      34.034 -21.676 -18.469  0.00  0.00    +0.019 C 
ATOM     17  C   UNL     1      33.344 -21.092 -19.534  0.00  0.00    +0.042 C 
ATOM     18  C   UNL     1      34.783 -19.190 -22.102  0.00  0.00    +0.589 C 
ENDBRANCH   3  12
BRANCH   5  20
ATOM     19  N   UNL     1      37.202 -26.199 -11.115  0.00  0.00    -0.242 NA
ATOM     20  C   UNL     1      36.303 -24.742 -13.324  0.00  0.00    +0.050 C 
ATOM     21  C   UNL     1      36.918 -25.976 -13.506  0.00  0.00    +0.025 C 
ATOM     22  C   UNL     1      36.137 -24.236 -12.040  0.00  0.00    +0.025 C 
ATOM     23  C   UNL     1      37.346 -26.658 -12.379  0.00  0.00    +0.099 C 
ATOM     24  C   UNL     1      36.599 -24.997 -10.979  0.00  0.00    +0.099 C 
ENDBRANCH   5  20
BRANCH   1  25
ATOM     25  C   UNL     1      33.363 -24.235 -14.039  0.00  0.00    +0.129 C 
BRANCH  25  26
ATOM     26  C   UNL     1      32.305 -23.141 -13.909  0.00  0.00    +0.109 C 
BRANCH  26  29
ATOM     27  O   UNL     1      30.476 -24.271 -12.848  0.00  0.00    -0.275 OA
ATOM     28  N   UNL     1      30.120 -23.532 -15.017  0.00  0.00    -0.276 N 
ATOM     29  C   UNL     1      30.890 -23.703 -13.862  0.00  0.00    +0.228 C 
ATOM     30  C   UNL     1      30.631 -22.855 -16.207  0.00  0.00    +0.115 C 
ATOM     31  C   UNL     1      28.749 -24.017 -15.121  0.00  0.00    +0.115 C 
ENDBRANCH  26  29
ENDBRANCH  25  26
ENDBRANCH   1  25
TORSDOF 5
ENDMDL
MODEL 3
REMARK VINA RESULT:     -10.7      4.435      8.630
REMARK  Name = 16755766
REMARK  5 active torsions:
REMARK  status: ('A' for Active; 'I' for Inactive)
REMARK    1  A    between atoms: N_1  and  C_25
REMARK    2  A    between atoms: N_3  and  C_12
REMARK    3  A    between atoms: C_5  and  C_20
REMARK    4  A    between atoms: C_25  and  C_26
REMARK    5  A    between atoms: C_26  and  C_29
REMARK                            x       y       z     vdW  Elec       q    Type
REMARK                         _______ _______ _______ _____ _____    ______ ____
ROOT
ATOM      1  N   UNL     1      35.276 -23.266 -15.648  0.00  0.00    -0.174 N 
ATOM      2  N   UNL     1      34.977 -22.557 -16.738  0.00  0.00    -0.096 NA
ATOM      3  N   UNL     1      36.455 -21.216 -18.066  0.00  0.00    -0.246 N 
ATOM      4  N   UNL     1      37.188 -22.384 -16.176  0.00  0.00    -0.319 NA
ATOM      5  C   UNL     1      36.581 -23.167 -15.313  0.00  0.00    +0.216 C 
ATOM      6  C   UNL     1      36.174 -22.038 -17.022  0.00  0.00    +0.165 C 
ATOM      7  H   UNL     1      37.375 -20.867 -18.061  0.00  0.00    +0.165 HD
ENDROOT
BRANCH   3  12
ATOM      8  F   UNL     1      34.385 -17.459 -23.187  0.00  0.00    -0.125 F 
ATOM      9  F   UNL     1      34.800 -19.321 -24.256  0.00  0.00    -0.125 F 
ATOM     10  O   UNL     1      35.895 -18.907 -22.314  0.00  0.00    -0.395 OA
ATOM     11  O   UNL     1      33.532 -19.398 -22.379  0.00  0.00    -0.395 OA
ATOM     12  C   UNL     1      35.672 -20.761 -19.165  0.00  0.00    +0.061 C 
ATOM     13  C   UNL     1      35.483 -19.620 -21.228  0.00  0.00    +0.183 C 
ATOM     14  C   UNL     1      36.283 -20.040 -20.185  0.00  0.00    +0.056 C 
ATOM     15  C   UNL     1      34.135 -19.900 -21.266  0.00  0.00    +0.182 C 
ATOM     16  C   UNL     1      34.301 -21.050 -19.194  0.00  0.00    +0.019 C 
ATOM     17  C   UNL     1      33.514 -20.615 -20.262  0.00  0.00    +0.042 C 
ATOM     18  C   UNL     1      34.654 -18.778 -23.022  0.00  0.00    +0.589 C 
ENDBRANCH   3  12
BRANCH   5  20
ATOM     19  N   UNL     1      38.358 -25.085 -11.980  0.00  0.00    -0.242 NA
ATOM     20  C   UNL     1      37.185 -23.821 -14.179  0.00  0.00    +0.050 C 
ATOM     21  C   UNL     1      37.779 -25.070 -14.327  0.00  0.00    +0.025 C 
ATOM     22  C   UNL     1      37.176 -23.205 -12.933  0.00  0.00    +0.025 C 
ATOM     23  C   UNL     1      38.347 -25.654 -13.206  0.00  0.00    +0.099 C 
ATOM     24  C   UNL     1      37.771 -23.873 -11.875  0.00  0.00    +0.099 C 
ENDBRANCH   5  20
BRANCH   1  25
ATOM     25  C   UNL     1      34.227 -24.018 -14.970  0.00  0.00    +0.129 C 
BRANCH  25  26
ATOM     26  C   UNL     1      33.078 -23.119 -14.515  0.00  0.00    +0.109 C 
BRANCH  26  29
ATOM     27  O   UNL     1      31.560 -22.914 -16.358  0.00  0.00    -0.275 OA
ATOM     28  N   UNL     1      30.885 -24.275 -14.605  0.00  0.00    -0.276 N 
ATOM     29  C   UNL     1      31.780 -23.417 -15.253  0.00  0.00    +0.228 C 
ATOM     30  C   UNL     1      31.166 -24.859 -13.296  0.00  0.00    +0.115 C 
ATOM     31  C   UNL     1      29.602 -24.650 -15.187  0.00  0.00    +0.115 C 
ENDBRANCH  26  29
ENDBRANCH  25  26
ENDBRANCH   1  25
TORSDOF 5
ENDMDL
MODEL 4
REMARK VINA RESULT:     -10.3      4.413      8.150
REMARK  Name = 16755766
REMARK  5 active torsions:
REMARK  status: ('A' for Active; 'I' for Inactive)
REMARK    1  A    between atoms: N_1  and  C_25
REMARK    2  A    between atoms: N_3  and  C_12
REMARK    3  A    between atoms: C_5  and  C_20
REMARK    4  A    between atoms: C_25  and  C_26
REMARK    5  A    between atoms: C_26  and  C_29
REMARK                            x       y       z     vdW  Elec       q    Type
REMARK                         _______ _______ _______ _____ _____    ______ ____
ROOT
ATOM      1  N   UNL     1      34.933 -23.488 -14.407  0.00  0.00    -0.174 N 
ATOM      2  N   UNL     1      33.643 -23.623 -14.720  0.00  0.00    -0.096 NA
ATOM      3  N   UNL     1      31.877 -24.465 -13.335  0.00  0.00    -0.246 N 
ATOM      4  N   UNL     1      34.090 -24.315 -12.586  0.00  0.00    -0.319 NA
ATOM      5  C   UNL     1      35.200 -23.896 -13.148  0.00  0.00    +0.216 C 
ATOM      6  C   UNL     1      33.171 -24.130 -13.579  0.00  0.00    +0.165 C 
ATOM      7  H   UNL     1      31.737 -24.904 -12.465  0.00  0.00    +0.165 HD
ENDROOT
BRANCH   3  12
ATOM      8  F   UNL     1      25.945 -22.111 -15.307  0.00  0.00    -0.125 F 
ATOM      9  F   UNL     1      27.137 -21.594 -17.066  0.00  0.00    -0.125 F 
ATOM     10  O   UNL     1      28.179 -21.815 -15.065  0.00  0.00    -0.395 OA
ATOM     11  O   UNL     1      27.254 -23.705 -16.249  0.00  0.00    -0.395 OA
ATOM     12  C   UNL     1      30.686 -24.302 -14.096  0.00  0.00    +0.061 C 
ATOM     13  C   UNL     1      28.919 -22.947 -14.895  0.00  0.00    +0.183 C 
ATOM     14  C   UNL     1      30.073 -23.054 -14.145  0.00  0.00    +0.056 C 
ATOM     15  C   UNL     1      28.391 -24.025 -15.571  0.00  0.00    +0.182 C 
ATOM     16  C   UNL     1      30.156 -25.404 -14.779  0.00  0.00    +0.019 C 
ATOM     17  C   UNL     1      28.987 -25.268 -15.533  0.00  0.00    +0.042 C 
ATOM     18  C   UNL     1      27.139 -22.314 -15.917  0.00  0.00    +0.589 C 
ENDBRANCH   3  12
BRANCH   5  20
ATOM     19  N   UNL     1      39.045 -23.815 -11.370  0.00  0.00    -0.242 NA
ATOM     20  C   UNL     1      36.509 -23.870 -12.541  0.00  0.00    +0.050 C 
ATOM     21  C   UNL     1      37.440 -24.856 -12.848  0.00  0.00    +0.025 C 
ATOM     22  C   UNL     1      36.844 -22.857 -11.650  0.00  0.00    +0.025 C 
ATOM     23  C   UNL     1      38.684 -24.784 -12.241  0.00  0.00    +0.099 C 
ATOM     24  C   UNL     1      38.114 -22.875 -11.096  0.00  0.00    +0.099 C 
ENDBRANCH   5  20
BRANCH   1  25
ATOM     25  C   UNL     1      35.862 -22.959 -15.398  0.00  0.00    +0.129 C 
BRANCH  25  26
ATOM     26  C   UNL     1      35.162 -22.601 -16.709  0.00  0.00    +0.109 C 
BRANCH  26  29
ATOM     27  O   UNL     1      37.228 -21.563 -17.341  0.00  0.00    -0.275 OA
ATOM     28  N   UNL     1      35.459 -21.338 -18.823  0.00  0.00    -0.276 N 
ATOM     29  C   UNL     1      36.053 -21.790 -17.641  0.00  0.00    +0.228 C 
ATOM     30  C   UNL     1      34.065 -21.619 -19.158  0.00  0.00    +0.115 C 
ATOM     31  C   UNL     1      36.186 -20.550 -19.811  0.00  0.00    +0.115 C 
ENDBRANCH  26  29
ENDBRANCH  25  26
ENDBRANCH   1  25
TORSDOF 5
ENDMDL
MODEL 5
REMARK VINA RESULT:     -10.1      4.074      7.739
REMARK  Name = 16755766
REMARK  5 active torsions:
REMARK  status: ('A' for Active; 'I' for Inactive)
REMARK    1  A    between atoms: N_1  and  C_25
REMARK    2  A    between atoms: N_3  and  C_12
REMARK    3  A    between atoms: C_5  and  C_20
REMARK    4  A    between atoms: C_25  and  C_26
REMARK    5  A    between atoms: C_26  and  C_29
REMARK                            x       y       z     vdW  Elec       q    Type
REMARK                         _______ _______ _______ _____ _____    ______ ____
ROOT
ATOM      1  N   UNL     1      33.519 -23.184 -16.225  0.00  0.00    -0.174 N 
ATOM      2  N   UNL     1      33.925 -22.517 -17.307  0.00  0.00    -0.096 NA
ATOM      3  N   UNL     1      32.570 -21.353 -18.905  0.00  0.00    -0.246 N 
ATOM      4  N   UNL     1      31.650 -22.472 -17.067  0.00  0.00    -0.319 NA
ATOM      5  C   UNL     1      32.177 -23.160 -16.080  0.00  0.00    +0.216 C 
ATOM      6  C   UNL     1      32.750 -22.101 -17.786  0.00  0.00    +0.165 C 
ATOM      7  H   UNL     1      31.625 -21.218 -19.146  0.00  0.00    +0.165 HD
ENDROOT
BRANCH   3  12
ATOM      8  F   UNL     1      35.205 -18.948 -24.553  0.00  0.00    -0.125 F 
ATOM      9  F   UNL     1      35.044 -17.088 -23.413  0.00  0.00    -0.125 F 
ATOM     10  O   UNL     1      33.651 -18.804 -22.908  0.00  0.00    -0.395 OA
ATOM     11  O   UNL     1      36.018 -18.887 -22.438  0.00  0.00    -0.395 OA
ATOM     12  C   UNL     1      33.486 -20.726 -19.796  0.00  0.00    +0.061 C 
ATOM     13  C   UNL     1      33.929 -19.484 -21.761  0.00  0.00    +0.183 C 
ATOM     14  C   UNL     1      33.002 -20.075 -20.926  0.00  0.00    +0.056 C 
ATOM     15  C   UNL     1      35.279 -19.530 -21.492  0.00  0.00    +0.182 C 
ATOM     16  C   UNL     1      34.858 -20.780 -19.516  0.00  0.00    +0.019 C 
ATOM     17  C   UNL     1      35.775 -20.172 -20.376  0.00  0.00    +0.042 C 
ATOM     18  C   UNL     1      34.977 -18.439 -23.316  0.00  0.00    +0.589 C 
ENDBRANCH   3  12
BRANCH   5  20
ATOM     19  N   UNL     1      30.065 -25.044 -12.927  0.00  0.00    -0.242 NA
ATOM     20  C   UNL     1      31.459 -23.802 -15.006  0.00  0.00    +0.050 C 
ATOM     21  C   UNL     1      31.692 -23.426 -13.688  0.00  0.00    +0.025 C 
ATOM     22  C   UNL     1      30.531 -24.798 -15.286  0.00  0.00    +0.025 C 
ATOM     23  C   UNL     1      30.975 -24.072 -12.694  0.00  0.00    +0.099 C 
ATOM     24  C   UNL     1      29.866 -25.382 -14.220  0.00  0.00    +0.099 C 
ENDBRANCH   5  20
BRANCH   1  25
ATOM     25  C   UNL     1      34.505 -23.838 -15.372  0.00  0.00    +0.129 C 
BRANCH  25  26
ATOM     26  C   UNL     1      35.338 -22.832 -14.579  0.00  0.00    +0.109 C 
BRANCH  26  29
ATOM     27  O   UNL     1      37.615 -23.472 -14.970  0.00  0.00    -0.275 OA
ATOM     28  N   UNL     1      36.794 -23.814 -12.827  0.00  0.00    -0.276 N 
ATOM     29  C   UNL     1      36.688 -23.398 -14.159  0.00  0.00    +0.228 C 
ATOM     30  C   UNL     1      35.683 -23.717 -11.884  0.00  0.00    +0.115 C 
ATOM     31  C   UNL     1      38.022 -24.378 -12.281  0.00  0.00    +0.115 C 
ENDBRANCH  26  29
ENDBRANCH  25  26
ENDBRANCH   1  25
TORSDOF 5
ENDMDL
MODEL 6
REMARK VINA RESULT:     -10.0      2.713      5.816
REMARK  Name = 16755766
REMARK  5 active torsions:
REMARK  status: ('A' for Active; 'I' for Inactive)
REMARK    1  A    between atoms: N_1  and  C_25
REMARK    2  A    between atoms: N_3  and  C_12
REMARK    3  A    between atoms: C_5  and  C_20
REMARK    4  A    between atoms: C_25  and  C_26
REMARK    5  A    between atoms: C_26  and  C_29
REMARK                            x       y       z     vdW  Elec       q    Type
REMARK                         _______ _______ _______ _____ _____    ______ ____
ROOT
ATOM      1  N   UNL     1      34.840 -22.097 -17.646  0.00  0.00    -0.174 N 
ATOM      2  N   UNL     1      35.307 -22.707 -16.555  0.00  0.00    -0.096 NA
ATOM      3  N   UNL     1      37.544 -22.663 -15.695  0.00  0.00    -0.246 N 
ATOM      4  N   UNL     1      36.932 -21.518 -17.642  0.00  0.00    -0.319 NA
ATOM      5  C   UNL     1      35.796 -21.394 -18.290  0.00  0.00    +0.216 C 
ATOM      6  C   UNL     1      36.586 -22.323 -16.596  0.00  0.00    +0.165 C 
ATOM      7  H   UNL     1      38.447 -22.355 -15.940  0.00  0.00    +0.165 HD
ENDROOT
BRANCH   3  12
ATOM      8  F   UNL     1      36.589 -23.977  -9.216  0.00  0.00    -0.125 F 
ATOM      9  F   UNL     1      35.132 -25.361 -10.079  0.00  0.00    -0.125 F 
ATOM     10  O   UNL     1      35.727 -23.520 -11.262  0.00  0.00    -0.395 OA
ATOM     11  O   UNL     1      37.249 -25.358 -10.889  0.00  0.00    -0.395 OA
ATOM     12  C   UNL     1      37.494 -23.379 -14.466  0.00  0.00    +0.061 C 
ATOM     13  C   UNL     1      36.557 -23.731 -12.322  0.00  0.00    +0.183 C 
ATOM     14  C   UNL     1      36.566 -23.007 -13.498  0.00  0.00    +0.056 C 
ATOM     15  C   UNL     1      37.424 -24.779 -12.109  0.00  0.00    +0.182 C 
ATOM     16  C   UNL     1      38.381 -24.443 -14.258  0.00  0.00    +0.019 C 
ATOM     17  C   UNL     1      38.349 -25.160 -13.059  0.00  0.00    +0.042 C 
ATOM     18  C   UNL     1      36.180 -24.552 -10.374  0.00  0.00    +0.589 C 
ENDBRANCH   3  12
BRANCH   5  20
ATOM     19  N   UNL     1      35.161 -19.175 -21.843  0.00  0.00    -0.242 NA
ATOM     20  C   UNL     1      35.579 -20.640 -19.501  0.00  0.00    +0.050 C 
ATOM     21  C   UNL     1      34.314 -20.589 -20.075  0.00  0.00    +0.025 C 
ATOM     22  C   UNL     1      36.636 -19.959 -20.096  0.00  0.00    +0.025 C 
ATOM     23  C   UNL     1      34.159 -19.849 -21.236  0.00  0.00    +0.099 C 
ATOM     24  C   UNL     1      36.376 -19.248 -21.256  0.00  0.00    +0.099 C 
ENDBRANCH   5  20
BRANCH   1  25
ATOM     25  C   UNL     1      33.437 -22.253 -18.011  0.00  0.00    +0.129 C 
BRANCH  25  26
ATOM     26  C   UNL     1      32.762 -23.382 -17.233  0.00  0.00    +0.109 C 
BRANCH  26  29
ATOM     27  O   UNL     1      30.644 -22.305 -16.916  0.00  0.00    -0.275 OA
ATOM     28  N   UNL     1      31.678 -23.138 -15.015  0.00  0.00    -0.276 N 
ATOM     29  C   UNL     1      31.595 -22.888 -16.388  0.00  0.00    +0.228 C 
ATOM     30  C   UNL     1      32.814 -23.831 -14.411  0.00  0.00    +0.115 C 
ATOM     31  C   UNL     1      30.638 -22.724 -14.081  0.00  0.00    +0.115 C 
ENDBRANCH  26  29
ENDBRANCH  25  26
ENDBRANCH   1  25
TORSDOF 5
ENDMDL
MODEL 7
REMARK VINA RESULT:      -9.5      4.686      8.531
REMARK  Name = 16755766
REMARK  5 active torsions:
REMARK  status: ('A' for Active; 'I' for Inactive)
REMARK    1  A    between atoms: N_1  and  C_25
REMARK    2  A    between atoms: N_3  and  C_12
REMARK    3  A    between atoms: C_5  and  C_20
REMARK    4  A    between atoms: C_25  and  C_26
REMARK    5  A    between atoms: C_26  and  C_29
REMARK                            x       y       z     vdW  Elec       q    Type
REMARK                         _______ _______ _______ _____ _____    ______ ____
ROOT
ATOM      1  N   UNL     1      34.678 -22.720 -16.981  0.00  0.00    -0.174 N 
ATOM      2  N   UNL     1      34.846 -21.898 -18.019  0.00  0.00    -0.096 NA
ATOM      3  N   UNL     1      36.758 -20.543 -18.523  0.00  0.00    -0.246 N 
ATOM      4  N   UNL     1      36.666 -21.921 -16.633  0.00  0.00    -0.319 NA
ATOM      5  C   UNL     1      35.750 -22.735 -16.161  0.00  0.00    +0.216 C 
ATOM      6  C   UNL     1      36.072 -21.436 -17.762  0.00  0.00    +0.165 C 
ATOM      7  H   UNL     1      37.612 -20.257 -18.126  0.00  0.00    +0.165 HD
ENDROOT
BRANCH   3  12
ATOM      8  F   UNL     1      34.182 -19.616 -24.616  0.00  0.00    -0.125 F 
ATOM      9  F   UNL     1      33.331 -17.876 -23.599  0.00  0.00    -0.125 F 
ATOM     10  O   UNL     1      33.898 -19.694 -22.368  0.00  0.00    -0.395 OA
ATOM     11  O   UNL     1      35.553 -18.275 -23.406  0.00  0.00    -0.395 OA
ATOM     12  C   UNL     1      36.479 -19.943 -19.782  0.00  0.00    +0.061 C 
ATOM     13  C   UNL     1      35.029 -19.580 -21.617  0.00  0.00    +0.183 C 
ATOM     14  C   UNL     1      35.254 -20.184 -20.396  0.00  0.00    +0.056 C 
ATOM     15  C   UNL     1      35.973 -18.770 -22.210  0.00  0.00    +0.182 C 
ATOM     16  C   UNL     1      37.445 -19.122 -20.378  0.00  0.00    +0.019 C 
ATOM     17  C   UNL     1      37.192 -18.522 -21.614  0.00  0.00    +0.042 C 
ATOM     18  C   UNL     1      34.250 -18.867 -23.486  0.00  0.00    +0.589 C 
ENDBRANCH   3  12
BRANCH   5  20
ATOM     19  N   UNL     1      36.037 -25.055 -12.626  0.00  0.00    -0.242 NA
ATOM     20  C   UNL     1      35.847 -23.526 -14.958  0.00  0.00    +0.050 C 
ATOM     21  C   UNL     1      36.244 -24.857 -15.027  0.00  0.00    +0.025 C 
ATOM     22  C   UNL     1      35.545 -22.959 -13.725  0.00  0.00    +0.025 C 
ATOM     23  C   UNL     1      36.323 -25.572 -13.842  0.00  0.00    +0.099 C 
ATOM     24  C   UNL     1      35.655 -23.759 -12.599  0.00  0.00    +0.099 C 
ENDBRANCH   5  20
BRANCH   1  25
ATOM     25  C   UNL     1      33.429 -23.459 -16.845  0.00  0.00    +0.129 C 
BRANCH  25  26
ATOM     26  C   UNL     1      32.571 -22.932 -15.695  0.00  0.00    +0.109 C 
BRANCH  26  29
ATOM     27  O   UNL     1      30.591 -22.313 -16.896  0.00  0.00    -0.275 OA
ATOM     28  N   UNL     1      30.334 -23.890 -15.214  0.00  0.00    -0.276 N 
ATOM     29  C   UNL     1      31.081 -23.006 -16.000  0.00  0.00    +0.228 C 
ATOM     30  C   UNL     1      30.935 -24.701 -14.158  0.00  0.00    +0.115 C 
ATOM     31  C   UNL     1      28.897 -24.067 -15.389  0.00  0.00    +0.115 C 
ENDBRANCH  26  29
ENDBRANCH  25  26
ENDBRANCH   1  25
TORSDOF 5
ENDMDL
MODEL 8
REMARK VINA RESULT:      -9.2      2.018      2.656
REMARK  Name = 16755766
REMARK  5 active torsions:
REMARK  status: ('A' for Active; 'I' for Inactive)
REMARK    1  A    between atoms: N_1  and  C_25
REMARK    2  A    between atoms: N_3  and  C_12
REMARK    3  A    between atoms: C_5  and  C_20
REMARK    4  A    between atoms: C_25  and  C_26
REMARK    5  A    between atoms: C_26  and  C_29
REMARK                            x       y       z     vdW  Elec       q    Type
REMARK                         _______ _______ _______ _____ _____    ______ ____
ROOT
ATOM      1  N   UNL     1      34.477 -23.245 -15.616  0.00  0.00    -0.174 N 
ATOM      2  N   UNL     1      35.632 -23.859 -15.355  0.00  0.00    -0.096 NA
ATOM      3  N   UNL     1      36.014 -25.694 -13.862  0.00  0.00    -0.246 N 
ATOM      4  N   UNL     1      33.892 -24.755 -14.171  0.00  0.00    -0.319 NA
ATOM      5  C   UNL     1      33.447 -23.771 -14.918  0.00  0.00    +0.216 C 
ATOM      6  C   UNL     1      35.224 -24.771 -14.470  0.00  0.00    +0.165 C 
ATOM      7  H   UNL     1      35.548 -26.225 -13.175  0.00  0.00    +0.165 HD
ENDROOT
BRANCH   3  12
ATOM      8  F   UNL     1      41.533 -29.406 -14.477  0.00  0.00    -0.125 F 
ATOM      9  F   UNL     1      41.552 -28.412 -16.426  0.00  0.00    -0.125 F 
ATOM     10  O   UNL     1      39.575 -28.662 -15.344  0.00  0.00    -0.395 OA
ATOM     11  O   UNL     1      41.289 -27.153 -14.559  0.00  0.00    -0.395 OA
ATOM     12  C   UNL     1      37.384 -26.041 -14.026  0.00  0.00    +0.061 C 
ATOM     13  C   UNL     1      39.056 -27.538 -14.775  0.00  0.00    +0.183 C 
ATOM     14  C   UNL     1      37.714 -27.246 -14.639  0.00  0.00    +0.056 C 
ATOM     15  C   UNL     1      40.035 -26.677 -14.327  0.00  0.00    +0.182 C 
ATOM     16  C   UNL     1      38.372 -25.160 -13.568  0.00  0.00    +0.019 C 
ATOM     17  C   UNL     1      39.723 -25.479 -13.719  0.00  0.00    +0.042 C 
ATOM     18  C   UNL     1      40.977 -28.399 -15.197  0.00  0.00    +0.589 C 
ENDBRANCH   3  12
BRANCH   5  20
ATOM     19  N   UNL     1      29.444 -22.402 -15.142  0.00  0.00    -0.242 NA
ATOM     20  C   UNL     1      32.085 -23.304 -14.996  0.00  0.00    +0.050 C 
ATOM     21  C   UNL     1      31.431 -23.257 -16.222  0.00  0.00    +0.025 C 
ATOM     22  C   UNL     1      31.420 -22.901 -13.843  0.00  0.00    +0.025 C 
ATOM     23  C   UNL     1      30.122 -22.802 -16.241  0.00  0.00    +0.099 C 
ATOM     24  C   UNL     1      30.112 -22.462 -13.969  0.00  0.00    +0.099 C 
ENDBRANCH   5  20
BRANCH   1  25
ATOM     25  C   UNL     1      34.451 -22.132 -16.558  0.00  0.00    +0.129 C 
BRANCH  25  26
ATOM     26  C   UNL     1      34.521 -22.605 -18.009  0.00  0.00    +0.109 C 
BRANCH  26  29
ATOM     27  O   UNL     1      36.481 -21.568 -18.920  0.00  0.00    -0.275 OA
ATOM     28  N   UNL     1      34.439 -20.789 -19.697  0.00  0.00    -0.276 N 
ATOM     29  C   UNL     1      35.247 -21.615 -18.909  0.00  0.00    +0.228 C 
ATOM     30  C   UNL     1      32.980 -20.861 -19.668  0.00  0.00    +0.115 C 
ATOM     31  C   UNL     1      34.991 -19.791 -20.605  0.00  0.00    +0.115 C 
ENDBRANCH  26  29
ENDBRANCH  25  26
ENDBRANCH   1  25
TORSDOF 5
ENDMDL
MODEL 9
REMARK VINA RESULT:      -9.1      4.828      8.747
REMARK  Name = 16755766
REMARK  5 active torsions:
REMARK  status: ('A' for Active; 'I' for Inactive)
REMARK    1  A    between atoms: N_1  and  C_25
REMARK    2  A    between atoms: N_3  and  C_12
REMARK    3  A    between atoms: C_5  and  C_20
REMARK    4  A    between atoms: C_25  and  C_26
REMARK    5  A    between atoms: C_26  and  C_29
REMARK                            x       y       z     vdW  Elec       q    Type
REMARK                         _______ _______ _______ _____ _____    ______ ____
ROOT
ATOM      1  N   UNL     1      34.898 -24.562 -13.912  0.00  0.00    -0.174 N 
ATOM      2  N   UNL     1      33.602 -24.542 -14.228  0.00  0.00    -0.096 NA
ATOM      3  N   UNL     1      31.794 -23.629 -12.945  0.00  0.00    -0.246 N 
ATOM      4  N   UNL     1      34.012 -23.565 -12.200  0.00  0.00    -0.319 NA
ATOM      5  C   UNL     1      35.144 -23.986 -12.715  0.00  0.00    +0.216 C 
ATOM      6  C   UNL     1      33.104 -23.924 -13.154  0.00  0.00    +0.165 C 
ATOM      7  H   UNL     1      31.609 -23.249 -12.056  0.00  0.00    +0.165 HD
ENDROOT
BRANCH   3  12
ATOM      8  F   UNL     1      26.123 -22.100 -16.126  0.00  0.00    -0.125 F 
ATOM      9  F   UNL     1      27.397 -22.527 -17.853  0.00  0.00    -0.125 F 
ATOM     10  O   UNL     1      28.367 -21.861 -15.915  0.00  0.00    -0.395 OA
ATOM     11  O   UNL     1      27.322 -24.024 -16.153  0.00  0.00    -0.395 OA
ATOM     12  C   UNL     1      30.639 -23.765 -13.765  0.00  0.00    +0.061 C 
ATOM     13  C   UNL     1      29.008 -22.828 -15.201  0.00  0.00    +0.183 C 
ATOM     14  C   UNL     1      30.131 -22.647 -14.418  0.00  0.00    +0.056 C 
ATOM     15  C   UNL     1      28.412 -24.062 -15.338  0.00  0.00    +0.182 C 
ATOM     16  C   UNL     1      30.039 -25.024 -13.898  0.00  0.00    +0.019 C 
ATOM     17  C   UNL     1      28.904 -25.181 -14.698  0.00  0.00    +0.042 C 
ATOM     18  C   UNL     1      27.312 -22.633 -16.503  0.00  0.00    +0.589 C 
ENDBRANCH   3  12
BRANCH   5  20
ATOM     19  N   UNL     1      38.983 -23.650 -10.954  0.00  0.00    -0.242 NA
ATOM     20  C   UNL     1      36.452 -23.871 -12.118  0.00  0.00    +0.050 C 
ATOM     21  C   UNL     1      37.160 -22.678 -12.211  0.00  0.00    +0.025 C 
ATOM     22  C   UNL     1      37.007 -24.953 -11.443  0.00  0.00    +0.025 C 
ATOM     23  C   UNL     1      38.411 -22.620 -11.617  0.00  0.00    +0.099 C 
ATOM     24  C   UNL     1      38.265 -24.792 -10.885  0.00  0.00    +0.099 C 
ENDBRANCH   5  20
BRANCH   1  25
ATOM     25  C   UNL     1      35.852 -25.176 -14.829  0.00  0.00    +0.129 C 
BRANCH  25  26
ATOM     26  C   UNL     1      36.309 -26.552 -14.347  0.00  0.00    +0.109 C 
BRANCH  26  29
ATOM     27  O   UNL     1      36.582 -27.742 -16.410  0.00  0.00    -0.275 OA
ATOM     28  N   UNL     1      38.494 -27.424 -15.135  0.00  0.00    -0.276 N 
ATOM     29  C   UNL     1      37.126 -27.294 -15.397  0.00  0.00    +0.228 C 
ATOM     30  C   UNL     1      39.116 -26.884 -13.929  0.00  0.00    +0.115 C 
ATOM     31  C   UNL     1      39.402 -28.109 -16.047  0.00  0.00    +0.115 C 
ENDBRANCH  26  29
ENDBRANCH  25  26
ENDBRANCH   1  25
TORSDOF 5
ENDMDL
