MODEL 1
REMARK VINA RESULT:     -11.5      0.000      0.000
REMARK  Name = 46937134
REMARK  9 active torsions:
REMARK  status: ('A' for Active; 'I' for Inactive)
REMARK    1  A    between atoms: N_2  and  C_15
REMARK    2  A    between atoms: N_6  and  C_29
REMARK    3  A    between atoms: C_16  and  O_19
REMARK    4  A    between atoms: C_18  and  C_21
REMARK    5  A    between atoms: C_21  and  O_22
REMARK    6  A    between atoms: O_22  and  P_23
REMARK    7  A    between atoms: P_23  and  O_25
REMARK    8  A    between atoms: P_23  and  O_27
REMARK    9  A    between atoms: C_29  and  C_30
REMARK                            x       y       z     vdW  Elec       q    Type
REMARK                         _______ _______ _______ _____ _____    ______ ____
ROOT
ATOM      1  O   UNL     1      37.031 -22.729 -13.840  0.00  0.00    -0.208 OA
ATOM      2  N   UNL     1      32.864 -24.477 -13.744  0.00  0.00    -0.209 NA
ATOM      3  N   UNL     1      33.561 -23.431 -15.826  0.00  0.00    -0.279 N 
ATOM      4  N   UNL     1      34.754 -24.121 -12.587  0.00  0.00    -0.241 NA
ATOM      5  N   UNL     1      35.786 -22.530 -15.784  0.00  0.00    -0.301 NA
ATOM      6  N   UNL     1      34.425 -22.400 -17.677  0.00  0.00    -0.292 N 
ATOM      7  C   UNL     1      33.723 -23.826 -14.560  0.00  0.00    +0.191 C 
ATOM      8  C   UNL     1      33.536 -24.634 -12.553  0.00  0.00    +0.205 C 
ATOM      9  C   UNL     1      34.869 -23.614 -13.851  0.00  0.00    +0.183 C 
ATOM     10  C   UNL     1      34.645 -22.774 -16.403  0.00  0.00    +0.248 C 
ATOM     11  C   UNL     1      35.993 -22.929 -14.458  0.00  0.00    +0.224 C 
ATOM     12  H   UNL     1      32.724 -23.594 -16.321  0.00  0.00    +0.152 HD
ATOM     13  H   UNL     1      33.553 -22.609 -18.084  0.00  0.00    +0.151 HD
ENDROOT
BRANCH   2  15
ATOM     14  O   UNL     1      30.939 -24.336 -15.245  0.00  0.00    -0.338 OA
ATOM     15  C   UNL     1      31.462 -24.941 -14.047  0.00  0.00    +0.182 C 
ATOM     16  C   UNL     1      29.159 -24.571 -13.685  0.00  0.00    +0.144 C 
ATOM     17  C   UNL     1      30.470 -24.617 -12.934  0.00  0.00    +0.079 C 
ATOM     18  C   UNL     1      29.557 -23.982 -15.033  0.00  0.00    +0.174 C 
BRANCH  16  19
ATOM     19  O   UNL     1      28.694 -25.906 -13.865  0.00  0.00    -0.382 OA
ATOM     20  H   UNL     1      27.723 -25.911 -13.880  0.00  0.00    +0.210 HD
ENDBRANCH  16  19
BRANCH  18  21
ATOM     21  C   UNL     1      29.451 -22.464 -15.066  0.00  0.00    +0.186 C 
BRANCH  21  22
ATOM     22  O   UNL     1      28.807 -22.080 -16.270  0.00  0.00    -0.271 OA
BRANCH  22  23
ATOM     23  P   UNL     1      27.222 -22.372 -16.425  0.00  0.00    +0.473 P 
ATOM     24  O   UNL     1      26.493 -22.610 -15.135  0.00  0.00    -0.227 OA
BRANCH  23  25
ATOM     25  O   UNL     1      26.703 -21.101 -17.278  0.00  0.00    -0.303 OA
ATOM     26  H   UNL     1      26.386 -20.412 -16.672  0.00  0.00    +0.222 HD
ENDBRANCH  23  25
BRANCH  23  27
ATOM     27  O   UNL     1      27.159 -23.587 -17.490  0.00  0.00    -0.303 OA
ATOM     28  H   UNL     1      27.911 -23.523 -18.099  0.00  0.00    +0.222 HD
ENDBRANCH  23  27
ENDBRANCH  22  23
ENDBRANCH  21  22
ENDBRANCH  18  21
ENDBRANCH   2  15
BRANCH   6  29
ATOM     29  C   UNL     1      35.409 -21.704 -18.474  0.00  0.00    +0.117 C 
BRANCH  29  30
ATOM     30  C   UNL     1      34.749 -20.910 -19.559  0.00  0.00    -0.003 C 
ATOM     31  C   UNL     1      35.468 -20.019 -20.372  0.00  0.00    -0.002 C 
ATOM     32  C   UNL     1      34.786 -19.297 -21.380  0.00  0.00    -0.000 C 
ATOM     33  C   UNL     1      33.378 -21.088 -19.738  0.00  0.00    -0.003 C 
ATOM     34  C   UNL     1      36.850 -19.827 -20.207  0.00  0.00    -0.000 C 
ATOM     35  C   UNL     1      33.404 -19.488 -21.545  0.00  0.00    -0.000 C 
ATOM     36  C   UNL     1      32.706 -20.379 -20.729  0.00  0.00    -0.000 C 
ATOM     37  C   UNL     1      35.504 -18.405 -22.193  0.00  0.00    -0.000 C 
ATOM     38  C   UNL     1      37.548 -18.937 -21.023  0.00  0.00    -0.000 C 
ATOM     39  C   UNL     1      36.876 -18.228 -22.014  0.00  0.00    -0.000 C 
ENDBRANCH  29  30
ENDBRANCH   6  29
TORSDOF 9
ENDMDL
MODEL 2
REMARK VINA RESULT:     -10.8      3.521      6.490
REMARK  Name = 46937134
REMARK  9 active torsions:
REMARK  status: ('A' for Active; 'I' for Inactive)
REMARK    1  A    between atoms: N_2  and  C_15
REMARK    2  A    between atoms: N_6  and  C_29
REMARK    3  A    between atoms: C_16  and  O_19
REMARK    4  A    between atoms: C_18  and  C_21
REMARK    5  A    between atoms: C_21  and  O_22
REMARK    6  A    between atoms: O_22  and  P_23
REMARK    7  A    between atoms: P_23  and  O_25
REMARK    8  A    between atoms: P_23  and  O_27
REMARK    9  A    between atoms: C_29  and  C_30
REMARK                            x       y       z     vdW  Elec       q    Type
REMARK                         _______ _______ _______ _____ _____    ______ ____
ROOT
ATOM      1  O   UNL     1      30.777 -22.633 -16.874  0.00  0.00    -0.208 OA
ATOM      2  N   UNL     1      34.530 -23.749 -14.617  0.00  0.00    -0.209 NA
ATOM      3  N   UNL     1      34.834 -22.758 -16.817  0.00  0.00    -0.279 N 
ATOM      4  N   UNL     1      32.287 -23.711 -14.582  0.00  0.00    -0.241 NA
ATOM      5  N   UNL     1      32.788 -22.199 -17.941  0.00  0.00    -0.301 NA
ATOM      6  N   UNL     1      34.882 -21.813 -18.900  0.00  0.00    -0.292 N 
ATOM      7  C   UNL     1      34.116 -23.209 -15.785  0.00  0.00    +0.191 C 
ATOM      8  C   UNL     1      33.381 -24.039 -13.917  0.00  0.00    +0.205 C 
ATOM      9  C   UNL     1      32.752 -23.188 -15.756  0.00  0.00    +0.183 C 
ATOM     10  C   UNL     1      34.107 -22.253 -17.891  0.00  0.00    +0.248 C 
ATOM     11  C   UNL     1      32.002 -22.661 -16.879  0.00  0.00    +0.224 C 
ATOM     12  H   UNL     1      35.819 -22.781 -16.817  0.00  0.00    +0.152 HD
ATOM     13  H   UNL     1      35.859 -21.881 -18.806  0.00  0.00    +0.151 HD
ENDROOT
BRANCH   2  15
ATOM     14  O   UNL     1      36.639 -24.924 -15.007  0.00  0.00    -0.338 OA
ATOM     15  C   UNL     1      35.945 -23.994 -14.154  0.00  0.00    +0.182 C 
ATOM     16  C   UNL     1      37.351 -25.286 -12.766  0.00  0.00    +0.144 C 
ATOM     17  C   UNL     1      36.022 -24.567 -12.742  0.00  0.00    +0.079 C 
ATOM     18  C   UNL     1      37.427 -25.816 -14.193  0.00  0.00    +0.174 C 
BRANCH  16  19
ATOM     19  O   UNL     1      38.386 -24.329 -12.556  0.00  0.00    -0.382 OA
ATOM     20  H   UNL     1      37.994 -23.479 -12.298  0.00  0.00    +0.210 HD
ENDBRANCH  16  19
BRANCH  18  21
ATOM     21  C   UNL     1      36.843 -27.216 -14.332  0.00  0.00    +0.186 C 
BRANCH  21  22
ATOM     22  O   UNL     1      37.905 -28.130 -14.549  0.00  0.00    -0.271 OA
BRANCH  22  23
ATOM     23  P   UNL     1      38.315 -28.489 -16.074  0.00  0.00    +0.473 P 
ATOM     24  O   UNL     1      38.747 -29.908 -16.296  0.00  0.00    -0.227 OA
BRANCH  23  25
ATOM     25  O   UNL     1      37.013 -28.031 -16.916  0.00  0.00    -0.303 OA
ATOM     26  H   UNL     1      37.147 -27.131 -17.255  0.00  0.00    +0.222 HD
ENDBRANCH  23  25
BRANCH  23  27
ATOM     27  O   UNL     1      39.416 -27.364 -16.448  0.00  0.00    -0.303 OA
ATOM     28  H   UNL     1      40.170 -27.785 -16.889  0.00  0.00    +0.222 HD
ENDBRANCH  23  27
ENDBRANCH  22  23
ENDBRANCH  21  22
ENDBRANCH  18  21
ENDBRANCH   2  15
BRANCH   6  29
ATOM     29  C   UNL     1      34.344 -21.248 -20.117  0.00  0.00    +0.117 C 
BRANCH  29  30
ATOM     30  C   UNL     1      35.207 -20.128 -20.609  0.00  0.00    -0.003 C 
ATOM     31  C   UNL     1      34.889 -19.394 -21.763  0.00  0.00    -0.002 C 
ATOM     32  C   UNL     1      35.747 -18.347 -22.177  0.00  0.00    -0.000 C 
ATOM     33  C   UNL     1      36.354 -19.832 -19.872  0.00  0.00    -0.003 C 
ATOM     34  C   UNL     1      33.739 -19.678 -22.518  0.00  0.00    -0.000 C 
ATOM     35  C   UNL     1      36.898 -18.065 -21.423  0.00  0.00    -0.000 C 
ATOM     36  C   UNL     1      37.197 -18.803 -20.277  0.00  0.00    -0.000 C 
ATOM     37  C   UNL     1      35.430 -17.614 -23.332  0.00  0.00    -0.000 C 
ATOM     38  C   UNL     1      33.439 -18.939 -23.663  0.00  0.00    -0.000 C 
ATOM     39  C   UNL     1      34.282 -17.909 -24.068  0.00  0.00    -0.000 C 
ENDBRANCH  29  30
ENDBRANCH   6  29
TORSDOF 9
ENDMDL
MODEL 3
REMARK VINA RESULT:     -10.3      3.002      6.142
REMARK  Name = 46937134
REMARK  9 active torsions:
REMARK  status: ('A' for Active; 'I' for Inactive)
REMARK    1  A    between atoms: N_2  and  C_15
REMARK    2  A    between atoms: N_6  and  C_29
REMARK    3  A    between atoms: C_16  and  O_19
REMARK    4  A    between atoms: C_18  and  C_21
REMARK    5  A    between atoms: C_21  and  O_22
REMARK    6  A    between atoms: O_22  and  P_23
REMARK    7  A    between atoms: P_23  and  O_25
REMARK    8  A    between atoms: P_23  and  O_27
REMARK    9  A    between atoms: C_29  and  C_30
REMARK                            x       y       z     vdW  Elec       q    Type
REMARK                         _______ _______ _______ _____ _____    ______ ____
ROOT
ATOM      1  O   UNL     1      30.715 -22.353 -16.936  0.00  0.00    -0.208 OA
ATOM      2  N   UNL     1      34.591 -23.928 -15.227  0.00  0.00    -0.209 NA
ATOM      3  N   UNL     1      34.736 -22.738 -17.344  0.00  0.00    -0.279 N 
ATOM      4  N   UNL     1      32.373 -23.752 -14.939  0.00  0.00    -0.241 NA
ATOM      5  N   UNL     1      32.630 -21.940 -18.175  0.00  0.00    -0.301 NA
ATOM      6  N   UNL     1      34.634 -21.591 -19.321  0.00  0.00    -0.292 N 
ATOM      7  C   UNL     1      34.097 -23.246 -16.286  0.00  0.00    +0.191 C 
ATOM      8  C   UNL     1      33.503 -24.215 -14.434  0.00  0.00    +0.205 C 
ATOM      9  C   UNL     1      32.750 -23.143 -16.103  0.00  0.00    +0.183 C 
ATOM     10  C   UNL     1      33.938 -22.082 -18.278  0.00  0.00    +0.248 C 
ATOM     11  C   UNL     1      31.927 -22.458 -17.080  0.00  0.00    +0.224 C 
ATOM     12  H   UNL     1      35.711 -22.824 -17.456  0.00  0.00    +0.152 HD
ATOM     13  H   UNL     1      35.608 -21.729 -19.343  0.00  0.00    +0.151 HD
ENDROOT
BRANCH   2  15
ATOM     14  O   UNL     1      36.242 -24.624 -13.562  0.00  0.00    -0.338 OA
ATOM     15  C   UNL     1      36.024 -24.307 -14.951  0.00  0.00    +0.182 C 
ATOM     16  C   UNL     1      38.180 -23.525 -14.395  0.00  0.00    +0.144 C 
ATOM     17  C   UNL     1      37.014 -23.200 -15.299  0.00  0.00    +0.079 C 
ATOM     18  C   UNL     1      37.502 -24.063 -13.141  0.00  0.00    +0.174 C 
BRANCH  16  19
ATOM     19  O   UNL     1      38.950 -24.559 -15.003  0.00  0.00    -0.382 OA
ATOM     20  H   UNL     1      39.854 -24.239 -15.160  0.00  0.00    +0.210 HD
ENDBRANCH  16  19
BRANCH  18  21
ATOM     21  C   UNL     1      37.211 -22.974 -12.116  0.00  0.00    +0.186 C 
BRANCH  21  22
ATOM     22  O   UNL     1      37.247 -23.549 -10.821  0.00  0.00    -0.271 OA
BRANCH  22  23
ATOM     23  P   UNL     1      36.003 -24.472 -10.351  0.00  0.00    +0.473 P 
ATOM     24  O   UNL     1      35.753 -24.493  -8.871  0.00  0.00    -0.227 OA
BRANCH  23  25
ATOM     25  O   UNL     1      34.778 -23.909 -11.243  0.00  0.00    -0.303 OA
ATOM     26  H   UNL     1      33.938 -24.238 -10.884  0.00  0.00    +0.222 HD
ENDBRANCH  23  25
BRANCH  23  27
ATOM     27  O   UNL     1      36.319 -25.911 -11.019  0.00  0.00    -0.303 OA
ATOM     28  H   UNL     1      36.238 -25.844 -11.983  0.00  0.00    +0.222 HD
ENDBRANCH  23  27
ENDBRANCH  22  23
ENDBRANCH  21  22
ENDBRANCH  18  21
ENDBRANCH   2  15
BRANCH   6  29
ATOM     29  C   UNL     1      34.015 -20.872 -20.411  0.00  0.00    +0.117 C 
BRANCH  29  30
ATOM     30  C   UNL     1      34.937 -19.821 -20.946  0.00  0.00    -0.003 C 
ATOM     31  C   UNL     1      34.676 -19.141 -22.146  0.00  0.00    -0.002 C 
ATOM     32  C   UNL     1      35.588 -18.159 -22.599  0.00  0.00    -0.000 C 
ATOM     33  C   UNL     1      36.081 -19.535 -20.201  0.00  0.00    -0.003 C 
ATOM     34  C   UNL     1      33.529 -19.416 -22.909  0.00  0.00    -0.000 C 
ATOM     35  C   UNL     1      36.735 -17.885 -21.837  0.00  0.00    -0.000 C 
ATOM     36  C   UNL     1      36.979 -18.569 -20.645  0.00  0.00    -0.000 C 
ATOM     37  C   UNL     1      35.327 -17.479 -23.800  0.00  0.00    -0.000 C 
ATOM     38  C   UNL     1      33.285 -18.732 -24.100  0.00  0.00    -0.000 C 
ATOM     39  C   UNL     1      34.182 -17.765 -24.544  0.00  0.00    -0.000 C 
ENDBRANCH  29  30
ENDBRANCH   6  29
TORSDOF 9
ENDMDL
MODEL 4
REMARK VINA RESULT:      -9.6      4.340      8.581
REMARK  Name = 46937134
REMARK  9 active torsions:
REMARK  status: ('A' for Active; 'I' for Inactive)
REMARK    1  A    between atoms: N_2  and  C_15
REMARK    2  A    between atoms: N_6  and  C_29
REMARK    3  A    between atoms: C_16  and  O_19
REMARK    4  A    between atoms: C_18  and  C_21
REMARK    5  A    between atoms: C_21  and  O_22
REMARK    6  A    between atoms: O_22  and  P_23
REMARK    7  A    between atoms: P_23  and  O_25
REMARK    8  A    between atoms: P_23  and  O_27
REMARK    9  A    between atoms: C_29  and  C_30
REMARK                            x       y       z     vdW  Elec       q    Type
REMARK                         _______ _______ _______ _____ _____    ______ ____
ROOT
ATOM      1  O   UNL     1      34.189 -24.392 -11.551  0.00  0.00    -0.208 OA
ATOM      2  N   UNL     1      33.099 -23.396 -15.823  0.00  0.00    -0.209 NA
ATOM      3  N   UNL     1      35.416 -24.007 -15.401  0.00  0.00    -0.279 N 
ATOM      4  N   UNL     1      32.354 -23.590 -13.715  0.00  0.00    -0.241 NA
ATOM      5  N   UNL     1      35.902 -24.517 -13.107  0.00  0.00    -0.301 NA
ATOM      6  N   UNL     1      37.534 -24.606 -14.775  0.00  0.00    -0.292 N 
ATOM      7  C   UNL     1      34.147 -23.773 -15.055  0.00  0.00    +0.191 C 
ATOM      8  C   UNL     1      32.029 -23.298 -14.962  0.00  0.00    +0.205 C 
ATOM      9  C   UNL     1      33.687 -23.889 -13.776  0.00  0.00    +0.183 C 
ATOM     10  C   UNL     1      36.270 -24.384 -14.368  0.00  0.00    +0.248 C 
ATOM     11  C   UNL     1      34.582 -24.282 -12.706  0.00  0.00    +0.224 C 
ATOM     12  H   UNL     1      35.728 -23.917 -16.332  0.00  0.00    +0.152 HD
ATOM     13  H   UNL     1      37.747 -24.489 -15.729  0.00  0.00    +0.151 HD
ENDROOT
BRANCH   2  15
ATOM     14  O   UNL     1      34.370 -23.347 -17.911  0.00  0.00    -0.338 OA
ATOM     15  C   UNL     1      33.081 -23.133 -17.308  0.00  0.00    +0.182 C 
ATOM     16  C   UNL     1      33.324 -21.515 -19.008  0.00  0.00    +0.144 C 
ATOM     17  C   UNL     1      32.675 -21.705 -17.657  0.00  0.00    +0.079 C 
ATOM     18  C   UNL     1      34.618 -22.309 -18.882  0.00  0.00    +0.174 C 
BRANCH  16  19
ATOM     19  O   UNL     1      32.490 -22.113 -19.998  0.00  0.00    -0.382 OA
ATOM     20  H   UNL     1      32.956 -22.122 -20.850  0.00  0.00    +0.210 HD
ENDBRANCH  16  19
BRANCH  18  21
ATOM     21  C   UNL     1      35.780 -21.464 -18.378  0.00  0.00    +0.186 C 
BRANCH  21  22
ATOM     22  O   UNL     1      36.479 -22.198 -17.387  0.00  0.00    -0.271 OA
BRANCH  22  23
ATOM     23  P   UNL     1      37.505 -21.405 -16.419  0.00  0.00    +0.473 P 
ATOM     24  O   UNL     1      37.937 -20.058 -16.921  0.00  0.00    -0.227 OA
BRANCH  23  25
ATOM     25  O   UNL     1      36.727 -21.388 -15.002  0.00  0.00    -0.303 OA
ATOM     26  H   UNL     1      36.700 -22.287 -14.637  0.00  0.00    +0.222 HD
ENDBRANCH  23  25
BRANCH  23  27
ATOM     27  O   UNL     1      38.700 -22.468 -16.175  0.00  0.00    -0.303 OA
ATOM     28  H   UNL     1      38.548 -23.255 -16.720  0.00  0.00    +0.222 HD
ENDBRANCH  23  27
ENDBRANCH  22  23
ENDBRANCH  21  22
ENDBRANCH  18  21
ENDBRANCH   2  15
BRANCH   6  29
ATOM     29  C   UNL     1      38.591 -25.007 -13.875  0.00  0.00    +0.117 C 
BRANCH  29  30
ATOM     30  C   UNL     1      39.093 -26.374 -14.223  0.00  0.00    -0.003 C 
ATOM     31  C   UNL     1      38.746 -27.509 -13.472  0.00  0.00    -0.002 C 
ATOM     32  C   UNL     1      39.256 -28.774 -13.852  0.00  0.00    -0.000 C 
ATOM     33  C   UNL     1      39.929 -26.486 -15.334  0.00  0.00    -0.003 C 
ATOM     34  C   UNL     1      37.907 -27.417 -12.350  0.00  0.00    -0.000 C 
ATOM     35  C   UNL     1      40.097 -28.866 -14.973  0.00  0.00    -0.000 C 
ATOM     36  C   UNL     1      40.430 -27.728 -15.709  0.00  0.00    -0.000 C 
ATOM     37  C   UNL     1      38.910 -29.908 -13.100  0.00  0.00    -0.000 C 
ATOM     38  C   UNL     1      37.573 -28.554 -11.614  0.00  0.00    -0.000 C 
ATOM     39  C   UNL     1      38.073 -29.797 -11.989  0.00  0.00    -0.000 C 
ENDBRANCH  29  30
ENDBRANCH   6  29
TORSDOF 9
ENDMDL
MODEL 5
REMARK VINA RESULT:      -9.6      4.043      6.817
REMARK  Name = 46937134
REMARK  9 active torsions:
REMARK  status: ('A' for Active; 'I' for Inactive)
REMARK    1  A    between atoms: N_2  and  C_15
REMARK    2  A    between atoms: N_6  and  C_29
REMARK    3  A    between atoms: C_16  and  O_19
REMARK    4  A    between atoms: C_18  and  C_21
REMARK    5  A    between atoms: C_21  and  O_22
REMARK    6  A    between atoms: O_22  and  P_23
REMARK    7  A    between atoms: P_23  and  O_25
REMARK    8  A    between atoms: P_23  and  O_27
REMARK    9  A    between atoms: C_29  and  C_30
REMARK                            x       y       z     vdW  Elec       q    Type
REMARK                         _______ _______ _______ _____ _____    ______ ____
ROOT
ATOM      1  O   UNL     1      31.752 -20.445 -20.637  0.00  0.00    -0.208 OA
ATOM      2  N   UNL     1      34.804 -22.177 -17.790  0.00  0.00    -0.209 NA
ATOM      3  N   UNL     1      35.634 -20.622 -19.465  0.00  0.00    -0.279 N 
ATOM      4  N   UNL     1      32.641 -22.127 -18.385  0.00  0.00    -0.241 NA
ATOM      5  N   UNL     1      33.944 -19.755 -20.933  0.00  0.00    -0.301 NA
ATOM      6  N   UNL     1      36.189 -19.141 -21.119  0.00  0.00    -0.292 N 
ATOM      7  C   UNL     1      34.692 -21.332 -18.839  0.00  0.00    +0.191 C 
ATOM      8  C   UNL     1      33.529 -22.637 -17.549  0.00  0.00    +0.205 C 
ATOM      9  C   UNL     1      33.375 -21.306 -19.195  0.00  0.00    +0.183 C 
ATOM     10  C   UNL     1      35.198 -19.833 -20.527  0.00  0.00    +0.248 C 
ATOM     11  C   UNL     1      32.929 -20.484 -20.301  0.00  0.00    +0.224 C 
ATOM     12  H   UNL     1      36.580 -20.654 -19.192  0.00  0.00    +0.152 HD
ATOM     13  H   UNL     1      37.105 -19.241 -20.772  0.00  0.00    +0.151 HD
ENDROOT
BRANCH   2  15
ATOM     14  O   UNL     1      35.800 -23.594 -16.062  0.00  0.00    -0.338 OA
ATOM     15  C   UNL     1      36.050 -22.554 -17.027  0.00  0.00    +0.182 C 
ATOM     16  C   UNL     1      37.406 -22.096 -15.151  0.00  0.00    +0.144 C 
ATOM     17  C   UNL     1      36.654 -21.387 -16.254  0.00  0.00    +0.079 C 
ATOM     18  C   UNL     1      36.519 -23.297 -14.849  0.00  0.00    +0.174 C 
BRANCH  16  19
ATOM     19  O   UNL     1      38.656 -22.543 -15.672  0.00  0.00    -0.382 OA
ATOM     20  H   UNL     1      39.287 -21.806 -15.675  0.00  0.00    +0.210 HD
ENDBRANCH  16  19
BRANCH  18  21
ATOM     21  C   UNL     1      35.497 -23.013 -13.756  0.00  0.00    +0.186 C 
BRANCH  21  22
ATOM     22  O   UNL     1      36.103 -23.248 -12.496  0.00  0.00    -0.271 OA
BRANCH  22  23
ATOM     23  P   UNL     1      35.532 -24.453 -11.577  0.00  0.00    +0.473 P 
ATOM     24  O   UNL     1      35.695 -24.253 -10.099  0.00  0.00    -0.227 OA
BRANCH  23  25
ATOM     25  O   UNL     1      34.003 -24.599 -12.083  0.00  0.00    -0.303 OA
ATOM     26  H   UNL     1      33.970 -24.489 -13.046  0.00  0.00    +0.222 HD
ENDBRANCH  23  25
BRANCH  23  27
ATOM     27  O   UNL     1      36.252 -25.769 -12.181  0.00  0.00    -0.303 OA
ATOM     28  H   UNL     1      35.841 -26.563 -11.805  0.00  0.00    +0.222 HD
ENDBRANCH  23  27
ENDBRANCH  22  23
ENDBRANCH  21  22
ENDBRANCH  18  21
ENDBRANCH   2  15
BRANCH   6  29
ATOM     29  C   UNL     1      35.970 -18.258 -22.242  0.00  0.00    +0.117 C 
BRANCH  29  30
ATOM     30  C   UNL     1      35.350 -16.971 -21.791  0.00  0.00    -0.003 C 
ATOM     31  C   UNL     1      34.799 -16.052 -22.699  0.00  0.00    -0.002 C 
ATOM     32  C   UNL     1      34.229 -14.852 -22.210  0.00  0.00    -0.000 C 
ATOM     33  C   UNL     1      35.337 -16.712 -20.421  0.00  0.00    -0.003 C 
ATOM     34  C   UNL     1      34.804 -16.295 -24.082  0.00  0.00    -0.000 C 
ATOM     35  C   UNL     1      34.226 -14.608 -20.827  0.00  0.00    -0.000 C 
ATOM     36  C   UNL     1      34.776 -15.533 -19.940  0.00  0.00    -0.000 C 
ATOM     37  C   UNL     1      33.679 -13.932 -23.118  0.00  0.00    -0.000 C 
ATOM     38  C   UNL     1      34.253 -15.371 -24.970  0.00  0.00    -0.000 C 
ATOM     39  C   UNL     1      33.691 -14.192 -24.488  0.00  0.00    -0.000 C 
ENDBRANCH  29  30
ENDBRANCH   6  29
TORSDOF 9
ENDMDL
MODEL 6
REMARK VINA RESULT:      -9.6      4.093      8.261
REMARK  Name = 46937134
REMARK  9 active torsions:
REMARK  status: ('A' for Active; 'I' for Inactive)
REMARK    1  A    between atoms: N_2  and  C_15
REMARK    2  A    between atoms: N_6  and  C_29
REMARK    3  A    between atoms: C_16  and  O_19
REMARK    4  A    between atoms: C_18  and  C_21
REMARK    5  A    between atoms: C_21  and  O_22
REMARK    6  A    between atoms: O_22  and  P_23
REMARK    7  A    between atoms: P_23  and  O_25
REMARK    8  A    between atoms: P_23  and  O_27
REMARK    9  A    between atoms: C_29  and  C_30
REMARK                            x       y       z     vdW  Elec       q    Type
REMARK                         _______ _______ _______ _____ _____    ______ ____
ROOT
ATOM      1  O   UNL     1      31.713 -24.270 -12.998  0.00  0.00    -0.208 OA
ATOM      2  N   UNL     1      32.507 -22.738 -17.175  0.00  0.00    -0.209 NA
ATOM      3  N   UNL     1      34.357 -23.845 -16.048  0.00  0.00    -0.279 N 
ATOM      4  N   UNL     1      30.995 -22.939 -15.529  0.00  0.00    -0.241 NA
ATOM      5  N   UNL     1      33.844 -24.623 -13.836  0.00  0.00    -0.301 NA
ATOM      6  N   UNL     1      35.949 -24.916 -14.803  0.00  0.00    -0.292 N 
ATOM      7  C   UNL     1      33.108 -23.382 -16.149  0.00  0.00    +0.191 C 
ATOM      8  C   UNL     1      31.221 -22.488 -16.751  0.00  0.00    +0.205 C 
ATOM      9  C   UNL     1      32.183 -23.500 -15.152  0.00  0.00    +0.183 C 
ATOM     10  C   UNL     1      34.680 -24.470 -14.847  0.00  0.00    +0.248 C 
ATOM     11  C   UNL     1      32.527 -24.152 -13.905  0.00  0.00    +0.224 C 
ATOM     12  H   UNL     1      35.009 -23.749 -16.780  0.00  0.00    +0.152 HD
ATOM     13  H   UNL     1      36.526 -24.771 -15.587  0.00  0.00    +0.151 HD
ENDROOT
BRANCH   2  15
ATOM     14  O   UNL     1      34.455 -22.819 -18.651  0.00  0.00    -0.338 OA
ATOM     15  C   UNL     1      33.097 -22.361 -18.510  0.00  0.00    +0.182 C 
ATOM     16  C   UNL     1      34.259 -20.713 -19.738  0.00  0.00    +0.144 C 
ATOM     17  C   UNL     1      33.126 -20.854 -18.747  0.00  0.00    +0.079 C 
ATOM     18  C   UNL     1      35.238 -21.793 -19.295  0.00  0.00    +0.174 C 
BRANCH  16  19
ATOM     19  O   UNL     1      33.763 -21.021 -21.038  0.00  0.00    -0.382 OA
ATOM     20  H   UNL     1      33.924 -21.959 -21.232  0.00  0.00    +0.210 HD
ENDBRANCH  16  19
BRANCH  18  21
ATOM     21  C   UNL     1      36.261 -21.283 -18.289  0.00  0.00    +0.186 C 
BRANCH  21  22
ATOM     22  O   UNL     1      36.345 -22.209 -17.219  0.00  0.00    -0.271 OA
BRANCH  22  23
ATOM     23  P   UNL     1      37.238 -21.816 -15.926  0.00  0.00    +0.473 P 
ATOM     24  O   UNL     1      36.534 -21.947 -14.607  0.00  0.00    -0.227 OA
BRANCH  23  25
ATOM     25  O   UNL     1      38.549 -22.746 -16.096  0.00  0.00    -0.303 OA
ATOM     26  H   UNL     1      39.150 -22.597 -15.349  0.00  0.00    +0.222 HD
ENDBRANCH  23  25
BRANCH  23  27
ATOM     27  O   UNL     1      37.784 -20.334 -16.274  0.00  0.00    -0.303 OA
ATOM     28  H   UNL     1      38.644 -20.402 -16.716  0.00  0.00    +0.222 HD
ENDBRANCH  23  27
ENDBRANCH  22  23
ENDBRANCH  21  22
ENDBRANCH  18  21
ENDBRANCH   2  15
BRANCH   6  29
ATOM     29  C   UNL     1      36.505 -25.596 -13.655  0.00  0.00    +0.117 C 
BRANCH  29  30
ATOM     30  C   UNL     1      37.950 -25.917 -13.876  0.00  0.00    -0.003 C 
ATOM     31  C   UNL     1      38.361 -26.970 -14.710  0.00  0.00    -0.002 C 
ATOM     32  C   UNL     1      39.743 -27.223 -14.877  0.00  0.00    -0.000 C 
ATOM     33  C   UNL     1      38.890 -25.123 -13.219  0.00  0.00    -0.003 C 
ATOM     34  C   UNL     1      37.429 -27.780 -15.379  0.00  0.00    -0.000 C 
ATOM     35  C   UNL     1      40.675 -26.414 -14.206  0.00  0.00    -0.000 C 
ATOM     36  C   UNL     1      40.250 -25.371 -13.384  0.00  0.00    -0.000 C 
ATOM     37  C   UNL     1      40.153 -28.278 -15.709  0.00  0.00    -0.000 C 
ATOM     38  C   UNL     1      37.854 -28.823 -16.202  0.00  0.00    -0.000 C 
ATOM     39  C   UNL     1      39.213 -29.071 -16.367  0.00  0.00    -0.000 C 
ENDBRANCH  29  30
ENDBRANCH   6  29
TORSDOF 9
ENDMDL
MODEL 7
REMARK VINA RESULT:      -9.3     12.112     15.268
REMARK  Name = 46937134
REMARK  9 active torsions:
REMARK  status: ('A' for Active; 'I' for Inactive)
REMARK    1  A    between atoms: N_2  and  C_15
REMARK    2  A    between atoms: N_6  and  C_29
REMARK    3  A    between atoms: C_16  and  O_19
REMARK    4  A    between atoms: C_18  and  C_21
REMARK    5  A    between atoms: C_21  and  O_22
REMARK    6  A    between atoms: O_22  and  P_23
REMARK    7  A    between atoms: P_23  and  O_25
REMARK    8  A    between atoms: P_23  and  O_27
REMARK    9  A    between atoms: C_29  and  C_30
REMARK                            x       y       z     vdW  Elec       q    Type
REMARK                         _______ _______ _______ _____ _____    ______ ____
ROOT
ATOM      1  O   UNL     1      31.772  -8.458 -18.741  0.00  0.00    -0.208 OA
ATOM      2  N   UNL     1      32.328 -11.815 -21.716  0.00  0.00    -0.209 NA
ATOM      3  N   UNL     1      32.447  -9.549 -22.592  0.00  0.00    -0.279 N 
ATOM      4  N   UNL     1      31.953 -11.282 -19.568  0.00  0.00    -0.241 NA
ATOM      5  N   UNL     1      32.139  -7.833 -20.943  0.00  0.00    -0.301 NA
ATOM      6  N   UNL     1      32.520  -7.343 -23.194  0.00  0.00    -0.292 N 
ATOM      7  C   UNL     1      32.295 -10.465 -21.632  0.00  0.00    +0.191 C 
ATOM      8  C   UNL     1      32.114 -12.268 -20.433  0.00  0.00    +0.205 C 
ATOM      9  C   UNL     1      32.067 -10.149 -20.325  0.00  0.00    +0.183 C 
ATOM     10  C   UNL     1      32.359  -8.220 -22.186  0.00  0.00    +0.248 C 
ATOM     11  C   UNL     1      31.976  -8.764 -19.910  0.00  0.00    +0.224 C 
ATOM     12  H   UNL     1      32.612  -9.799 -23.531  0.00  0.00    +0.152 HD
ATOM     13  H   UNL     1      32.679  -7.692 -24.100  0.00  0.00    +0.151 HD
ENDROOT
BRANCH   2  15
ATOM     14  O   UNL     1      32.631 -14.068 -22.617  0.00  0.00    -0.338 OA
ATOM     15  C   UNL     1      32.549 -12.667 -22.940  0.00  0.00    +0.182 C 
ATOM     16  C   UNL     1      34.144 -13.619 -24.396  0.00  0.00    +0.144 C 
ATOM     17  C   UNL     1      33.836 -12.322 -23.684  0.00  0.00    +0.079 C 
ATOM     18  C   UNL     1      33.677 -14.675 -23.401  0.00  0.00    +0.174 C 
BRANCH  16  19
ATOM     19  O   UNL     1      33.347 -13.689 -25.576  0.00  0.00    -0.382 OA
ATOM     20  H   UNL     1      33.910 -13.552 -26.355  0.00  0.00    +0.210 HD
ENDBRANCH  16  19
BRANCH  18  21
ATOM     21  C   UNL     1      34.782 -15.116 -22.449  0.00  0.00    +0.186 C 
BRANCH  21  22
ATOM     22  O   UNL     1      35.350 -16.318 -22.940  0.00  0.00    -0.271 OA
BRANCH  22  23
ATOM     23  P   UNL     1      35.504 -17.570 -21.926  0.00  0.00    +0.473 P 
ATOM     24  O   UNL     1      35.332 -17.233 -20.473  0.00  0.00    -0.227 OA
BRANCH  23  25
ATOM     25  O   UNL     1      34.442 -18.640 -22.509  0.00  0.00    -0.303 OA
ATOM     26  H   UNL     1      33.540 -18.322 -22.347  0.00  0.00    +0.222 HD
ENDBRANCH  23  25
BRANCH  23  27
ATOM     27  O   UNL     1      36.935 -18.211 -22.322  0.00  0.00    -0.303 OA
ATOM     28  H   UNL     1      37.128 -18.959 -21.737  0.00  0.00    +0.222 HD
ENDBRANCH  23  27
ENDBRANCH  22  23
ENDBRANCH  21  22
ENDBRANCH  18  21
ENDBRANCH   2  15
BRANCH   6  29
ATOM     29  C   UNL     1      32.467  -5.911 -23.006  0.00  0.00    +0.117 C 
BRANCH  29  30
ATOM     30  C   UNL     1      33.205  -5.204 -24.100  0.00  0.00    -0.003 C 
ATOM     31  C   UNL     1      32.660  -4.100 -24.774  0.00  0.00    -0.002 C 
ATOM     32  C   UNL     1      33.408  -3.476 -25.801  0.00  0.00    -0.000 C 
ATOM     33  C   UNL     1      34.471  -5.686 -24.433  0.00  0.00    -0.003 C 
ATOM     34  C   UNL     1      31.387  -3.601 -24.453  0.00  0.00    -0.000 C 
ATOM     35  C   UNL     1      34.680  -3.976 -26.123  0.00  0.00    -0.000 C 
ATOM     36  C   UNL     1      35.207  -5.073 -25.442  0.00  0.00    -0.000 C 
ATOM     37  C   UNL     1      32.862  -2.372 -26.476  0.00  0.00    -0.000 C 
ATOM     38  C   UNL     1      30.860  -2.503 -25.133  0.00  0.00    -0.000 C 
ATOM     39  C   UNL     1      31.596  -1.889 -26.142  0.00  0.00    -0.000 C 
ENDBRANCH  29  30
ENDBRANCH   6  29
TORSDOF 9
ENDMDL
MODEL 8
REMARK VINA RESULT:      -9.2     12.051     15.181
REMARK  Name = 46937134
REMARK  9 active torsions:
REMARK  status: ('A' for Active; 'I' for Inactive)
REMARK    1  A    between atoms: N_2  and  C_15
REMARK    2  A    between atoms: N_6  and  C_29
REMARK    3  A    between atoms: C_16  and  O_19
REMARK    4  A    between atoms: C_18  and  C_21
REMARK    5  A    between atoms: C_21  and  O_22
REMARK    6  A    between atoms: O_22  and  P_23
REMARK    7  A    between atoms: P_23  and  O_25
REMARK    8  A    between atoms: P_23  and  O_27
REMARK    9  A    between atoms: C_29  and  C_30
REMARK                            x       y       z     vdW  Elec       q    Type
REMARK                         _______ _______ _______ _____ _____    ______ ____
ROOT
ATOM      1  O   UNL     1      32.081  -7.757 -19.139  0.00  0.00    -0.208 OA
ATOM      2  N   UNL     1      32.205 -11.445 -21.749  0.00  0.00    -0.209 NA
ATOM      3  N   UNL     1      33.196  -9.422 -22.669  0.00  0.00    -0.279 N 
ATOM      4  N   UNL     1      31.562 -10.588 -19.777  0.00  0.00    -0.241 NA
ATOM      5  N   UNL     1      33.082  -7.516 -21.215  0.00  0.00    -0.301 NA
ATOM      6  N   UNL     1      34.065  -7.412 -23.330  0.00  0.00    -0.292 N 
ATOM      7  C   UNL     1      32.570 -10.142 -21.734  0.00  0.00    +0.191 C 
ATOM      8  C   UNL     1      31.595 -11.670 -20.536  0.00  0.00    +0.205 C 
ATOM      9  C   UNL     1      32.176  -9.629 -20.533  0.00  0.00    +0.183 C 
ATOM     10  C   UNL     1      33.433  -8.087 -22.352  0.00  0.00    +0.248 C 
ATOM     11  C   UNL     1      32.426  -8.238 -20.211  0.00  0.00    +0.224 C 
ATOM     12  H   UNL     1      33.472  -9.813 -23.530  0.00  0.00    +0.152 HD
ATOM     13  H   UNL     1      34.300  -7.892 -24.157  0.00  0.00    +0.151 HD
ENDROOT
BRANCH   2  15
ATOM     14  O   UNL     1      32.479 -13.802 -22.339  0.00  0.00    -0.338 OA
ATOM     15  C   UNL     1      32.411 -12.456 -22.848  0.00  0.00    +0.182 C 
ATOM     16  C   UNL     1      33.989 -13.614 -24.168  0.00  0.00    +0.144 C 
ATOM     17  C   UNL     1      33.698 -12.230 -23.636  0.00  0.00    +0.079 C 
ATOM     18  C   UNL     1      33.515 -14.521 -23.038  0.00  0.00    +0.174 C 
BRANCH  16  19
ATOM     19  O   UNL     1      33.186 -13.832 -25.325  0.00  0.00    -0.382 OA
ATOM     20  H   UNL     1      33.625 -14.473 -25.907  0.00  0.00    +0.210 HD
ENDBRANCH  16  19
BRANCH  18  21
ATOM     21  C   UNL     1      34.619 -14.842 -22.039  0.00  0.00    +0.186 C 
BRANCH  21  22
ATOM     22  O   UNL     1      35.488 -15.802 -22.617  0.00  0.00    -0.271 OA
BRANCH  22  23
ATOM     23  P   UNL     1      35.379 -17.339 -22.121  0.00  0.00    +0.473 P 
ATOM     24  O   UNL     1      34.303 -18.145 -22.788  0.00  0.00    -0.227 OA
BRANCH  23  25
ATOM     25  O   UNL     1      36.882 -17.895 -22.336  0.00  0.00    -0.303 OA
ATOM     26  H   UNL     1      37.155 -17.741 -23.254  0.00  0.00    +0.222 HD
ENDBRANCH  23  25
BRANCH  23  27
ATOM     27  O   UNL     1      35.254 -17.215 -20.513  0.00  0.00    -0.303 OA
ATOM     28  H   UNL     1      36.107 -16.940 -20.143  0.00  0.00    +0.222 HD
ENDBRANCH  23  27
ENDBRANCH  22  23
ENDBRANCH  21  22
ENDBRANCH  18  21
ENDBRANCH   2  15
BRANCH   6  29
ATOM     29  C   UNL     1      34.414  -6.014 -23.222  0.00  0.00    +0.117 C 
BRANCH  29  30
ATOM     30  C   UNL     1      33.551  -5.180 -24.117  0.00  0.00    -0.003 C 
ATOM     31  C   UNL     1      34.024  -4.657 -25.332  0.00  0.00    -0.002 C 
ATOM     32  C   UNL     1      33.157  -3.875 -26.133  0.00  0.00    -0.000 C 
ATOM     33  C   UNL     1      32.242  -4.938 -23.700  0.00  0.00    -0.003 C 
ATOM     34  C   UNL     1      35.338  -4.890 -25.768  0.00  0.00    -0.000 C 
ATOM     35  C   UNL     1      31.844  -3.641 -25.696  0.00  0.00    -0.000 C 
ATOM     36  C   UNL     1      31.390  -4.170 -24.488  0.00  0.00    -0.000 C 
ATOM     37  C   UNL     1      33.631  -3.350 -27.347  0.00  0.00    -0.000 C 
ATOM     38  C   UNL     1      35.792  -4.361 -26.976  0.00  0.00    -0.000 C 
ATOM     39  C   UNL     1      34.939  -3.594 -27.764  0.00  0.00    -0.000 C 
ENDBRANCH  29  30
ENDBRANCH   6  29
TORSDOF 9
ENDMDL
MODEL 9
REMARK VINA RESULT:      -8.9     11.847     15.243
REMARK  Name = 46937134
REMARK  9 active torsions:
REMARK  status: ('A' for Active; 'I' for Inactive)
REMARK    1  A    between atoms: N_2  and  C_15
REMARK    2  A    between atoms: N_6  and  C_29
REMARK    3  A    between atoms: C_16  and  O_19
REMARK    4  A    between atoms: C_18  and  C_21
REMARK    5  A    between atoms: C_21  and  O_22
REMARK    6  A    between atoms: O_22  and  P_23
REMARK    7  A    between atoms: P_23  and  O_25
REMARK    8  A    between atoms: P_23  and  O_27
REMARK    9  A    between atoms: C_29  and  C_30
REMARK                            x       y       z     vdW  Elec       q    Type
REMARK                         _______ _______ _______ _____ _____    ______ ____
ROOT
ATOM      1  O   UNL     1      35.679 -10.238 -26.116  0.00  0.00    -0.208 OA
ATOM      2  N   UNL     1      33.464  -8.236 -22.723  0.00  0.00    -0.209 NA
ATOM      3  N   UNL     1      33.329 -10.662 -22.833  0.00  0.00    -0.279 N 
ATOM      4  N   UNL     1      34.761  -7.930 -24.528  0.00  0.00    -0.241 NA
ATOM      5  N   UNL     1      34.533 -11.637 -24.666  0.00  0.00    -0.301 NA
ATOM      6  N   UNL     1      33.341 -12.931 -23.131  0.00  0.00    -0.292 N 
ATOM      7  C   UNL     1      33.726  -9.455 -23.246  0.00  0.00    +0.191 C 
ATOM      8  C   UNL     1      34.115  -7.338 -23.538  0.00  0.00    +0.205 C 
ATOM      9  C   UNL     1      34.515  -9.261 -24.342  0.00  0.00    +0.183 C 
ATOM     10  C   UNL     1      33.770 -11.742 -23.594  0.00  0.00    +0.248 C 
ATOM     11  C   UNL     1      34.969 -10.390 -25.129  0.00  0.00    +0.224 C 
ATOM     12  H   UNL     1      32.759 -10.780 -22.038  0.00  0.00    +0.152 HD
ATOM     13  H   UNL     1      32.773 -12.945 -22.327  0.00  0.00    +0.151 HD
ENDROOT
BRANCH   2  15
ATOM     14  O   UNL     1      31.534  -7.032 -21.825  0.00  0.00    -0.338 OA
ATOM     15  C   UNL     1      32.636  -7.903 -21.507  0.00  0.00    +0.182 C 
ATOM     16  C   UNL     1      32.357  -6.444 -19.673  0.00  0.00    +0.144 C 
ATOM     17  C   UNL     1      33.435  -7.202 -20.413  0.00  0.00    +0.079 C 
ATOM     18  C   UNL     1      31.395  -6.043 -20.785  0.00  0.00    +0.174 C 
BRANCH  16  19
ATOM     19  O   UNL     1      31.706  -7.343 -18.778  0.00  0.00    -0.382 OA
ATOM     20  H   UNL     1      30.745  -7.222 -18.842  0.00  0.00    +0.210 HD
ENDBRANCH  16  19
BRANCH  18  21
ATOM     21  C   UNL     1      31.723  -4.682 -21.384  0.00  0.00    +0.186 C 
BRANCH  21  22
ATOM     22  O   UNL     1      30.873  -4.459 -22.496  0.00  0.00    -0.271 OA
BRANCH  22  23
ATOM     23  P   UNL     1      31.541  -4.319 -23.964  0.00  0.00    +0.473 P 
ATOM     24  O   UNL     1      33.006  -3.990 -23.964  0.00  0.00    -0.227 OA
BRANCH  23  25
ATOM     25  O   UNL     1      31.156  -5.721 -24.672  0.00  0.00    -0.303 OA
ATOM     26  H   UNL     1      31.962  -6.145 -25.008  0.00  0.00    +0.222 HD
ENDBRANCH  23  25
BRANCH  23  27
ATOM     27  O   UNL     1      30.592  -3.248 -24.716  0.00  0.00    -0.303 OA
ATOM     28  H   UNL     1      30.953  -2.356 -24.598  0.00  0.00    +0.222 HD
ENDBRANCH  23  27
ENDBRANCH  22  23
ENDBRANCH  21  22
ENDBRANCH  18  21
ENDBRANCH   2  15
BRANCH   6  29
ATOM     29  C   UNL     1      33.675 -14.187 -23.761  0.00  0.00    +0.117 C 
BRANCH  29  30
ATOM     30  C   UNL     1      34.196 -15.165 -22.754  0.00  0.00    -0.003 C 
ATOM     31  C   UNL     1      34.419 -16.514 -23.071  0.00  0.00    -0.002 C 
ATOM     32  C   UNL     1      34.912 -17.389 -22.073  0.00  0.00    -0.000 C 
ATOM     33  C   UNL     1      34.457 -14.684 -21.471  0.00  0.00    -0.003 C 
ATOM     34  C   UNL     1      34.161 -17.017 -24.357  0.00  0.00    -0.000 C 
ATOM     35  C   UNL     1      35.168 -16.887 -20.787  0.00  0.00    -0.000 C 
ATOM     36  C   UNL     1      34.942 -15.542 -20.490  0.00  0.00    -0.000 C 
ATOM     37  C   UNL     1      35.133 -18.739 -22.391  0.00  0.00    -0.000 C 
ATOM     38  C   UNL     1      34.387 -18.361 -24.655  0.00  0.00    -0.000 C 
ATOM     39  C   UNL     1      34.873 -19.220 -23.674  0.00  0.00    -0.000 C 
ENDBRANCH  29  30
ENDBRANCH   6  29
TORSDOF 9
ENDMDL
