MODEL 1
REMARK VINA RESULT:     -11.6      0.000      0.000
REMARK  Name = 448903
REMARK  11 active torsions:
REMARK  status: ('A' for Active; 'I' for Inactive)
REMARK    1  A    between atoms: N_1  and  C_22
REMARK    2  A    between atoms: C_8  and  N_11
REMARK    3  A    between atoms: C_12  and  C_14
REMARK    4  A    between atoms: C_14  and  C_15
REMARK    5  A    between atoms: C_15  and  C_16
REMARK    6  A    between atoms: C_22  and  C_23
REMARK    7  A    between atoms: C_23  and  C_24
REMARK    8  A    between atoms: C_24  and  N_25
REMARK    9  A    between atoms: C_24  and  C_35
REMARK   10  A    between atoms: C_29  and  C_32
REMARK   11  A    between atoms: C_35  and  O_36
REMARK                            x       y       z     vdW  Elec       q    Type
REMARK                         _______ _______ _______ _____ _____    ______ ____
ROOT
ATOM      1  N   UNL     1      33.389 -23.088 -16.102  0.00  0.00    -0.286 N 
ATOM      2  C   UNL     1      34.189 -22.490 -17.049  0.00  0.00    +0.053 C 
ATOM      3  C   UNL     1      35.504 -22.565 -16.582  0.00  0.00    +0.015 C 
ATOM      4  C   UNL     1      34.149 -23.539 -15.057  0.00  0.00    +0.065 C 
ATOM      5  C   UNL     1      35.462 -23.231 -15.325  0.00  0.00    +0.017 C 
ATOM      6  C   UNL     1      33.854 -21.893 -18.270  0.00  0.00    +0.029 C 
ATOM      7  C   UNL     1      36.536 -22.019 -17.371  0.00  0.00    +0.003 C 
ATOM      8  C   UNL     1      34.895 -21.359 -19.035  0.00  0.00    +0.052 C 
ATOM      9  C   UNL     1      36.216 -21.420 -18.595  0.00  0.00    +0.015 C 
ENDROOT
BRANCH   8  11
ATOM     10  O   UNL     1      35.932 -18.813 -20.253  0.00  0.00    -0.275 OA
ATOM     11  N   UNL     1      34.604 -20.757 -20.260  0.00  0.00    -0.284 N 
ATOM     12  C   UNL     1      35.128 -19.570 -20.789  0.00  0.00    +0.226 C 
ATOM     13  H   UNL     1      33.946 -21.225 -20.825  0.00  0.00    +0.155 HD
BRANCH  12  14
ATOM     14  C   UNL     1      34.559 -19.242 -22.160  0.00  0.00    +0.090 C 
BRANCH  14  15
ATOM     15  C   UNL     1      35.489 -18.321 -22.951  0.00  0.00    +0.036 C 
BRANCH  15  16
ATOM     16  C   UNL     1      34.943 -16.924 -23.123  0.00  0.00    -0.022 C 
ATOM     17  C   UNL     1      35.013 -16.013 -22.069  0.00  0.00    -0.004 C 
ATOM     18  C   UNL     1      34.370 -16.544 -24.337  0.00  0.00    -0.004 C 
ATOM     19  C   UNL     1      34.509 -14.722 -22.228  0.00  0.00    -0.000 C 
ATOM     20  C   UNL     1      33.866 -15.253 -24.495  0.00  0.00    -0.000 C 
ATOM     21  C   UNL     1      33.935 -14.342 -23.441  0.00  0.00    -0.000 C 
ENDBRANCH  15  16
ENDBRANCH  14  15
ENDBRANCH  12  14
ENDBRANCH   8  11
BRANCH   1  22
ATOM     22  C   UNL     1      31.951 -23.229 -16.184  0.00  0.00    +0.097 C 
BRANCH  22  23
ATOM     23  C   UNL     1      31.199 -22.784 -14.922  0.00  0.00    +0.040 C 
BRANCH  23  24
ATOM     24  C   UNL     1      29.913 -23.581 -14.609  0.00  0.00    +0.091 C 
BRANCH  24  25
ATOM     25  N   UNL     1      28.859 -23.422 -15.625  0.00  0.00    -0.246 NA
ATOM     26  N   UNL     1      27.381 -23.807 -17.237  0.00  0.00    -0.251 NA
ATOM     27  C   UNL     1      28.192 -22.265 -15.940  0.00  0.00    +0.125 C 
ATOM     28  C   UNL     1      28.347 -24.331 -16.424  0.00  0.00    +0.201 C 
ATOM     29  C   UNL     1      27.270 -22.478 -16.938  0.00  0.00    +0.124 C 
BRANCH  29  32
ATOM     30  O   UNL     1      26.123 -20.418 -17.106  0.00  0.00    -0.269 OA
ATOM     31  N   UNL     1      25.755 -21.951 -18.752  0.00  0.00    -0.324 N 
ATOM     32  C   UNL     1      26.373 -21.561 -17.558  0.00  0.00    +0.257 C 
ATOM     33  H   UNL     1      25.130 -21.339 -19.205  0.00  0.00    +0.145 HD
ATOM     34  H   UNL     1      25.944 -22.836 -19.139  0.00  0.00    +0.145 HD
ENDBRANCH  29  32
ENDBRANCH  24  25
BRANCH  24  35
ATOM     35  C   UNL     1      30.236 -25.070 -14.400  0.00  0.00    +0.153 C 
BRANCH  35  36
ATOM     36  O   UNL     1      30.430 -25.328 -13.014  0.00  0.00    -0.381 OA
ATOM     37  H   UNL     1      29.866 -26.068 -12.741  0.00  0.00    +0.210 HD
ENDBRANCH  35  36
ENDBRANCH  24  35
ENDBRANCH  23  24
ENDBRANCH  22  23
ENDBRANCH   1  22
TORSDOF 11
ENDMDL
MODEL 2
REMARK VINA RESULT:     -11.5      1.611      2.246
REMARK  Name = 448903
REMARK  11 active torsions:
REMARK  status: ('A' for Active; 'I' for Inactive)
REMARK    1  A    between atoms: N_1  and  C_22
REMARK    2  A    between atoms: C_8  and  N_11
REMARK    3  A    between atoms: C_12  and  C_14
REMARK    4  A    between atoms: C_14  and  C_15
REMARK    5  A    between atoms: C_15  and  C_16
REMARK    6  A    between atoms: C_22  and  C_23
REMARK    7  A    between atoms: C_23  and  C_24
REMARK    8  A    between atoms: C_24  and  N_25
REMARK    9  A    between atoms: C_24  and  C_35
REMARK   10  A    between atoms: C_29  and  C_32
REMARK   11  A    between atoms: C_35  and  O_36
REMARK                            x       y       z     vdW  Elec       q    Type
REMARK                         _______ _______ _______ _____ _____    ______ ____
ROOT
ATOM      1  N   UNL     1      34.722 -23.735 -14.557  0.00  0.00    -0.286 N 
ATOM      2  C   UNL     1      35.329 -23.021 -15.566  0.00  0.00    +0.053 C 
ATOM      3  C   UNL     1      36.683 -22.915 -15.235  0.00  0.00    +0.015 C 
ATOM      4  C   UNL     1      35.642 -24.083 -13.605  0.00  0.00    +0.065 C 
ATOM      5  C   UNL     1      36.864 -23.590 -13.996  0.00  0.00    +0.017 C 
ATOM      6  C   UNL     1      34.790 -22.467 -16.732  0.00  0.00    +0.029 C 
ATOM      7  C   UNL     1      37.542 -22.221 -16.112  0.00  0.00    +0.003 C 
ATOM      8  C   UNL     1      35.662 -21.785 -17.586  0.00  0.00    +0.052 C 
ATOM      9  C   UNL     1      37.017 -21.663 -17.283  0.00  0.00    +0.015 C 
ENDROOT
BRANCH   8  11
ATOM     10  O   UNL     1      32.835 -21.490 -18.567  0.00  0.00    -0.275 OA
ATOM     11  N   UNL     1      35.165 -21.219 -18.761  0.00  0.00    -0.284 N 
ATOM     12  C   UNL     1      33.831 -21.094 -19.166  0.00  0.00    +0.226 C 
ATOM     13  H   UNL     1      35.839 -20.862 -19.386  0.00  0.00    +0.155 HD
BRANCH  12  14
ATOM     14  C   UNL     1      33.693 -20.416 -20.520  0.00  0.00    +0.090 C 
BRANCH  14  15
ATOM     15  C   UNL     1      35.026 -19.844 -21.004  0.00  0.00    +0.036 C 
BRANCH  15  16
ATOM     16  C   UNL     1      34.875 -18.821 -22.103  0.00  0.00    -0.022 C 
ATOM     17  C   UNL     1      34.227 -19.161 -23.289  0.00  0.00    -0.004 C 
ATOM     18  C   UNL     1      35.384 -17.533 -21.930  0.00  0.00    -0.004 C 
ATOM     19  C   UNL     1      34.088 -18.215 -24.305  0.00  0.00    -0.000 C 
ATOM     20  C   UNL     1      35.244 -16.587 -22.946  0.00  0.00    -0.000 C 
ATOM     21  C   UNL     1      34.596 -16.928 -24.133  0.00  0.00    -0.000 C 
ENDBRANCH  15  16
ENDBRANCH  14  15
ENDBRANCH  12  14
ENDBRANCH   8  11
BRANCH   1  22
ATOM     22  C   UNL     1      33.317 -24.076 -14.497  0.00  0.00    +0.097 C 
BRANCH  22  23
ATOM     23  C   UNL     1      32.395 -22.899 -14.148  0.00  0.00    +0.040 C 
BRANCH  23  24
ATOM     24  C   UNL     1      30.947 -23.288 -13.776  0.00  0.00    +0.091 C 
BRANCH  24  25
ATOM     25  N   UNL     1      29.960 -22.945 -14.813  0.00  0.00    -0.246 NA
ATOM     26  N   UNL     1      28.985 -22.482 -16.754  0.00  0.00    -0.251 NA
ATOM     27  C   UNL     1      28.622 -22.702 -14.624  0.00  0.00    +0.125 C 
ATOM     28  C   UNL     1      30.145 -22.805 -16.106  0.00  0.00    +0.201 C 
ATOM     29  C   UNL     1      27.996 -22.412 -15.813  0.00  0.00    +0.124 C 
BRANCH  29  32
ATOM     30  O   UNL     1      25.725 -22.173 -15.202  0.00  0.00    -0.269 OA
ATOM     31  N   UNL     1      26.282 -21.674 -17.355  0.00  0.00    -0.324 N 
ATOM     32  C   UNL     1      26.630 -22.103 -16.069  0.00  0.00    +0.257 C 
ATOM     33  H   UNL     1      25.345 -21.452 -17.564  0.00  0.00    +0.145 HD
ATOM     34  H   UNL     1      26.973 -21.595 -18.052  0.00  0.00    +0.145 HD
ENDBRANCH  29  32
ENDBRANCH  24  25
BRANCH  24  35
ATOM     35  C   UNL     1      30.861 -24.783 -13.426  0.00  0.00    +0.153 C 
BRANCH  35  36
ATOM     36  O   UNL     1      30.454 -24.936 -12.071  0.00  0.00    -0.381 OA
ATOM     37  H   UNL     1      29.913 -25.737 -11.984  0.00  0.00    +0.210 HD
ENDBRANCH  35  36
ENDBRANCH  24  35
ENDBRANCH  23  24
ENDBRANCH  22  23
ENDBRANCH   1  22
TORSDOF 11
ENDMDL
MODEL 3
REMARK VINA RESULT:     -11.1      3.420      6.398
REMARK  Name = 448903
REMARK  11 active torsions:
REMARK  status: ('A' for Active; 'I' for Inactive)
REMARK    1  A    between atoms: N_1  and  C_22
REMARK    2  A    between atoms: C_8  and  N_11
REMARK    3  A    between atoms: C_12  and  C_14
REMARK    4  A    between atoms: C_14  and  C_15
REMARK    5  A    between atoms: C_15  and  C_16
REMARK    6  A    between atoms: C_22  and  C_23
REMARK    7  A    between atoms: C_23  and  C_24
REMARK    8  A    between atoms: C_24  and  N_25
REMARK    9  A    between atoms: C_24  and  C_35
REMARK   10  A    between atoms: C_29  and  C_32
REMARK   11  A    between atoms: C_35  and  O_36
REMARK                            x       y       z     vdW  Elec       q    Type
REMARK                         _______ _______ _______ _____ _____    ______ ____
ROOT
ATOM      1  N   UNL     1      33.353 -24.334 -13.894  0.00  0.00    -0.286 N 
ATOM      2  C   UNL     1      33.011 -23.692 -15.063  0.00  0.00    +0.053 C 
ATOM      3  C   UNL     1      31.629 -23.489 -15.030  0.00  0.00    +0.015 C 
ATOM      4  C   UNL     1      32.239 -24.541 -13.126  0.00  0.00    +0.065 C 
ATOM      5  C   UNL     1      31.157 -24.029 -13.801  0.00  0.00    +0.017 C 
ATOM      6  C   UNL     1      33.810 -23.281 -16.136  0.00  0.00    +0.029 C 
ATOM      7  C   UNL     1      31.013 -22.843 -16.121  0.00  0.00    +0.003 C 
ATOM      8  C   UNL     1      33.176 -22.642 -17.207  0.00  0.00    +0.052 C 
ATOM      9  C   UNL     1      31.799 -22.426 -17.201  0.00  0.00    +0.015 C 
ENDROOT
BRANCH   8  11
ATOM     10  O   UNL     1      32.537 -20.659 -19.374  0.00  0.00    -0.275 OA
ATOM     11  N   UNL     1      33.936 -22.215 -18.296  0.00  0.00    -0.284 N 
ATOM     12  C   UNL     1      33.596 -21.273 -19.274  0.00  0.00    +0.226 C 
ATOM     13  H   UNL     1      34.826 -22.628 -18.389  0.00  0.00    +0.155 HD
BRANCH  12  14
ATOM     14  C   UNL     1      34.697 -21.078 -20.304  0.00  0.00    +0.090 C 
BRANCH  14  15
ATOM     15  C   UNL     1      35.307 -19.678 -20.221  0.00  0.00    +0.036 C 
BRANCH  15  16
ATOM     16  C   UNL     1      35.093 -18.856 -21.469  0.00  0.00    -0.022 C 
ATOM     17  C   UNL     1      35.472 -17.515 -21.495  0.00  0.00    -0.004 C 
ATOM     18  C   UNL     1      34.518 -19.441 -22.598  0.00  0.00    -0.004 C 
ATOM     19  C   UNL     1      35.274 -16.756 -22.649  0.00  0.00    -0.000 C 
ATOM     20  C   UNL     1      34.320 -18.682 -23.752  0.00  0.00    -0.000 C 
ATOM     21  C   UNL     1      34.698 -17.340 -23.777  0.00  0.00    -0.000 C 
ENDBRANCH  15  16
ENDBRANCH  14  15
ENDBRANCH  12  14
ENDBRANCH   8  11
BRANCH   1  22
ATOM     22  C   UNL     1      34.691 -24.737 -13.517  0.00  0.00    +0.097 C 
BRANCH  22  23
ATOM     23  C   UNL     1      35.257 -23.991 -12.302  0.00  0.00    +0.040 C 
BRANCH  23  24
ATOM     24  C   UNL     1      36.788 -23.782 -12.315  0.00  0.00    +0.091 C 
BRANCH  24  25
ATOM     25  N   UNL     1      37.315 -23.372 -13.627  0.00  0.00    -0.246 NA
ATOM     26  N   UNL     1      38.505 -23.243 -15.498  0.00  0.00    -0.251 NA
ATOM     27  C   UNL     1      36.859 -22.338 -14.407  0.00  0.00    +0.125 C 
ATOM     28  C   UNL     1      38.305 -23.896 -14.313  0.00  0.00    +0.201 C 
ATOM     29  C   UNL     1      37.582 -22.238 -15.573  0.00  0.00    +0.124 C 
BRANCH  29  32
ATOM     30  O   UNL     1      36.897 -21.601 -17.744  0.00  0.00    -0.269 OA
ATOM     31  N   UNL     1      37.927 -20.016 -16.470  0.00  0.00    -0.324 N 
ATOM     32  C   UNL     1      37.444 -21.318 -16.651  0.00  0.00    +0.257 C 
ATOM     33  H   UNL     1      37.847 -19.356 -17.196  0.00  0.00    +0.145 HD
ATOM     34  H   UNL     1      38.347 -19.760 -15.617  0.00  0.00    +0.145 HD
ENDBRANCH  29  32
ENDBRANCH  24  25
BRANCH  24  35
ATOM     35  C   UNL     1      37.206 -22.775 -11.230  0.00  0.00    +0.153 C 
BRANCH  35  36
ATOM     36  O   UNL     1      38.624 -22.747 -11.122  0.00  0.00    -0.381 OA
ATOM     37  H   UNL     1      39.007 -22.460 -11.966  0.00  0.00    +0.210 HD
ENDBRANCH  35  36
ENDBRANCH  24  35
ENDBRANCH  23  24
ENDBRANCH  22  23
ENDBRANCH   1  22
TORSDOF 11
ENDMDL
MODEL 4
REMARK VINA RESULT:     -11.0      3.591      7.392
REMARK  Name = 448903
REMARK  11 active torsions:
REMARK  status: ('A' for Active; 'I' for Inactive)
REMARK    1  A    between atoms: N_1  and  C_22
REMARK    2  A    between atoms: C_8  and  N_11
REMARK    3  A    between atoms: C_12  and  C_14
REMARK    4  A    between atoms: C_14  and  C_15
REMARK    5  A    between atoms: C_15  and  C_16
REMARK    6  A    between atoms: C_22  and  C_23
REMARK    7  A    between atoms: C_23  and  C_24
REMARK    8  A    between atoms: C_24  and  N_25
REMARK    9  A    between atoms: C_24  and  C_35
REMARK   10  A    between atoms: C_29  and  C_32
REMARK   11  A    between atoms: C_35  and  O_36
REMARK                            x       y       z     vdW  Elec       q    Type
REMARK                         _______ _______ _______ _____ _____    ______ ____
ROOT
ATOM      1  N   UNL     1      32.501 -24.552 -13.558  0.00  0.00    -0.286 N 
ATOM      2  C   UNL     1      31.886 -23.907 -14.607  0.00  0.00    +0.053 C 
ATOM      3  C   UNL     1      30.508 -24.004 -14.396  0.00  0.00    +0.015 C 
ATOM      4  C   UNL     1      31.564 -25.051 -12.694  0.00  0.00    +0.065 C 
ATOM      5  C   UNL     1      30.321 -24.728 -13.185  0.00  0.00    +0.017 C 
ATOM      6  C   UNL     1      32.436 -23.252 -15.714  0.00  0.00    +0.029 C 
ATOM      7  C   UNL     1      29.635 -23.419 -15.336  0.00  0.00    +0.003 C 
ATOM      8  C   UNL     1      31.551 -22.679 -16.633  0.00  0.00    +0.052 C 
ATOM      9  C   UNL     1      30.172 -22.760 -16.448  0.00  0.00    +0.015 C 
ENDROOT
BRANCH   8  11
ATOM     10  O   UNL     1      34.313 -22.690 -17.820  0.00  0.00    -0.275 OA
ATOM     11  N   UNL     1      32.059 -22.015 -17.750  0.00  0.00    -0.284 N 
ATOM     12  C   UNL     1      33.357 -22.065 -18.272  0.00  0.00    +0.226 C 
ATOM     13  H   UNL     1      31.424 -21.437 -18.233  0.00  0.00    +0.155 HD
BRANCH  12  14
ATOM     14  C   UNL     1      33.523 -21.196 -19.508  0.00  0.00    +0.090 C 
BRANCH  14  15
ATOM     15  C   UNL     1      34.989 -20.840 -19.756  0.00  0.00    +0.036 C 
BRANCH  15  16
ATOM     16  C   UNL     1      35.180 -19.813 -20.846  0.00  0.00    -0.022 C 
ATOM     17  C   UNL     1      36.292 -18.972 -20.825  0.00  0.00    -0.004 C 
ATOM     18  C   UNL     1      34.243 -19.705 -21.874  0.00  0.00    -0.004 C 
ATOM     19  C   UNL     1      36.468 -18.022 -21.831  0.00  0.00    -0.000 C 
ATOM     20  C   UNL     1      34.419 -18.755 -22.880  0.00  0.00    -0.000 C 
ATOM     21  C   UNL     1      35.532 -17.914 -22.859  0.00  0.00    -0.000 C 
ENDBRANCH  15  16
ENDBRANCH  14  15
ENDBRANCH  12  14
ENDBRANCH   8  11
BRANCH   1  22
ATOM     22  C   UNL     1      33.931 -24.691 -13.380  0.00  0.00    +0.097 C 
BRANCH  22  23
ATOM     23  C   UNL     1      34.456 -24.158 -12.041  0.00  0.00    +0.040 C 
BRANCH  23  24
ATOM     24  C   UNL     1      35.820 -24.732 -11.594  0.00  0.00    +0.091 C 
BRANCH  24  25
ATOM     25  N   UNL     1      36.903 -24.498 -12.564  0.00  0.00    -0.246 NA
ATOM     26  N   UNL     1      38.266 -23.567 -14.049  0.00  0.00    -0.251 NA
ATOM     27  C   UNL     1      37.863 -25.398 -12.954  0.00  0.00    +0.125 C 
ATOM     28  C   UNL     1      37.174 -23.405 -13.241  0.00  0.00    +0.201 C 
ATOM     29  C   UNL     1      38.720 -24.844 -13.875  0.00  0.00    +0.124 C 
BRANCH  29  32
ATOM     30  O   UNL     1      41.012 -24.970 -14.441  0.00  0.00    -0.269 OA
ATOM     31  N   UNL     1      39.636 -26.569 -15.305  0.00  0.00    -0.324 N 
ATOM     32  C   UNL     1      39.844 -25.420 -14.532  0.00  0.00    +0.257 C 
ATOM     33  H   UNL     1      40.393 -26.992 -15.772  0.00  0.00    +0.145 HD
ATOM     34  H   UNL     1      38.733 -26.955 -15.382  0.00  0.00    +0.145 HD
ENDBRANCH  29  32
ENDBRANCH  24  25
BRANCH  24  35
ATOM     35  C   UNL     1      36.210 -24.186 -10.211  0.00  0.00    +0.153 C 
BRANCH  35  36
ATOM     36  O   UNL     1      35.368 -24.757  -9.215  0.00  0.00    -0.381 OA
ATOM     37  H   UNL     1      35.688 -25.644  -8.990  0.00  0.00    +0.210 HD
ENDBRANCH  35  36
ENDBRANCH  24  35
ENDBRANCH  23  24
ENDBRANCH  22  23
ENDBRANCH   1  22
TORSDOF 11
ENDMDL
MODEL 5
REMARK VINA RESULT:     -10.7      8.979     13.941
REMARK  Name = 448903
REMARK  11 active torsions:
REMARK  status: ('A' for Active; 'I' for Inactive)
REMARK    1  A    between atoms: N_1  and  C_22
REMARK    2  A    between atoms: C_8  and  N_11
REMARK    3  A    between atoms: C_12  and  C_14
REMARK    4  A    between atoms: C_14  and  C_15
REMARK    5  A    between atoms: C_15  and  C_16
REMARK    6  A    between atoms: C_22  and  C_23
REMARK    7  A    between atoms: C_23  and  C_24
REMARK    8  A    between atoms: C_24  and  N_25
REMARK    9  A    between atoms: C_24  and  C_35
REMARK   10  A    between atoms: C_29  and  C_32
REMARK   11  A    between atoms: C_35  and  O_36
REMARK                            x       y       z     vdW  Elec       q    Type
REMARK                         _______ _______ _______ _____ _____    ______ ____
ROOT
ATOM      1  N   UNL     1      31.692 -10.222 -20.700  0.00  0.00    -0.286 N 
ATOM      2  C   UNL     1      31.897  -8.868 -20.847  0.00  0.00    +0.053 C 
ATOM      3  C   UNL     1      32.134  -8.349 -19.571  0.00  0.00    +0.015 C 
ATOM      4  C   UNL     1      31.791 -10.575 -19.382  0.00  0.00    +0.065 C 
ATOM      5  C   UNL     1      32.064  -9.439 -18.658  0.00  0.00    +0.017 C 
ATOM      6  C   UNL     1      31.892  -8.071 -21.997  0.00  0.00    +0.029 C 
ATOM      7  C   UNL     1      32.376  -6.967 -19.436  0.00  0.00    +0.003 C 
ATOM      8  C   UNL     1      32.136  -6.704 -21.838  0.00  0.00    +0.052 C 
ATOM      9  C   UNL     1      32.375  -6.159 -20.578  0.00  0.00    +0.015 C 
ENDROOT
BRANCH   8  11
ATOM     10  O   UNL     1      30.676  -4.129 -22.367  0.00  0.00    -0.275 OA
ATOM     11  N   UNL     1      32.141  -5.874 -22.960  0.00  0.00    -0.284 N 
ATOM     12  C   UNL     1      31.449  -4.672 -23.152  0.00  0.00    +0.226 C 
ATOM     13  H   UNL     1      32.701  -6.172 -23.713  0.00  0.00    +0.155 HD
BRANCH  12  14
ATOM     14  C   UNL     1      31.714  -4.058 -24.518  0.00  0.00    +0.090 C 
BRANCH  14  15
ATOM     15  C   UNL     1      32.239  -5.096 -25.510  0.00  0.00    +0.036 C 
BRANCH  15  16
ATOM     16  C   UNL     1      33.519  -4.678 -26.192  0.00  0.00    -0.022 C 
ATOM     17  C   UNL     1      34.744  -4.866 -25.553  0.00  0.00    -0.004 C 
ATOM     18  C   UNL     1      33.477  -4.103 -27.463  0.00  0.00    -0.004 C 
ATOM     19  C   UNL     1      35.927  -4.479 -26.183  0.00  0.00    -0.000 C 
ATOM     20  C   UNL     1      34.660  -3.716 -28.093  0.00  0.00    -0.000 C 
ATOM     21  C   UNL     1      35.885  -3.904 -27.453  0.00  0.00    -0.000 C 
ENDBRANCH  15  16
ENDBRANCH  14  15
ENDBRANCH  12  14
ENDBRANCH   8  11
BRANCH   1  22
ATOM     22  C   UNL     1      31.411 -11.150 -21.775  0.00  0.00    +0.097 C 
BRANCH  22  23
ATOM     23  C   UNL     1      32.281 -12.414 -21.762  0.00  0.00    +0.040 C 
BRANCH  23  24
ATOM     24  C   UNL     1      33.519 -12.368 -22.686  0.00  0.00    +0.091 C 
BRANCH  24  25
ATOM     25  N   UNL     1      33.699 -13.588 -23.490  0.00  0.00    -0.246 NA
ATOM     26  N   UNL     1      33.748 -15.048 -25.163  0.00  0.00    -0.251 NA
ATOM     27  C   UNL     1      34.173 -14.798 -23.047  0.00  0.00    +0.125 C 
ATOM     28  C   UNL     1      33.453 -13.772 -24.767  0.00  0.00    +0.201 C 
ATOM     29  C   UNL     1      34.212 -15.720 -24.068  0.00  0.00    +0.124 C 
BRANCH  29  32
ATOM     30  O   UNL     1      34.194 -17.958 -24.829  0.00  0.00    -0.269 OA
ATOM     31  N   UNL     1      35.609 -17.453 -23.115  0.00  0.00    -0.324 N 
ATOM     32  C   UNL     1      34.633 -17.080 -24.047  0.00  0.00    +0.257 C 
ATOM     33  H   UNL     1      35.921 -18.386 -23.076  0.00  0.00    +0.145 HD
ATOM     34  H   UNL     1      35.983 -16.782 -22.499  0.00  0.00    +0.145 HD
ENDBRANCH  29  32
ENDBRANCH  24  25
BRANCH  24  35
ATOM     35  C   UNL     1      33.470 -11.129 -23.595  0.00  0.00    +0.153 C 
BRANCH  35  36
ATOM     36  O   UNL     1      34.777 -10.582 -23.731  0.00  0.00    -0.381 OA
ATOM     37  H   UNL     1      35.241 -11.030 -24.456  0.00  0.00    +0.210 HD
ENDBRANCH  35  36
ENDBRANCH  24  35
ENDBRANCH  23  24
ENDBRANCH  22  23
ENDBRANCH   1  22
TORSDOF 11
ENDMDL
MODEL 6
REMARK VINA RESULT:     -10.6      3.985      7.877
REMARK  Name = 448903
REMARK  11 active torsions:
REMARK  status: ('A' for Active; 'I' for Inactive)
REMARK    1  A    between atoms: N_1  and  C_22
REMARK    2  A    between atoms: C_8  and  N_11
REMARK    3  A    between atoms: C_12  and  C_14
REMARK    4  A    between atoms: C_14  and  C_15
REMARK    5  A    between atoms: C_15  and  C_16
REMARK    6  A    between atoms: C_22  and  C_23
REMARK    7  A    between atoms: C_23  and  C_24
REMARK    8  A    between atoms: C_24  and  N_25
REMARK    9  A    between atoms: C_24  and  C_35
REMARK   10  A    between atoms: C_29  and  C_32
REMARK   11  A    between atoms: C_35  and  O_36
REMARK                            x       y       z     vdW  Elec       q    Type
REMARK                         _______ _______ _______ _____ _____    ______ ____
ROOT
ATOM      1  N   UNL     1      33.376 -22.655 -17.204  0.00  0.00    -0.286 N 
ATOM      2  C   UNL     1      34.679 -22.532 -16.776  0.00  0.00    +0.053 C 
ATOM      3  C   UNL     1      35.389 -21.901 -17.800  0.00  0.00    +0.015 C 
ATOM      4  C   UNL     1      33.238 -22.124 -18.458  0.00  0.00    +0.065 C 
ATOM      5  C   UNL     1      34.467 -21.649 -18.854  0.00  0.00    +0.017 C 
ATOM      6  C   UNL     1      35.276 -22.928 -15.574  0.00  0.00    +0.029 C 
ATOM      7  C   UNL     1      36.764 -21.652 -17.617  0.00  0.00    +0.003 C 
ATOM      8  C   UNL     1      36.642 -22.670 -15.415  0.00  0.00    +0.052 C 
ATOM      9  C   UNL     1      37.375 -22.041 -16.420  0.00  0.00    +0.015 C 
ENDROOT
BRANCH   8  11
ATOM     10  O   UNL     1      35.494 -23.403 -12.735  0.00  0.00    -0.275 OA
ATOM     11  N   UNL     1      37.276 -23.047 -14.231  0.00  0.00    -0.284 N 
ATOM     12  C   UNL     1      36.691 -23.393 -13.007  0.00  0.00    +0.226 C 
ATOM     13  H   UNL     1      38.260 -23.072 -14.259  0.00  0.00    +0.155 HD
BRANCH  12  14
ATOM     14  C   UNL     1      37.722 -23.746 -11.947  0.00  0.00    +0.090 C 
BRANCH  14  15
ATOM     15  C   UNL     1      37.826 -25.258 -11.742  0.00  0.00    +0.036 C 
BRANCH  15  16
ATOM     16  C   UNL     1      38.646 -25.951 -12.803  0.00  0.00    -0.022 C 
ATOM     17  C   UNL     1      39.818 -25.362 -13.275  0.00  0.00    -0.004 C 
ATOM     18  C   UNL     1      38.230 -27.182 -13.312  0.00  0.00    -0.004 C 
ATOM     19  C   UNL     1      40.575 -26.002 -14.256  0.00  0.00    -0.000 C 
ATOM     20  C   UNL     1      38.987 -27.823 -14.293  0.00  0.00    -0.000 C 
ATOM     21  C   UNL     1      40.160 -27.233 -14.765  0.00  0.00    -0.000 C 
ENDBRANCH  15  16
ENDBRANCH  14  15
ENDBRANCH  12  14
ENDBRANCH   8  11
BRANCH   1  22
ATOM     22  C   UNL     1      32.296 -23.255 -16.450  0.00  0.00    +0.097 C 
BRANCH  22  23
ATOM     23  C   UNL     1      32.211 -22.792 -14.990  0.00  0.00    +0.040 C 
BRANCH  23  24
ATOM     24  C   UNL     1      31.046 -23.397 -14.175  0.00  0.00    +0.091 C 
BRANCH  24  25
ATOM     25  N   UNL     1      29.773 -23.442 -14.914  0.00  0.00    -0.246 NA
ATOM     26  N   UNL     1      28.088 -24.076 -16.215  0.00  0.00    -0.251 NA
ATOM     27  C   UNL     1      28.792 -22.483 -14.917  0.00  0.00    +0.125 C 
ATOM     28  C   UNL     1      29.318 -24.388 -15.705  0.00  0.00    +0.201 C 
ATOM     29  C   UNL     1      27.736 -22.853 -15.717  0.00  0.00    +0.124 C 
BRANCH  29  32
ATOM     30  O   UNL     1      25.573 -22.060 -15.188  0.00  0.00    -0.269 OA
ATOM     31  N   UNL     1      26.398 -21.537 -17.247  0.00  0.00    -0.324 N 
ATOM     32  C   UNL     1      26.524 -22.161 -15.999  0.00  0.00    +0.257 C 
ATOM     33  H   UNL     1      25.572 -21.050 -17.472  0.00  0.00    +0.145 HD
ATOM     34  H   UNL     1      27.135 -21.585 -17.898  0.00  0.00    +0.145 HD
ENDBRANCH  29  32
ENDBRANCH  24  25
BRANCH  24  35
ATOM     35  C   UNL     1      31.416 -24.796 -13.658  0.00  0.00    +0.153 C 
BRANCH  35  36
ATOM     36  O   UNL     1      30.847 -24.998 -12.369  0.00  0.00    -0.381 OA
ATOM     37  H   UNL     1      31.555 -25.040 -11.706  0.00  0.00    +0.210 HD
ENDBRANCH  35  36
ENDBRANCH  24  35
ENDBRANCH  23  24
ENDBRANCH  22  23
ENDBRANCH   1  22
TORSDOF 11
ENDMDL
MODEL 7
REMARK VINA RESULT:     -10.5      4.023      7.373
REMARK  Name = 448903
REMARK  11 active torsions:
REMARK  status: ('A' for Active; 'I' for Inactive)
REMARK    1  A    between atoms: N_1  and  C_22
REMARK    2  A    between atoms: C_8  and  N_11
REMARK    3  A    between atoms: C_12  and  C_14
REMARK    4  A    between atoms: C_14  and  C_15
REMARK    5  A    between atoms: C_15  and  C_16
REMARK    6  A    between atoms: C_22  and  C_23
REMARK    7  A    between atoms: C_23  and  C_24
REMARK    8  A    between atoms: C_24  and  N_25
REMARK    9  A    between atoms: C_24  and  C_35
REMARK   10  A    between atoms: C_29  and  C_32
REMARK   11  A    between atoms: C_35  and  O_36
REMARK                            x       y       z     vdW  Elec       q    Type
REMARK                         _______ _______ _______ _____ _____    ______ ____
ROOT
ATOM      1  N   UNL     1      33.896 -23.954 -14.028  0.00  0.00    -0.286 N 
ATOM      2  C   UNL     1      33.544 -23.413 -15.245  0.00  0.00    +0.053 C 
ATOM      3  C   UNL     1      32.148 -23.369 -15.284  0.00  0.00    +0.015 C 
ATOM      4  C   UNL     1      32.776 -24.250 -13.300  0.00  0.00    +0.065 C 
ATOM      5  C   UNL     1      31.678 -23.899 -14.050  0.00  0.00    +0.017 C 
ATOM      6  C   UNL     1      34.344 -22.965 -16.302  0.00  0.00    +0.029 C 
ATOM      7  C   UNL     1      31.518 -22.852 -16.434  0.00  0.00    +0.003 C 
ATOM      8  C   UNL     1      33.697 -22.456 -17.432  0.00  0.00    +0.052 C 
ATOM      9  C   UNL     1      32.306 -22.399 -17.499  0.00  0.00    +0.015 C 
ENDROOT
BRANCH   8  11
ATOM     10  O   UNL     1      33.050 -20.430 -19.557  0.00  0.00    -0.275 OA
ATOM     11  N   UNL     1      34.458 -21.998 -18.508  0.00  0.00    -0.284 N 
ATOM     12  C   UNL     1      34.113 -21.037 -19.466  0.00  0.00    +0.226 C 
ATOM     13  H   UNL     1      35.351 -22.401 -18.606  0.00  0.00    +0.155 HD
BRANCH  12  14
ATOM     14  C   UNL     1      35.217 -20.809 -20.487  0.00  0.00    +0.090 C 
BRANCH  14  15
ATOM     15  C   UNL     1      35.630 -19.338 -20.552  0.00  0.00    +0.036 C 
BRANCH  15  16
ATOM     16  C   UNL     1      35.193 -18.649 -21.822  0.00  0.00    -0.022 C 
ATOM     17  C   UNL     1      34.556 -19.377 -22.827  0.00  0.00    -0.004 C 
ATOM     18  C   UNL     1      35.425 -17.284 -21.991  0.00  0.00    -0.004 C 
ATOM     19  C   UNL     1      34.152 -18.741 -24.000  0.00  0.00    -0.000 C 
ATOM     20  C   UNL     1      35.021 -16.648 -23.165  0.00  0.00    -0.000 C 
ATOM     21  C   UNL     1      34.384 -17.376 -24.170  0.00  0.00    -0.000 C 
ENDBRANCH  15  16
ENDBRANCH  14  15
ENDBRANCH  12  14
ENDBRANCH   8  11
BRANCH   1  22
ATOM     22  C   UNL     1      35.251 -24.182 -13.571  0.00  0.00    +0.097 C 
BRANCH  22  23
ATOM     23  C   UNL     1      35.385 -24.353 -12.052  0.00  0.00    +0.040 C 
BRANCH  23  24
ATOM     24  C   UNL     1      36.830 -24.543 -11.538  0.00  0.00    +0.091 C 
BRANCH  24  25
ATOM     25  N   UNL     1      37.586 -25.571 -12.273  0.00  0.00    -0.246 NA
ATOM     26  N   UNL     1      38.364 -27.509 -13.028  0.00  0.00    -0.251 NA
ATOM     27  C   UNL     1      38.552 -25.354 -13.224  0.00  0.00    +0.125 C 
ATOM     28  C   UNL     1      37.496 -26.879 -12.179  0.00  0.00    +0.201 C 
ATOM     29  C   UNL     1      39.049 -26.542 -13.707  0.00  0.00    +0.124 C 
BRANCH  29  32
ATOM     30  O   UNL     1      41.282 -26.776 -14.447  0.00  0.00    -0.269 OA
ATOM     31  N   UNL     1      39.637 -27.036 -16.003  0.00  0.00    -0.324 N 
ATOM     32  C   UNL     1      40.052 -26.773 -14.692  0.00  0.00    +0.257 C 
ATOM     33  H   UNL     1      40.306 -27.201 -16.707  0.00  0.00    +0.145 HD
ATOM     34  H   UNL     1      38.677 -27.056 -16.222  0.00  0.00    +0.145 HD
ENDBRANCH  29  32
ENDBRANCH  24  25
BRANCH  24  35
ATOM     35  C   UNL     1      37.589 -23.206 -11.551  0.00  0.00    +0.153 C 
BRANCH  35  36
ATOM     36  O   UNL     1      37.364 -22.516 -10.326  0.00  0.00    -0.381 OA
ATOM     37  H   UNL     1      37.797 -22.994  -9.602  0.00  0.00    +0.210 HD
ENDBRANCH  35  36
ENDBRANCH  24  35
ENDBRANCH  23  24
ENDBRANCH  22  23
ENDBRANCH   1  22
TORSDOF 11
ENDMDL
MODEL 8
REMARK VINA RESULT:     -10.4      7.024     12.832
REMARK  Name = 448903
REMARK  11 active torsions:
REMARK  status: ('A' for Active; 'I' for Inactive)
REMARK    1  A    between atoms: N_1  and  C_22
REMARK    2  A    between atoms: C_8  and  N_11
REMARK    3  A    between atoms: C_12  and  C_14
REMARK    4  A    between atoms: C_14  and  C_15
REMARK    5  A    between atoms: C_15  and  C_16
REMARK    6  A    between atoms: C_22  and  C_23
REMARK    7  A    between atoms: C_23  and  C_24
REMARK    8  A    between atoms: C_24  and  N_25
REMARK    9  A    between atoms: C_24  and  C_35
REMARK   10  A    between atoms: C_29  and  C_32
REMARK   11  A    between atoms: C_35  and  O_36
REMARK                            x       y       z     vdW  Elec       q    Type
REMARK                         _______ _______ _______ _____ _____    ______ ____
ROOT
ATOM      1  N   UNL     1      33.603 -11.582 -23.970  0.00  0.00    -0.286 N 
ATOM      2  C   UNL     1      33.872 -12.931 -23.908  0.00  0.00    +0.053 C 
ATOM      3  C   UNL     1      33.659 -13.450 -25.188  0.00  0.00    +0.015 C 
ATOM      4  C   UNL     1      33.231 -11.232 -25.239  0.00  0.00    +0.065 C 
ATOM      5  C   UNL     1      33.256 -12.366 -26.017  0.00  0.00    +0.017 C 
ATOM      6  C   UNL     1      34.281 -13.723 -22.830  0.00  0.00    +0.029 C 
ATOM      7  C   UNL     1      33.865 -14.828 -25.403  0.00  0.00    +0.003 C 
ATOM      8  C   UNL     1      34.480 -15.086 -23.068  0.00  0.00    +0.052 C 
ATOM      9  C   UNL     1      34.276 -15.632 -24.334  0.00  0.00    +0.015 C 
ENDROOT
BRANCH   8  11
ATOM     10  O   UNL     1      35.362 -17.961 -23.077  0.00  0.00    -0.275 OA
ATOM     11  N   UNL     1      34.891 -15.911 -22.020  0.00  0.00    -0.284 N 
ATOM     12  C   UNL     1      35.307 -17.247 -22.080  0.00  0.00    +0.226 C 
ATOM     13  H   UNL     1      34.887 -15.502 -21.123  0.00  0.00    +0.155 HD
BRANCH  12  14
ATOM     14  C   UNL     1      35.677 -17.805 -20.715  0.00  0.00    +0.090 C 
BRANCH  14  15
ATOM     15  C   UNL     1      36.114 -19.267 -20.802  0.00  0.00    +0.036 C 
BRANCH  15  16
ATOM     16  C   UNL     1      35.198 -20.211 -20.062  0.00  0.00    -0.022 C 
ATOM     17  C   UNL     1      33.820 -20.145 -20.261  0.00  0.00    -0.004 C 
ATOM     18  C   UNL     1      35.731 -21.151 -19.179  0.00  0.00    -0.004 C 
ATOM     19  C   UNL     1      32.973 -21.017 -19.577  0.00  0.00    -0.000 C 
ATOM     20  C   UNL     1      34.884 -22.024 -18.495  0.00  0.00    -0.000 C 
ATOM     21  C   UNL     1      33.505 -21.957 -18.694  0.00  0.00    -0.000 C 
ENDBRANCH  15  16
ENDBRANCH  14  15
ENDBRANCH  12  14
ENDBRANCH   8  11
BRANCH   1  22
ATOM     22  C   UNL     1      33.696 -10.655 -22.862  0.00  0.00    +0.097 C 
BRANCH  22  23
ATOM     23  C   UNL     1      32.376  -9.956 -22.511  0.00  0.00    +0.040 C 
BRANCH  23  24
ATOM     24  C   UNL     1      32.277  -9.432 -21.060  0.00  0.00    +0.091 C 
BRANCH  24  25
ATOM     25  N   UNL     1      32.059  -7.978 -20.973  0.00  0.00    -0.246 NA
ATOM     26  N   UNL     1      31.950  -5.882 -20.248  0.00  0.00    -0.251 NA
ATOM     27  C   UNL     1      31.586  -7.159 -21.967  0.00  0.00    +0.125 C 
ATOM     28  C   UNL     1      32.269  -7.178 -19.951  0.00  0.00    +0.201 C 
ATOM     29  C   UNL     1      31.509  -5.854 -21.541  0.00  0.00    +0.124 C 
BRANCH  29  32
ATOM     30  O   UNL     1      30.979  -4.630 -23.494  0.00  0.00    -0.269 OA
ATOM     31  N   UNL     1      30.719  -3.565 -21.495  0.00  0.00    -0.324 N 
ATOM     32  C   UNL     1      31.077  -4.693 -22.244  0.00  0.00    +0.257 C 
ATOM     33  H   UNL     1      30.416  -2.747 -21.952  0.00  0.00    +0.145 HD
ATOM     34  H   UNL     1      30.770  -3.590 -20.512  0.00  0.00    +0.145 HD
ENDBRANCH  29  32
ENDBRANCH  24  25
BRANCH  24  35
ATOM     35  C   UNL     1      31.184 -10.186 -20.286  0.00  0.00    +0.153 C 
BRANCH  35  36
ATOM     36  O   UNL     1      30.686 -11.257 -21.080  0.00  0.00    -0.381 OA
ATOM     37  H   UNL     1      30.980 -12.101 -20.705  0.00  0.00    +0.210 HD
ENDBRANCH  35  36
ENDBRANCH  24  35
ENDBRANCH  23  24
ENDBRANCH  22  23
ENDBRANCH   1  22
TORSDOF 11
ENDMDL
MODEL 9
REMARK VINA RESULT:     -10.2      3.614      7.509
REMARK  Name = 448903
REMARK  11 active torsions:
REMARK  status: ('A' for Active; 'I' for Inactive)
REMARK    1  A    between atoms: N_1  and  C_22
REMARK    2  A    between atoms: C_8  and  N_11
REMARK    3  A    between atoms: C_12  and  C_14
REMARK    4  A    between atoms: C_14  and  C_15
REMARK    5  A    between atoms: C_15  and  C_16
REMARK    6  A    between atoms: C_22  and  C_23
REMARK    7  A    between atoms: C_23  and  C_24
REMARK    8  A    between atoms: C_24  and  N_25
REMARK    9  A    between atoms: C_24  and  C_35
REMARK   10  A    between atoms: C_29  and  C_32
REMARK   11  A    between atoms: C_35  and  O_36
REMARK                            x       y       z     vdW  Elec       q    Type
REMARK                         _______ _______ _______ _____ _____    ______ ____
ROOT
ATOM      1  N   UNL     1      32.418 -24.322 -13.289  0.00  0.00    -0.286 N 
ATOM      2  C   UNL     1      31.838 -23.839 -14.441  0.00  0.00    +0.053 C 
ATOM      3  C   UNL     1      30.499 -24.239 -14.425  0.00  0.00    +0.015 C 
ATOM      4  C   UNL     1      31.495 -25.009 -12.548  0.00  0.00    +0.065 C 
ATOM      5  C   UNL     1      30.298 -24.975 -13.224  0.00  0.00    +0.017 C 
ATOM      6  C   UNL     1      32.390 -23.088 -15.484  0.00  0.00    +0.029 C 
ATOM      7  C   UNL     1      29.670 -23.871 -15.503  0.00  0.00    +0.003 C 
ATOM      8  C   UNL     1      31.547 -22.735 -16.543  0.00  0.00    +0.052 C 
ATOM      9  C   UNL     1      30.208 -23.119 -16.553  0.00  0.00    +0.015 C 
ENDROOT
BRANCH   8  11
ATOM     10  O   UNL     1      33.787 -23.334 -18.457  0.00  0.00    -0.275 OA
ATOM     11  N   UNL     1      32.058 -21.984 -17.603  0.00  0.00    -0.284 N 
ATOM     12  C   UNL     1      33.099 -22.317 -18.478  0.00  0.00    +0.226 C 
ATOM     13  H   UNL     1      31.632 -21.109 -17.755  0.00  0.00    +0.155 HD
BRANCH  12  14
ATOM     14  C   UNL     1      33.364 -21.231 -19.509  0.00  0.00    +0.090 C 
BRANCH  14  15
ATOM     15  C   UNL     1      34.851 -20.883 -19.593  0.00  0.00    +0.036 C 
BRANCH  15  16
ATOM     16  C   UNL     1      35.175 -19.905 -20.696  0.00  0.00    -0.022 C 
ATOM     17  C   UNL     1      36.390 -19.221 -20.687  0.00  0.00    -0.004 C 
ATOM     18  C   UNL     1      34.258 -19.686 -21.725  0.00  0.00    -0.004 C 
ATOM     19  C   UNL     1      36.689 -18.317 -21.707  0.00  0.00    -0.000 C 
ATOM     20  C   UNL     1      34.557 -18.781 -22.744  0.00  0.00    -0.000 C 
ATOM     21  C   UNL     1      35.773 -18.097 -22.735  0.00  0.00    -0.000 C 
ENDBRANCH  15  16
ENDBRANCH  14  15
ENDBRANCH  12  14
ENDBRANCH   8  11
BRANCH   1  22
ATOM     22  C   UNL     1      33.800 -24.138 -12.903  0.00  0.00    +0.097 C 
BRANCH  22  23
ATOM     23  C   UNL     1      34.816 -24.550 -13.977  0.00  0.00    +0.040 C 
BRANCH  23  24
ATOM     24  C   UNL     1      36.226 -23.938 -13.816  0.00  0.00    +0.091 C 
BRANCH  24  25
ATOM     25  N   UNL     1      37.308 -24.936 -13.850  0.00  0.00    -0.246 NA
ATOM     26  N   UNL     1      39.151 -26.095 -13.407  0.00  0.00    -0.251 NA
ATOM     27  C   UNL     1      37.425 -25.989 -14.722  0.00  0.00    +0.125 C 
ATOM     28  C   UNL     1      38.363 -25.029 -13.070  0.00  0.00    +0.201 C 
ATOM     29  C   UNL     1      38.561 -26.722 -14.467  0.00  0.00    +0.124 C 
BRANCH  29  32
ATOM     30  O   UNL     1      39.806 -28.729 -14.577  0.00  0.00    -0.269 OA
ATOM     31  N   UNL     1      38.674 -28.103 -16.454  0.00  0.00    -0.324 N 
ATOM     32  C   UNL     1      39.059 -27.883 -15.126  0.00  0.00    +0.257 C 
ATOM     33  H   UNL     1      39.001 -28.896 -16.936  0.00  0.00    +0.145 HD
ATOM     34  H   UNL     1      38.076 -27.464 -16.905  0.00  0.00    +0.145 HD
ENDBRANCH  29  32
ENDBRANCH  24  25
BRANCH  24  35
ATOM     35  C   UNL     1      36.467 -22.848 -14.873  0.00  0.00    +0.153 C 
BRANCH  35  36
ATOM     36  O   UNL     1      35.728 -23.151 -16.051  0.00  0.00    -0.381 OA
ATOM     37  H   UNL     1      36.306 -23.595 -16.691  0.00  0.00    +0.210 HD
ENDBRANCH  35  36
ENDBRANCH  24  35
ENDBRANCH  23  24
ENDBRANCH  22  23
ENDBRANCH   1  22
TORSDOF 11
ENDMDL
