MODEL 1
REMARK VINA RESULT:     -10.8      0.000      0.000
REMARK  Name = 52913524
REMARK  9 active torsions:
REMARK  status: ('A' for Active; 'I' for Inactive)
REMARK    1  A    between atoms: C_1  and  C_10
REMARK    2  A    between atoms: C_4  and  C_24
REMARK    3  A    between atoms: C_5  and  C_22
REMARK    4  A    between atoms: C_8  and  O_13
REMARK    5  A    between atoms: C_9  and  O_15
REMARK    6  A    between atoms: C_11  and  O_17
REMARK    7  A    between atoms: C_12  and  C_19
REMARK    8  A    between atoms: C_19  and  O_20
REMARK    9  A    between atoms: C_24  and  C_27
REMARK                            x       y       z     vdW  Elec       q    Type
REMARK                         _______ _______ _______ _____ _____    ______ ____
ROOT
ATOM      1  C   UNL     1      34.003 -23.882 -14.226  0.00  0.00    +0.007 C 
ATOM      2  C   UNL     1      33.908 -23.792 -15.614  0.00  0.00    -0.006 C 
ATOM      3  C   UNL     1      32.928 -23.495 -13.426  0.00  0.00    -0.002 C 
ATOM      4  C   UNL     1      32.737 -23.315 -16.203  0.00  0.00    -0.022 C 
ATOM      5  C   UNL     1      31.662 -22.927 -15.403  0.00  0.00    -0.026 C 
ATOM      6  C   UNL     1      31.757 -23.017 -14.015  0.00  0.00    -0.005 C 
ENDROOT
BRANCH   1  10
ATOM      7  O   UNL     1      35.765 -23.387 -12.703  0.00  0.00    -0.347 OA
ATOM      8  C   UNL     1      36.336 -24.772 -14.634  0.00  0.00    +0.171 C 
ATOM      9  C   UNL     1      37.664 -25.140 -13.965  0.00  0.00    +0.169 C 
ATOM     10  C   UNL     1      35.276 -24.402 -13.586  0.00  0.00    +0.167 C 
ATOM     11  C   UNL     1      38.072 -24.095 -12.927  0.00  0.00    +0.169 C 
ATOM     12  C   UNL     1      36.918 -23.800 -11.968  0.00  0.00    +0.174 C 
BRANCH   8  13
ATOM     13  O   UNL     1      35.868 -25.892 -15.384  0.00  0.00    -0.379 OA
ATOM     14  H   UNL     1      34.954 -26.093 -15.129  0.00  0.00    +0.211 HD
ENDBRANCH   8  13
BRANCH   9  15
ATOM     15  O   UNL     1      38.692 -25.206 -14.954  0.00  0.00    -0.379 OA
ATOM     16  H   UNL     1      38.517 -24.550 -15.646  0.00  0.00    +0.211 HD
ENDBRANCH   9  15
BRANCH  11  17
ATOM     17  O   UNL     1      39.188 -24.580 -12.184  0.00  0.00    -0.379 OA
ATOM     18  H   UNL     1      39.557 -25.360 -12.629  0.00  0.00    +0.211 HD
ENDBRANCH  11  17
BRANCH  12  19
ATOM     19  C   UNL     1      37.264 -22.679 -10.993  0.00  0.00    +0.169 C 
BRANCH  19  20
ATOM     20  O   UNL     1      38.374 -21.965 -11.505  0.00  0.00    -0.379 OA
ATOM     21  H   UNL     1      39.132 -22.563 -11.591  0.00  0.00    +0.211 HD
ENDBRANCH  19  20
ENDBRANCH  12  19
ENDBRANCH   1  10
BRANCH   5  22
ATOM     22  C   UNL     1      30.398 -22.412 -16.010  0.00  0.00    +0.026 C 
ATOM     23  C   UNL     1      29.159 -23.076 -15.419  0.00  0.00    +0.005 C 
ENDBRANCH   5  22
BRANCH   4  24
ATOM     24  C   UNL     1      32.658 -23.227 -17.692  0.00  0.00    +0.052 C 
BRANCH  24  27
ATOM     25  O   UNL     1      33.913 -19.826 -20.955  0.00  0.00    -0.468 OA
ATOM     26  O   UNL     1      36.608 -19.826 -19.931  0.00  0.00    -0.468 OA
ATOM     27  C   UNL     1      33.702 -22.320 -18.309  0.00  0.00    -0.015 C 
ATOM     28  C   UNL     1      33.350 -21.462 -19.350  0.00  0.00    +0.036 C 
ATOM     29  C   UNL     1      35.016 -22.348 -17.839  0.00  0.00    -0.001 C 
ATOM     30  C   UNL     1      34.315 -20.632 -19.922  0.00  0.00    +0.172 C 
ATOM     31  C   UNL     1      35.623 -20.640 -19.433  0.00  0.00    +0.172 C 
ATOM     32  C   UNL     1      35.978 -21.509 -18.401  0.00  0.00    +0.040 C 
ATOM     33  C   UNL     1      35.025 -19.293 -21.679  0.00  0.00    +0.253 C 
ATOM     34  C   UNL     1      36.070 -18.761 -20.719  0.00  0.00    +0.253 C 
ENDBRANCH  24  27
ENDBRANCH   4  24
TORSDOF 9
ENDMDL
MODEL 2
REMARK VINA RESULT:     -10.7      1.126      2.488
REMARK  Name = 52913524
REMARK  9 active torsions:
REMARK  status: ('A' for Active; 'I' for Inactive)
REMARK    1  A    between atoms: C_1  and  C_10
REMARK    2  A    between atoms: C_4  and  C_24
REMARK    3  A    between atoms: C_5  and  C_22
REMARK    4  A    between atoms: C_8  and  O_13
REMARK    5  A    between atoms: C_9  and  O_15
REMARK    6  A    between atoms: C_11  and  O_17
REMARK    7  A    between atoms: C_12  and  C_19
REMARK    8  A    between atoms: C_19  and  O_20
REMARK    9  A    between atoms: C_24  and  C_27
REMARK                            x       y       z     vdW  Elec       q    Type
REMARK                         _______ _______ _______ _____ _____    ______ ____
ROOT
ATOM      1  C   UNL     1      34.501 -23.932 -14.967  0.00  0.00    +0.007 C 
ATOM      2  C   UNL     1      34.230 -23.502 -16.267  0.00  0.00    -0.006 C 
ATOM      3  C   UNL     1      33.488 -23.939 -14.009  0.00  0.00    -0.002 C 
ATOM      4  C   UNL     1      32.945 -23.079 -16.607  0.00  0.00    -0.022 C 
ATOM      5  C   UNL     1      31.932 -23.086 -15.648  0.00  0.00    -0.026 C 
ATOM      6  C   UNL     1      32.203 -23.516 -14.350  0.00  0.00    -0.005 C 
ENDROOT
BRANCH   1  10
ATOM      7  O   UNL     1      36.025 -25.759 -15.004  0.00  0.00    -0.347 OA
ATOM      8  C   UNL     1      36.174 -24.241 -13.094  0.00  0.00    +0.171 C 
ATOM      9  C   UNL     1      37.524 -24.860 -12.720  0.00  0.00    +0.169 C 
ATOM     10  C   UNL     1      35.897 -24.393 -14.598  0.00  0.00    +0.167 C 
ATOM     11  C   UNL     1      37.670 -26.267 -13.296  0.00  0.00    +0.169 C 
ATOM     12  C   UNL     1      37.338 -26.280 -14.790  0.00  0.00    +0.174 C 
BRANCH   8  13
ATOM     13  O   UNL     1      36.193 -22.852 -12.770  0.00  0.00    -0.379 OA
ATOM     14  H   UNL     1      35.904 -22.336 -13.539  0.00  0.00    +0.211 HD
ENDBRANCH   8  13
BRANCH   9  15
ATOM     15  O   UNL     1      37.625 -24.953 -11.298  0.00  0.00    -0.379 OA
ATOM     16  H   UNL     1      38.512 -24.675 -11.018  0.00  0.00    +0.211 HD
ENDBRANCH   9  15
BRANCH  11  17
ATOM     17  O   UNL     1      39.009 -26.716 -13.109  0.00  0.00    -0.379 OA
ATOM     18  H   UNL     1      39.193 -27.449 -13.719  0.00  0.00    +0.211 HD
ENDBRANCH  11  17
BRANCH  12  19
ATOM     19  C   UNL     1      37.369 -27.693 -15.364  0.00  0.00    +0.169 C 
BRANCH  19  20
ATOM     20  O   UNL     1      36.797 -27.666 -16.658  0.00  0.00    -0.379 OA
ATOM     21  H   UNL     1      36.075 -28.313 -16.707  0.00  0.00    +0.211 HD
ENDBRANCH  19  20
ENDBRANCH  12  19
ENDBRANCH   1  10
BRANCH   5  22
ATOM     22  C   UNL     1      30.549 -22.636 -15.989  0.00  0.00    +0.026 C 
ATOM     23  C   UNL     1      29.597 -22.741 -14.802  0.00  0.00    +0.005 C 
ENDBRANCH   5  22
BRANCH   4  24
ATOM     24  C   UNL     1      32.679 -22.622 -18.004  0.00  0.00    +0.052 C 
BRANCH  24  27
ATOM     25  O   UNL     1      34.276 -19.306 -21.203  0.00  0.00    -0.468 OA
ATOM     26  O   UNL     1      36.967 -19.644 -20.223  0.00  0.00    -0.468 OA
ATOM     27  C   UNL     1      33.813 -21.826 -18.615  0.00  0.00    -0.015 C 
ATOM     28  C   UNL     1      33.549 -20.906 -19.630  0.00  0.00    +0.036 C 
ATOM     29  C   UNL     1      35.121 -22.018 -18.168  0.00  0.00    -0.001 C 
ATOM     30  C   UNL     1      34.596 -20.179 -20.197  0.00  0.00    +0.172 C 
ATOM     31  C   UNL     1      35.901 -20.351 -19.730  0.00  0.00    +0.172 C 
ATOM     32  C   UNL     1      36.166 -21.282 -18.725  0.00  0.00    +0.040 C 
ATOM     33  C   UNL     1      35.433 -18.886 -21.932  0.00  0.00    +0.253 C 
ATOM     34  C   UNL     1      36.546 -18.504 -20.976  0.00  0.00    +0.253 C 
ENDBRANCH  24  27
ENDBRANCH   4  24
TORSDOF 9
ENDMDL
MODEL 3
REMARK VINA RESULT:     -10.3      3.242      7.552
REMARK  Name = 52913524
REMARK  9 active torsions:
REMARK  status: ('A' for Active; 'I' for Inactive)
REMARK    1  A    between atoms: C_1  and  C_10
REMARK    2  A    between atoms: C_4  and  C_24
REMARK    3  A    between atoms: C_5  and  C_22
REMARK    4  A    between atoms: C_8  and  O_13
REMARK    5  A    between atoms: C_9  and  O_15
REMARK    6  A    between atoms: C_11  and  O_17
REMARK    7  A    between atoms: C_12  and  C_19
REMARK    8  A    between atoms: C_19  and  O_20
REMARK    9  A    between atoms: C_24  and  C_27
REMARK                            x       y       z     vdW  Elec       q    Type
REMARK                         _______ _______ _______ _____ _____    ______ ____
ROOT
ATOM      1  C   UNL     1      35.505 -21.991 -17.513  0.00  0.00    +0.007 C 
ATOM      2  C   UNL     1      34.610 -22.827 -16.847  0.00  0.00    -0.006 C 
ATOM      3  C   UNL     1      36.676 -21.575 -16.879  0.00  0.00    -0.002 C 
ATOM      4  C   UNL     1      34.885 -23.248 -15.546  0.00  0.00    -0.022 C 
ATOM      5  C   UNL     1      36.055 -22.831 -14.911  0.00  0.00    -0.026 C 
ATOM      6  C   UNL     1      36.951 -21.995 -15.577  0.00  0.00    -0.005 C 
ENDROOT
BRANCH   1  10
ATOM      7  O   UNL     1      36.006 -20.376 -19.189  0.00  0.00    -0.347 OA
ATOM      8  C   UNL     1      33.715 -21.228 -19.131  0.00  0.00    +0.171 C 
ATOM      9  C   UNL     1      33.464 -20.618 -20.513  0.00  0.00    +0.169 C 
ATOM     10  C   UNL     1      35.207 -21.535 -18.928  0.00  0.00    +0.167 C 
ATOM     11  C   UNL     1      34.436 -19.475 -20.802  0.00  0.00    +0.169 C 
ATOM     12  C   UNL     1      35.878 -19.907 -20.532  0.00  0.00    +0.174 C 
BRANCH   8  13
ATOM     13  O   UNL     1      32.978 -22.444 -19.018  0.00  0.00    -0.379 OA
ATOM     14  H   UNL     1      32.071 -22.249 -18.737  0.00  0.00    +0.211 HD
ENDBRANCH   8  13
BRANCH   9  15
ATOM     15  O   UNL     1      32.136 -20.093 -20.566  0.00  0.00    -0.379 OA
ATOM     16  H   UNL     1      31.902 -19.898 -21.487  0.00  0.00    +0.211 HD
ENDBRANCH   9  15
BRANCH  11  17
ATOM     17  O   UNL     1      34.311 -19.085 -22.167  0.00  0.00    -0.379 OA
ATOM     18  H   UNL     1      34.425 -19.861 -22.737  0.00  0.00    +0.211 HD
ENDBRANCH  11  17
BRANCH  12  19
ATOM     19  C   UNL     1      36.858 -18.750 -20.707  0.00  0.00    +0.169 C 
BRANCH  19  20
ATOM     20  O   UNL     1      37.151 -18.612 -22.084  0.00  0.00    -0.379 OA
ATOM     21  H   UNL     1      37.180 -19.489 -22.498  0.00  0.00    +0.211 HD
ENDBRANCH  19  20
ENDBRANCH  12  19
ENDBRANCH   1  10
BRANCH   5  22
ATOM     22  C   UNL     1      36.370 -23.267 -13.518  0.00  0.00    +0.026 C 
ATOM     23  C   UNL     1      37.490 -24.302 -13.475  0.00  0.00    +0.005 C 
ENDBRANCH   5  22
BRANCH   4  24
ATOM     24  C   UNL     1      33.911 -24.143 -14.852  0.00  0.00    +0.052 C 
BRANCH  24  27
ATOM     25  O   UNL     1      29.418 -23.611 -16.674  0.00  0.00    -0.468 OA
ATOM     26  O   UNL     1      28.680 -21.994 -14.405  0.00  0.00    -0.468 OA
ATOM     27  C   UNL     1      32.513 -23.568 -14.754  0.00  0.00    -0.015 C 
ATOM     28  C   UNL     1      31.574 -23.850 -15.747  0.00  0.00    +0.036 C 
ATOM     29  C   UNL     1      32.167 -22.754 -13.675  0.00  0.00    -0.001 C 
ATOM     30  C   UNL     1      30.289 -23.315 -15.658  0.00  0.00    +0.172 C 
ATOM     31  C   UNL     1      29.935 -22.522 -14.565  0.00  0.00    +0.172 C 
ATOM     32  C   UNL     1      30.878 -22.229 -13.580  0.00  0.00    +0.040 C 
ATOM     33  C   UNL     1      28.276 -22.750 -16.665  0.00  0.00    +0.253 C 
ATOM     34  C   UNL     1      27.723 -22.626 -15.259  0.00  0.00    +0.253 C 
ENDBRANCH  24  27
ENDBRANCH   4  24
TORSDOF 9
ENDMDL
MODEL 4
REMARK VINA RESULT:     -10.2      1.248      2.352
REMARK  Name = 52913524
REMARK  9 active torsions:
REMARK  status: ('A' for Active; 'I' for Inactive)
REMARK    1  A    between atoms: C_1  and  C_10
REMARK    2  A    between atoms: C_4  and  C_24
REMARK    3  A    between atoms: C_5  and  C_22
REMARK    4  A    between atoms: C_8  and  O_13
REMARK    5  A    between atoms: C_9  and  O_15
REMARK    6  A    between atoms: C_11  and  O_17
REMARK    7  A    between atoms: C_12  and  C_19
REMARK    8  A    between atoms: C_19  and  O_20
REMARK    9  A    between atoms: C_24  and  C_27
REMARK                            x       y       z     vdW  Elec       q    Type
REMARK                         _______ _______ _______ _____ _____    ______ ____
ROOT
ATOM      1  C   UNL     1      34.220 -23.191 -14.397  0.00  0.00    +0.007 C 
ATOM      2  C   UNL     1      34.266 -23.386 -15.778  0.00  0.00    -0.006 C 
ATOM      3  C   UNL     1      33.016 -22.852 -13.780  0.00  0.00    -0.002 C 
ATOM      4  C   UNL     1      33.108 -23.241 -16.542  0.00  0.00    -0.022 C 
ATOM      5  C   UNL     1      31.903 -22.901 -15.924  0.00  0.00    -0.026 C 
ATOM      6  C   UNL     1      31.857 -22.707 -14.544  0.00  0.00    -0.005 C 
ENDROOT
BRANCH   1  10
ATOM      7  O   UNL     1      36.492 -23.901 -14.415  0.00  0.00    -0.347 OA
ATOM      8  C   UNL     1      35.248 -24.243 -12.339  0.00  0.00    +0.171 C 
ATOM      9  C   UNL     1      36.565 -24.520 -11.607  0.00  0.00    +0.169 C 
ATOM     10  C   UNL     1      35.479 -23.350 -13.567  0.00  0.00    +0.167 C 
ATOM     11  C   UNL     1      37.656 -24.971 -12.577  0.00  0.00    +0.169 C 
ATOM     12  C   UNL     1      37.758 -24.011 -13.764  0.00  0.00    +0.174 C 
BRANCH   8  13
ATOM     13  O   UNL     1      34.354 -23.577 -11.449  0.00  0.00    -0.379 OA
ATOM     14  H   UNL     1      34.509 -23.884 -10.543  0.00  0.00    +0.211 HD
ENDBRANCH   8  13
BRANCH   9  15
ATOM     15  O   UNL     1      36.367 -25.562 -10.651  0.00  0.00    -0.379 OA
ATOM     16  H   UNL     1      36.704 -26.398 -11.009  0.00  0.00    +0.211 HD
ENDBRANCH   9  15
BRANCH  11  17
ATOM     17  O   UNL     1      38.907 -25.008 -11.895  0.00  0.00    -0.379 OA
ATOM     18  H   UNL     1      39.184 -25.931 -11.778  0.00  0.00    +0.211 HD
ENDBRANCH  11  17
BRANCH  12  19
ATOM     19  C   UNL     1      38.764 -24.501 -14.802  0.00  0.00    +0.169 C 
BRANCH  19  20
ATOM     20  O   UNL     1      39.068 -23.428 -15.675  0.00  0.00    -0.379 OA
ATOM     21  H   UNL     1      39.712 -22.839 -15.250  0.00  0.00    +0.211 HD
ENDBRANCH  19  20
ENDBRANCH  12  19
ENDBRANCH   1  10
BRANCH   5  22
ATOM     22  C   UNL     1      30.651 -22.740 -16.721  0.00  0.00    +0.026 C 
ATOM     23  C   UNL     1      29.419 -23.237 -15.971  0.00  0.00    +0.005 C 
ENDBRANCH   5  22
BRANCH   4  24
ATOM     24  C   UNL     1      33.182 -23.454 -18.018  0.00  0.00    +0.052 C 
BRANCH  24  27
ATOM     25  O   UNL     1      36.709 -20.576 -19.767  0.00  0.00    -0.468 OA
ATOM     26  O   UNL     1      34.726 -18.862 -20.969  0.00  0.00    -0.468 OA
ATOM     27  C   UNL     1      33.612 -22.226 -18.793  0.00  0.00    -0.015 C 
ATOM     28  C   UNL     1      34.969 -21.945 -18.953  0.00  0.00    +0.036 C 
ATOM     29  C   UNL     1      32.651 -21.376 -19.342  0.00  0.00    -0.001 C 
ATOM     30  C   UNL     1      35.363 -20.810 -19.662  0.00  0.00    +0.172 C 
ATOM     31  C   UNL     1      34.402 -19.973 -20.234  0.00  0.00    +0.172 C 
ATOM     32  C   UNL     1      33.045 -20.248 -20.062  0.00  0.00    +0.040 C 
ATOM     33  C   UNL     1      36.986 -19.239 -20.196  0.00  0.00    +0.253 C 
ATOM     34  C   UNL     1      36.099 -18.870 -21.368  0.00  0.00    +0.253 C 
ENDBRANCH  24  27
ENDBRANCH   4  24
TORSDOF 9
ENDMDL
MODEL 5
REMARK VINA RESULT:     -10.1      3.043      7.793
REMARK  Name = 52913524
REMARK  9 active torsions:
REMARK  status: ('A' for Active; 'I' for Inactive)
REMARK    1  A    between atoms: C_1  and  C_10
REMARK    2  A    between atoms: C_4  and  C_24
REMARK    3  A    between atoms: C_5  and  C_22
REMARK    4  A    between atoms: C_8  and  O_13
REMARK    5  A    between atoms: C_9  and  O_15
REMARK    6  A    between atoms: C_11  and  O_17
REMARK    7  A    between atoms: C_12  and  C_19
REMARK    8  A    between atoms: C_19  and  O_20
REMARK    9  A    between atoms: C_24  and  C_27
REMARK                            x       y       z     vdW  Elec       q    Type
REMARK                         _______ _______ _______ _____ _____    ______ ____
ROOT
ATOM      1  C   UNL     1      33.232 -23.449 -16.216  0.00  0.00    +0.007 C 
ATOM      2  C   UNL     1      34.410 -23.404 -15.470  0.00  0.00    -0.006 C 
ATOM      3  C   UNL     1      33.176 -22.838 -17.469  0.00  0.00    -0.002 C 
ATOM      4  C   UNL     1      35.532 -22.747 -15.977  0.00  0.00    -0.022 C 
ATOM      5  C   UNL     1      35.475 -22.136 -17.230  0.00  0.00    -0.026 C 
ATOM      6  C   UNL     1      34.298 -22.181 -17.976  0.00  0.00    -0.005 C 
ENDROOT
BRANCH   1  10
ATOM      7  O   UNL     1      30.855 -23.454 -16.113  0.00  0.00    -0.347 OA
ATOM      8  C   UNL     1      32.043 -24.251 -14.132  0.00  0.00    +0.171 C 
ATOM      9  C   UNL     1      30.733 -24.831 -13.591  0.00  0.00    +0.169 C 
ATOM     10  C   UNL     1      32.014 -24.164 -15.666  0.00  0.00    +0.167 C 
ATOM     11  C   UNL     1      29.521 -24.133 -14.206  0.00  0.00    +0.169 C 
ATOM     12  C   UNL     1      29.634 -24.090 -15.731  0.00  0.00    +0.174 C 
BRANCH   8  13
ATOM     13  O   UNL     1      33.122 -25.100 -13.743  0.00  0.00    -0.379 OA
ATOM     14  H   UNL     1      32.893 -25.558 -12.919  0.00  0.00    +0.211 HD
ENDBRANCH   8  13
BRANCH   9  15
ATOM     15  O   UNL     1      30.679 -24.643 -12.176  0.00  0.00    -0.379 OA
ATOM     16  H   UNL     1      31.086 -25.404 -11.733  0.00  0.00    +0.211 HD
ENDBRANCH   9  15
BRANCH  11  17
ATOM     17  O   UNL     1      28.337 -24.839 -13.844  0.00  0.00    -0.379 OA
ATOM     18  H   UNL     1      27.604 -24.211 -13.745  0.00  0.00    +0.211 HD
ENDBRANCH  11  17
BRANCH  12  19
ATOM     19  C   UNL     1      28.491 -23.301 -16.362  0.00  0.00    +0.169 C 
BRANCH  19  20
ATOM     20  O   UNL     1      27.597 -24.212 -16.973  0.00  0.00    -0.379 OA
ATOM     21  H   UNL     1      27.156 -23.780 -17.721  0.00  0.00    +0.211 HD
ENDBRANCH  19  20
ENDBRANCH  12  19
ENDBRANCH   1  10
BRANCH   5  22
ATOM     22  C   UNL     1      36.662 -21.426 -17.793  0.00  0.00    +0.026 C 
ATOM     23  C   UNL     1      36.448 -20.999 -19.242  0.00  0.00    +0.005 C 
ENDBRANCH   5  22
BRANCH   4  24
ATOM     24  C   UNL     1      36.782 -22.712 -15.161  0.00  0.00    +0.052 C 
BRANCH  24  27
ATOM     25  O   UNL     1      37.432 -27.449 -14.198  0.00  0.00    -0.468 OA
ATOM     26  O   UNL     1      37.237 -26.910 -11.372  0.00  0.00    -0.468 OA
ATOM     27  C   UNL     1      36.895 -23.846 -14.164  0.00  0.00    -0.015 C 
ATOM     28  C   UNL     1      37.127 -25.146 -14.613  0.00  0.00    +0.036 C 
ATOM     29  C   UNL     1      36.762 -23.591 -12.798  0.00  0.00    -0.001 C 
ATOM     30  C   UNL     1      37.224 -26.191 -13.694  0.00  0.00    +0.172 C 
ATOM     31  C   UNL     1      37.118 -25.932 -12.326  0.00  0.00    +0.172 C 
ATOM     32  C   UNL     1      36.873 -24.633 -11.878  0.00  0.00    +0.040 C 
ATOM     33  C   UNL     1      37.170 -28.463 -13.224  0.00  0.00    +0.253 C 
ATOM     34  C   UNL     1      37.820 -28.102 -11.903  0.00  0.00    +0.253 C 
ENDBRANCH  24  27
ENDBRANCH   4  24
TORSDOF 9
ENDMDL
MODEL 6
REMARK VINA RESULT:     -10.0      2.585      7.177
REMARK  Name = 52913524
REMARK  9 active torsions:
REMARK  status: ('A' for Active; 'I' for Inactive)
REMARK    1  A    between atoms: C_1  and  C_10
REMARK    2  A    between atoms: C_4  and  C_24
REMARK    3  A    between atoms: C_5  and  C_22
REMARK    4  A    between atoms: C_8  and  O_13
REMARK    5  A    between atoms: C_9  and  O_15
REMARK    6  A    between atoms: C_11  and  O_17
REMARK    7  A    between atoms: C_12  and  C_19
REMARK    8  A    between atoms: C_19  and  O_20
REMARK    9  A    between atoms: C_24  and  C_27
REMARK                            x       y       z     vdW  Elec       q    Type
REMARK                         _______ _______ _______ _____ _____    ______ ____
ROOT
ATOM      1  C   UNL     1      33.628 -22.884 -16.994  0.00  0.00    +0.007 C 
ATOM      2  C   UNL     1      34.893 -22.681 -16.442  0.00  0.00    -0.006 C 
ATOM      3  C   UNL     1      33.347 -22.429 -18.282  0.00  0.00    -0.002 C 
ATOM      4  C   UNL     1      35.877 -22.022 -17.179  0.00  0.00    -0.022 C 
ATOM      5  C   UNL     1      35.596 -21.567 -18.468  0.00  0.00    -0.026 C 
ATOM      6  C   UNL     1      34.332 -21.771 -19.019  0.00  0.00    -0.005 C 
ENDROOT
BRANCH   1  10
ATOM      7  O   UNL     1      31.326 -22.901 -16.390  0.00  0.00    -0.347 OA
ATOM      8  C   UNL     1      32.912 -23.675 -14.700  0.00  0.00    +0.171 C 
ATOM      9  C   UNL     1      31.750 -24.257 -13.890  0.00  0.00    +0.169 C 
ATOM     10  C   UNL     1      32.558 -23.601 -16.193  0.00  0.00    +0.167 C 
ATOM     11  C   UNL     1      30.430 -23.572 -14.240  0.00  0.00    +0.169 C 
ATOM     12  C   UNL     1      30.218 -23.541 -15.754  0.00  0.00    +0.174 C 
BRANCH   8  13
ATOM     13  O   UNL     1      34.055 -24.514 -14.541  0.00  0.00    -0.379 OA
ATOM     14  H   UNL     1      33.980 -25.280 -15.132  0.00  0.00    +0.211 HD
ENDBRANCH   8  13
BRANCH   9  15
ATOM     15  O   UNL     1      31.995 -24.057 -12.496  0.00  0.00    -0.379 OA
ATOM     16  H   UNL     1      32.081 -23.108 -12.316  0.00  0.00    +0.211 HD
ENDBRANCH   9  15
BRANCH  11  17
ATOM     17  O   UNL     1      29.354 -24.281 -13.630  0.00  0.00    -0.379 OA
ATOM     18  H   UNL     1      28.577 -23.703 -13.574  0.00  0.00    +0.211 HD
ENDBRANCH  11  17
BRANCH  12  19
ATOM     19  C   UNL     1      28.962 -22.763 -16.135  0.00  0.00    +0.169 C 
BRANCH  19  20
ATOM     20  O   UNL     1      28.514 -22.048 -14.999  0.00  0.00    -0.379 OA
ATOM     21  H   UNL     1      27.856 -21.388 -15.271  0.00  0.00    +0.211 HD
ENDBRANCH  19  20
ENDBRANCH  12  19
ENDBRANCH   1  10
BRANCH   5  22
ATOM     22  C   UNL     1      36.633 -20.859 -19.276  0.00  0.00    +0.026 C 
ATOM     23  C   UNL     1      36.021 -19.908 -20.299  0.00  0.00    +0.005 C 
ENDBRANCH   5  22
BRANCH   4  24
ATOM     24  C   UNL     1      37.224 -21.816 -16.568  0.00  0.00    +0.052 C 
BRANCH  24  27
ATOM     25  O   UNL     1      36.324 -23.006 -11.924  0.00  0.00    -0.468 OA
ATOM     26  O   UNL     1      38.239 -25.154 -12.095  0.00  0.00    -0.468 OA
ATOM     27  C   UNL     1      37.490 -22.691 -15.361  0.00  0.00    -0.015 C 
ATOM     28  C   UNL     1      36.784 -22.476 -14.177  0.00  0.00    +0.036 C 
ATOM     29  C   UNL     1      38.445 -23.706 -15.431  0.00  0.00    -0.001 C 
ATOM     30  C   UNL     1      37.035 -23.278 -13.064  0.00  0.00    +0.172 C 
ATOM     31  C   UNL     1      37.971 -24.312 -13.143  0.00  0.00    +0.172 C 
ATOM     32  C   UNL     1      38.687 -24.517 -14.323  0.00  0.00    +0.040 C 
ATOM     33  C   UNL     1      36.896 -23.638 -10.775  0.00  0.00    +0.253 C 
ATOM     34  C   UNL     1      37.231 -25.083 -11.084  0.00  0.00    +0.253 C 
ENDBRANCH  24  27
ENDBRANCH   4  24
TORSDOF 9
ENDMDL
MODEL 7
REMARK VINA RESULT:      -9.9      2.825      7.154
REMARK  Name = 52913524
REMARK  9 active torsions:
REMARK  status: ('A' for Active; 'I' for Inactive)
REMARK    1  A    between atoms: C_1  and  C_10
REMARK    2  A    between atoms: C_4  and  C_24
REMARK    3  A    between atoms: C_5  and  C_22
REMARK    4  A    between atoms: C_8  and  O_13
REMARK    5  A    between atoms: C_9  and  O_15
REMARK    6  A    between atoms: C_11  and  O_17
REMARK    7  A    between atoms: C_12  and  C_19
REMARK    8  A    between atoms: C_19  and  O_20
REMARK    9  A    between atoms: C_24  and  C_27
REMARK                            x       y       z     vdW  Elec       q    Type
REMARK                         _______ _______ _______ _____ _____    ______ ____
ROOT
ATOM      1  C   UNL     1      34.715 -22.878 -16.235  0.00  0.00    +0.007 C 
ATOM      2  C   UNL     1      33.576 -23.078 -15.454  0.00  0.00    -0.006 C 
ATOM      3  C   UNL     1      35.982 -23.032 -15.673  0.00  0.00    -0.002 C 
ATOM      4  C   UNL     1      33.705 -23.430 -14.111  0.00  0.00    -0.022 C 
ATOM      5  C   UNL     1      34.973 -23.584 -13.548  0.00  0.00    -0.026 C 
ATOM      6  C   UNL     1      36.111 -23.385 -14.329  0.00  0.00    -0.005 C 
ENDROOT
BRANCH   1  10
ATOM      7  O   UNL     1      35.668 -21.634 -18.026  0.00  0.00    -0.347 OA
ATOM      8  C   UNL     1      33.231 -21.811 -17.984  0.00  0.00    +0.171 C 
ATOM      9  C   UNL     1      33.178 -21.291 -19.423  0.00  0.00    +0.169 C 
ATOM     10  C   UNL     1      34.575 -22.496 -17.696  0.00  0.00    +0.167 C 
ATOM     11  C   UNL     1      34.434 -20.494 -19.774  0.00  0.00    +0.169 C 
ATOM     12  C   UNL     1      35.695 -21.279 -19.409  0.00  0.00    +0.174 C 
BRANCH   8  13
ATOM     13  O   UNL     1      32.183 -22.759 -17.793  0.00  0.00    -0.379 OA
ATOM     14  H   UNL     1      32.492 -23.472 -17.212  0.00  0.00    +0.211 HD
ENDBRANCH   8  13
BRANCH   9  15
ATOM     15  O   UNL     1      32.050 -20.427 -19.576  0.00  0.00    -0.379 OA
ATOM     16  H   UNL     1      31.244 -20.901 -19.319  0.00  0.00    +0.211 HD
ENDBRANCH   9  15
BRANCH  11  17
ATOM     17  O   UNL     1      34.441 -20.217 -21.172  0.00  0.00    -0.379 OA
ATOM     18  H   UNL     1      34.319 -19.265 -21.313  0.00  0.00    +0.211 HD
ENDBRANCH  11  17
BRANCH  12  19
ATOM     19  C   UNL     1      36.960 -20.460 -19.646  0.00  0.00    +0.169 C 
BRANCH  19  20
ATOM     20  O   UNL     1      36.587 -19.117 -19.896  0.00  0.00    -0.379 OA
ATOM     21  H   UNL     1      36.904 -18.852 -20.774  0.00  0.00    +0.211 HD
ENDBRANCH  19  20
ENDBRANCH  12  19
ENDBRANCH   1  10
BRANCH   5  22
ATOM     22  C   UNL     1      35.136 -23.960 -12.112  0.00  0.00    +0.026 C 
ATOM     23  C   UNL     1      36.254 -24.976 -11.903  0.00  0.00    +0.005 C 
ENDBRANCH   5  22
BRANCH   4  24
ATOM     24  C   UNL     1      32.472 -23.638 -13.295  0.00  0.00    +0.052 C 
BRANCH  24  27
ATOM     25  O   UNL     1      28.630 -21.845 -15.705  0.00  0.00    -0.468 OA
ATOM     26  O   UNL     1      27.816 -24.519 -16.414  0.00  0.00    -0.468 OA
ATOM     27  C   UNL     1      31.220 -23.855 -14.119  0.00  0.00    -0.015 C 
ATOM     28  C   UNL     1      30.481 -22.759 -14.563  0.00  0.00    +0.036 C 
ATOM     29  C   UNL     1      30.805 -25.151 -14.429  0.00  0.00    -0.001 C 
ATOM     30  C   UNL     1      29.324 -22.961 -15.316  0.00  0.00    +0.172 C 
ATOM     31  C   UNL     1      28.924 -24.257 -15.650  0.00  0.00    +0.172 C 
ATOM     32  C   UNL     1      29.656 -25.353 -15.194  0.00  0.00    +0.040 C 
ATOM     33  C   UNL     1      27.311 -22.169 -16.156  0.00  0.00    +0.253 C 
ATOM     34  C   UNL     1      27.355 -23.353 -17.100  0.00  0.00    +0.253 C 
ENDBRANCH  24  27
ENDBRANCH   4  24
TORSDOF 9
ENDMDL
MODEL 8
REMARK VINA RESULT:      -9.6      2.938      7.486
REMARK  Name = 52913524
REMARK  9 active torsions:
REMARK  status: ('A' for Active; 'I' for Inactive)
REMARK    1  A    between atoms: C_1  and  C_10
REMARK    2  A    between atoms: C_4  and  C_24
REMARK    3  A    between atoms: C_5  and  C_22
REMARK    4  A    between atoms: C_8  and  O_13
REMARK    5  A    between atoms: C_9  and  O_15
REMARK    6  A    between atoms: C_11  and  O_17
REMARK    7  A    between atoms: C_12  and  C_19
REMARK    8  A    between atoms: C_19  and  O_20
REMARK    9  A    between atoms: C_24  and  C_27
REMARK                            x       y       z     vdW  Elec       q    Type
REMARK                         _______ _______ _______ _____ _____    ______ ____
ROOT
ATOM      1  C   UNL     1      33.231 -23.500 -16.128  0.00  0.00    +0.007 C 
ATOM      2  C   UNL     1      34.395 -23.387 -15.367  0.00  0.00    -0.006 C 
ATOM      3  C   UNL     1      33.177 -22.946 -17.407  0.00  0.00    -0.002 C 
ATOM      4  C   UNL     1      35.505 -22.720 -15.886  0.00  0.00    -0.022 C 
ATOM      5  C   UNL     1      35.451 -22.166 -17.165  0.00  0.00    -0.026 C 
ATOM      6  C   UNL     1      34.287 -22.279 -17.925  0.00  0.00    -0.005 C 
ENDROOT
BRANCH   1  10
ATOM      7  O   UNL     1      30.853 -23.555 -16.040  0.00  0.00    -0.347 OA
ATOM      8  C   UNL     1      32.045 -24.269 -14.029  0.00  0.00    +0.171 C 
ATOM      9  C   UNL     1      30.744 -24.862 -13.480  0.00  0.00    +0.169 C 
ATOM     10  C   UNL     1      32.025 -24.226 -15.565  0.00  0.00    +0.167 C 
ATOM     11  C   UNL     1      29.521 -24.210 -14.123  0.00  0.00    +0.169 C 
ATOM     12  C   UNL     1      29.645 -24.208 -15.648  0.00  0.00    +0.174 C 
BRANCH   8  13
ATOM     13  O   UNL     1      33.140 -25.081 -13.609  0.00  0.00    -0.379 OA
ATOM     14  H   UNL     1      33.684 -24.589 -12.974  0.00  0.00    +0.211 HD
ENDBRANCH   8  13
BRANCH   9  15
ATOM     15  O   UNL     1      30.676 -24.634 -12.071  0.00  0.00    -0.379 OA
ATOM     16  H   UNL     1      31.059 -25.393 -11.603  0.00  0.00    +0.211 HD
ENDBRANCH   9  15
BRANCH  11  17
ATOM     17  O   UNL     1      28.351 -24.932 -13.748  0.00  0.00    -0.379 OA
ATOM     18  H   UNL     1      27.749 -24.987 -14.507  0.00  0.00    +0.211 HD
ENDBRANCH  11  17
BRANCH  12  19
ATOM     19  C   UNL     1      28.488 -23.463 -16.308  0.00  0.00    +0.169 C 
BRANCH  19  20
ATOM     20  O   UNL     1      28.868 -22.112 -16.490  0.00  0.00    -0.379 OA
ATOM     21  H   UNL     1      29.632 -22.069 -17.087  0.00  0.00    +0.211 HD
ENDBRANCH  19  20
ENDBRANCH  12  19
ENDBRANCH   1  10
BRANCH   5  22
ATOM     22  C   UNL     1      36.626 -21.447 -17.741  0.00  0.00    +0.026 C 
ATOM     23  C   UNL     1      36.412 -21.064 -19.201  0.00  0.00    +0.005 C 
ENDBRANCH   5  22
BRANCH   4  24
ATOM     24  C   UNL     1      36.739 -22.612 -15.053  0.00  0.00    +0.052 C 
BRANCH  24  27
ATOM     25  O   UNL     1      36.479 -27.434 -14.365  0.00  0.00    -0.468 OA
ATOM     26  O   UNL     1      39.346 -27.558 -14.092  0.00  0.00    -0.468 OA
ATOM     27  C   UNL     1      37.418 -23.940 -14.786  0.00  0.00    -0.015 C 
ATOM     28  C   UNL     1      36.657 -25.106 -14.705  0.00  0.00    +0.036 C 
ATOM     29  C   UNL     1      38.802 -23.995 -14.615  0.00  0.00    -0.001 C 
ATOM     30  C   UNL     1      37.282 -26.326 -14.453  0.00  0.00    +0.172 C 
ATOM     31  C   UNL     1      38.670 -26.385 -14.309  0.00  0.00    +0.172 C 
ATOM     32  C   UNL     1      39.429 -25.217 -14.376  0.00  0.00    +0.040 C 
ATOM     33  C   UNL     1      37.161 -28.542 -13.771  0.00  0.00    +0.253 C 
ATOM     34  C   UNL     1      38.538 -28.700 -14.384  0.00  0.00    +0.253 C 
ENDBRANCH  24  27
ENDBRANCH   4  24
TORSDOF 9
ENDMDL
MODEL 9
REMARK VINA RESULT:      -9.6      2.398      5.677
REMARK  Name = 52913524
REMARK  9 active torsions:
REMARK  status: ('A' for Active; 'I' for Inactive)
REMARK    1  A    between atoms: C_1  and  C_10
REMARK    2  A    between atoms: C_4  and  C_24
REMARK    3  A    between atoms: C_5  and  C_22
REMARK    4  A    between atoms: C_8  and  O_13
REMARK    5  A    between atoms: C_9  and  O_15
REMARK    6  A    between atoms: C_11  and  O_17
REMARK    7  A    between atoms: C_12  and  C_19
REMARK    8  A    between atoms: C_19  and  O_20
REMARK    9  A    between atoms: C_24  and  C_27
REMARK                            x       y       z     vdW  Elec       q    Type
REMARK                         _______ _______ _______ _____ _____    ______ ____
ROOT
ATOM      1  C   UNL     1      36.516 -22.526 -16.068  0.00  0.00    +0.007 C 
ATOM      2  C   UNL     1      35.201 -22.759 -16.472  0.00  0.00    -0.006 C 
ATOM      3  C   UNL     1      37.365 -21.760 -16.866  0.00  0.00    -0.002 C 
ATOM      4  C   UNL     1      34.736 -22.226 -17.675  0.00  0.00    -0.022 C 
ATOM      5  C   UNL     1      35.587 -21.460 -18.473  0.00  0.00    -0.026 C 
ATOM      6  C   UNL     1      36.901 -21.227 -18.068  0.00  0.00    -0.005 C 
ENDROOT
BRANCH   1  10
ATOM      7  O   UNL     1      38.007 -24.093 -15.074  0.00  0.00    -0.347 OA
ATOM      8  C   UNL     1      35.884 -23.712 -13.924  0.00  0.00    +0.171 C 
ATOM      9  C   UNL     1      36.435 -24.430 -12.689  0.00  0.00    +0.169 C 
ATOM     10  C   UNL     1      37.020 -23.104 -14.760  0.00  0.00    +0.167 C 
ATOM     11  C   UNL     1      37.582 -25.370 -13.058  0.00  0.00    +0.169 C 
ATOM     12  C   UNL     1      38.625 -24.646 -13.912  0.00  0.00    +0.174 C 
BRANCH   8  13
ATOM     13  O   UNL     1      35.014 -22.663 -13.502  0.00  0.00    -0.379 OA
ATOM     14  H   UNL     1      35.538 -21.941 -13.122  0.00  0.00    +0.211 HD
ENDBRANCH   8  13
BRANCH   9  15
ATOM     15  O   UNL     1      35.399 -25.211 -12.092  0.00  0.00    -0.379 OA
ATOM     16  H   UNL     1      34.659 -25.296 -12.713  0.00  0.00    +0.211 HD
ENDBRANCH   9  15
BRANCH  11  17
ATOM     17  O   UNL     1      38.201 -25.848 -11.866  0.00  0.00    -0.379 OA
ATOM     18  H   UNL     1      37.523 -26.204 -11.271  0.00  0.00    +0.211 HD
ENDBRANCH  11  17
BRANCH  12  19
ATOM     19  C   UNL     1      39.724 -25.593 -14.386  0.00  0.00    +0.169 C 
BRANCH  19  20
ATOM     20  O   UNL     1      40.962 -24.909 -14.331  0.00  0.00    -0.379 OA
ATOM     21  H   UNL     1      41.192 -24.586 -15.217  0.00  0.00    +0.211 HD
ENDBRANCH  19  20
ENDBRANCH  12  19
ENDBRANCH   1  10
BRANCH   5  22
ATOM     22  C   UNL     1      35.112 -20.880 -19.764  0.00  0.00    +0.026 C 
ATOM     23  C   UNL     1      36.053 -19.804 -20.296  0.00  0.00    +0.005 C 
ENDBRANCH   5  22
BRANCH   4  24
ATOM     24  C   UNL     1      33.326 -22.490 -18.087  0.00  0.00    +0.052 C 
BRANCH  24  27
ATOM     25  O   UNL     1      32.585 -24.559 -13.733  0.00  0.00    -0.468 OA
ATOM     26  O   UNL     1      29.831 -23.708 -13.787  0.00  0.00    -0.468 OA
ATOM     27  C   UNL     1      32.404 -22.833 -16.935  0.00  0.00    -0.015 C 
ATOM     28  C   UNL     1      32.898 -23.532 -15.834  0.00  0.00    +0.036 C 
ATOM     29  C   UNL     1      31.061 -22.454 -16.979  0.00  0.00    -0.001 C 
ATOM     30  C   UNL     1      32.046 -23.854 -14.777  0.00  0.00    +0.172 C 
ATOM     31  C   UNL     1      30.709 -23.451 -14.808  0.00  0.00    +0.172 C 
ATOM     32  C   UNL     1      30.212 -22.764 -15.916  0.00  0.00    +0.040 C 
ATOM     33  C   UNL     1      31.574 -25.125 -12.894  0.00  0.00    +0.253 C 
ATOM     34  C   UNL     1      30.507 -24.093 -12.588  0.00  0.00    +0.253 C 
ENDBRANCH  24  27
ENDBRANCH   4  24
TORSDOF 9
ENDMDL
