MODEL 1
REMARK VINA RESULT:     -11.4      0.000      0.000
REMARK  Name = 9924495
REMARK  4 active torsions:
REMARK  status: ('A' for Active; 'I' for Inactive)
REMARK    1  A    between atoms: N_2  and  C_22
REMARK    2  A    between atoms: C_3  and  C_14
REMARK    3  A    between atoms: C_4  and  C_9
REMARK    4  A    between atoms: C_15  and  C_21
REMARK                            x       y       z     vdW  Elec       q    Type
REMARK                         _______ _______ _______ _____ _____    ______ ____
ROOT
ATOM      1  O   UNL     1      36.628 -22.870 -16.099  0.00  0.00    -0.269 OA
ATOM      2  N   UNL     1      34.375 -22.623 -16.746  0.00  0.00    -0.233 N 
ATOM      3  C   UNL     1      35.019 -23.703 -14.600  0.00  0.00    +0.055 C 
ATOM      4  C   UNL     1      32.699 -23.639 -15.343  0.00  0.00    +0.033 C 
ATOM      5  C   UNL     1      35.424 -23.008 -15.876  0.00  0.00    +0.257 C 
ATOM      6  C   UNL     1      33.726 -23.991 -14.390  0.00  0.00    +0.007 C 
ATOM      7  C   UNL     1      33.057 -22.971 -16.453  0.00  0.00    +0.074 C 
ENDROOT
BRANCH   4   9
ATOM      8  N   UNL     1      31.006 -24.993 -14.320  0.00  0.00    -0.244 NA
ATOM      9  C   UNL     1      31.271 -23.941 -15.126  0.00  0.00    +0.083 C 
ATOM     10  C   UNL     1      30.300 -23.164 -15.735  0.00  0.00    +0.019 C 
ATOM     11  C   UNL     1      28.968 -23.487 -15.501  0.00  0.00    +0.003 C 
ATOM     12  C   UNL     1      29.699 -25.277 -14.116  0.00  0.00    +0.099 C 
ATOM     13  C   UNL     1      28.654 -24.562 -14.678  0.00  0.00    +0.021 C 
ENDBRANCH   4   9
BRANCH   3  14
ATOM     14  C   UNL     1      36.023 -24.066 -13.583  0.00  0.00    +0.014 C 
ATOM     15  C   UNL     1      36.725 -25.269 -13.635  0.00  0.00    +0.069 C 
ATOM     16  C   UNL     1      36.261 -23.163 -12.546  0.00  0.00    +0.001 C 
ATOM     17  C   UNL     1      37.665 -25.572 -12.650  0.00  0.00    +0.010 C 
ATOM     18  C   UNL     1      37.202 -23.465 -11.561  0.00  0.00    +0.000 C 
ATOM     19  C   UNL     1      37.904 -24.669 -11.613  0.00  0.00    +0.001 C 
BRANCH  15  21
ATOM     20  N   UNL     1      36.329 -26.988 -15.532  0.00  0.00    -0.191 NA
ATOM     21  C   UNL     1      36.507 -26.220 -14.684  0.00  0.00    +0.100 C 
ENDBRANCH  15  21
ENDBRANCH   3  14
BRANCH   2  22
ATOM     22  C   UNL     1      34.685 -21.892 -17.961  0.00  0.00    +0.058 C 
ATOM     23  C   UNL     1      33.653 -21.446 -18.777  0.00  0.00    +0.015 C 
ATOM     24  C   UNL     1      36.011 -21.644 -18.294  0.00  0.00    +0.015 C 
ATOM     25  C   UNL     1      33.951 -20.743 -19.944  0.00  0.00    +0.001 C 
ATOM     26  C   UNL     1      36.310 -20.940 -19.460  0.00  0.00    +0.001 C 
ATOM     27  C   UNL     1      35.279 -20.490 -20.286  0.00  0.00    +0.000 C 
ENDBRANCH   2  22
TORSDOF 4
ENDMDL
MODEL 2
REMARK VINA RESULT:     -11.1      1.195      5.188
REMARK  Name = 9924495
REMARK  4 active torsions:
REMARK  status: ('A' for Active; 'I' for Inactive)
REMARK    1  A    between atoms: N_2  and  C_22
REMARK    2  A    between atoms: C_3  and  C_14
REMARK    3  A    between atoms: C_4  and  C_9
REMARK    4  A    between atoms: C_15  and  C_21
REMARK                            x       y       z     vdW  Elec       q    Type
REMARK                         _______ _______ _______ _____ _____    ______ ____
ROOT
ATOM      1  O   UNL     1      33.282 -24.396 -12.949  0.00  0.00    -0.269 OA
ATOM      2  N   UNL     1      32.660 -23.628 -15.088  0.00  0.00    -0.233 N 
ATOM      3  C   UNL     1      35.032 -23.673 -14.342  0.00  0.00    +0.055 C 
ATOM      4  C   UNL     1      34.391 -22.689 -16.477  0.00  0.00    +0.033 C 
ATOM      5  C   UNL     1      33.578 -23.955 -14.060  0.00  0.00    +0.257 C 
ATOM      6  C   UNL     1      35.374 -23.067 -15.489  0.00  0.00    +0.007 C 
ATOM      7  C   UNL     1      33.103 -22.992 -16.247  0.00  0.00    +0.074 C 
ENDROOT
BRANCH   4   9
ATOM      8  N   UNL     1      36.071 -21.855 -17.970  0.00  0.00    -0.244 NA
ATOM      9  C   UNL     1      34.750 -22.029 -17.748  0.00  0.00    +0.083 C 
ATOM     10  C   UNL     1      33.755 -21.629 -18.623  0.00  0.00    +0.019 C 
ATOM     11  C   UNL     1      34.141 -21.010 -19.808  0.00  0.00    +0.003 C 
ATOM     12  C   UNL     1      36.409 -21.250 -19.131  0.00  0.00    +0.099 C 
ATOM     13  C   UNL     1      35.491 -20.814 -20.074  0.00  0.00    +0.021 C 
ENDBRANCH   4   9
BRANCH   3  14
ATOM     14  C   UNL     1      36.079 -24.057 -13.378  0.00  0.00    +0.014 C 
ATOM     15  C   UNL     1      36.771 -25.263 -13.481  0.00  0.00    +0.069 C 
ATOM     16  C   UNL     1      36.371 -23.172 -12.339  0.00  0.00    +0.001 C 
ATOM     17  C   UNL     1      37.754 -25.586 -12.545  0.00  0.00    +0.010 C 
ATOM     18  C   UNL     1      37.354 -23.494 -11.404  0.00  0.00    +0.000 C 
ATOM     19  C   UNL     1      38.046 -24.700 -11.507  0.00  0.00    +0.001 C 
BRANCH  15  21
ATOM     20  N   UNL     1      36.281 -26.952 -15.383  0.00  0.00    -0.191 NA
ATOM     21  C   UNL     1      36.499 -26.196 -14.533  0.00  0.00    +0.100 C 
ENDBRANCH  15  21
ENDBRANCH   3  14
BRANCH   2  22
ATOM     22  C   UNL     1      31.252 -23.932 -14.914  0.00  0.00    +0.058 C 
ATOM     23  C   UNL     1      30.873 -25.161 -14.389  0.00  0.00    +0.015 C 
ATOM     24  C   UNL     1      30.296 -22.989 -15.272  0.00  0.00    +0.015 C 
ATOM     25  C   UNL     1      29.520 -25.453 -14.221  0.00  0.00    +0.001 C 
ATOM     26  C   UNL     1      28.942 -23.280 -15.104  0.00  0.00    +0.001 C 
ATOM     27  C   UNL     1      28.554 -24.512 -14.579  0.00  0.00    +0.000 C 
ENDBRANCH   2  22
TORSDOF 4
ENDMDL
MODEL 3
REMARK VINA RESULT:      -9.6      1.609      2.307
REMARK  Name = 9924495
REMARK  4 active torsions:
REMARK  status: ('A' for Active; 'I' for Inactive)
REMARK    1  A    between atoms: N_2  and  C_22
REMARK    2  A    between atoms: C_3  and  C_14
REMARK    3  A    between atoms: C_4  and  C_9
REMARK    4  A    between atoms: C_15  and  C_21
REMARK                            x       y       z     vdW  Elec       q    Type
REMARK                         _______ _______ _______ _____ _____    ______ ____
ROOT
ATOM      1  O   UNL     1      36.110 -22.470 -17.093  0.00  0.00    -0.269 OA
ATOM      2  N   UNL     1      33.850 -22.109 -17.655  0.00  0.00    -0.233 N 
ATOM      3  C   UNL     1      34.518 -23.310 -15.581  0.00  0.00    +0.055 C 
ATOM      4  C   UNL     1      32.180 -23.124 -16.244  0.00  0.00    +0.033 C 
ATOM      5  C   UNL     1      34.910 -22.573 -16.837  0.00  0.00    +0.257 C 
ATOM      6  C   UNL     1      33.221 -23.559 -15.342  0.00  0.00    +0.007 C 
ATOM      7  C   UNL     1      32.529 -22.420 -17.333  0.00  0.00    +0.074 C 
ENDROOT
BRANCH   4   9
ATOM      8  N   UNL     1      29.883 -22.537 -16.597  0.00  0.00    -0.244 NA
ATOM      9  C   UNL     1      30.748 -23.381 -15.993  0.00  0.00    +0.083 C 
ATOM     10  C   UNL     1      30.368 -24.433 -15.178  0.00  0.00    +0.019 C 
ATOM     11  C   UNL     1      29.007 -24.635 -14.970  0.00  0.00    +0.003 C 
ATOM     12  C   UNL     1      28.569 -22.764 -16.372  0.00  0.00    +0.099 C 
ATOM     13  C   UNL     1      28.085 -23.789 -15.575  0.00  0.00    +0.021 C 
ENDBRANCH   4   9
BRANCH   3  14
ATOM     14  C   UNL     1      35.537 -23.757 -14.615  0.00  0.00    +0.014 C 
ATOM     15  C   UNL     1      35.208 -24.120 -13.310  0.00  0.00    +0.069 C 
ATOM     16  C   UNL     1      36.865 -23.812 -15.040  0.00  0.00    +0.001 C 
ATOM     17  C   UNL     1      36.206 -24.536 -12.428  0.00  0.00    +0.010 C 
ATOM     18  C   UNL     1      37.863 -24.229 -14.160  0.00  0.00    +0.000 C 
ATOM     19  C   UNL     1      37.533 -24.592 -12.854  0.00  0.00    +0.001 C 
BRANCH  15  21
ATOM     20  N   UNL     1      32.764 -24.041 -12.454  0.00  0.00    -0.191 NA
ATOM     21  C   UNL     1      33.856 -24.076 -12.837  0.00  0.00    +0.100 C 
ENDBRANCH  15  21
ENDBRANCH   3  14
BRANCH   2  22
ATOM     22  C   UNL     1      34.150 -21.335 -18.844  0.00  0.00    +0.058 C 
ATOM     23  C   UNL     1      35.473 -21.147 -19.227  0.00  0.00    +0.015 C 
ATOM     24  C   UNL     1      33.111 -20.790 -19.590  0.00  0.00    +0.015 C 
ATOM     25  C   UNL     1      35.760 -20.403 -20.371  0.00  0.00    +0.001 C 
ATOM     26  C   UNL     1      33.399 -20.046 -20.733  0.00  0.00    +0.001 C 
ATOM     27  C   UNL     1      34.724 -19.852 -21.125  0.00  0.00    +0.000 C 
ENDBRANCH   2  22
TORSDOF 4
ENDMDL
MODEL 4
REMARK VINA RESULT:      -9.4      1.938      5.518
REMARK  Name = 9924495
REMARK  4 active torsions:
REMARK  status: ('A' for Active; 'I' for Inactive)
REMARK    1  A    between atoms: N_2  and  C_22
REMARK    2  A    between atoms: C_3  and  C_14
REMARK    3  A    between atoms: C_4  and  C_9
REMARK    4  A    between atoms: C_15  and  C_21
REMARK                            x       y       z     vdW  Elec       q    Type
REMARK                         _______ _______ _______ _____ _____    ______ ____
ROOT
ATOM      1  O   UNL     1      33.177 -24.352 -14.208  0.00  0.00    -0.269 OA
ATOM      2  N   UNL     1      32.290 -23.230 -16.081  0.00  0.00    -0.233 N 
ATOM      3  C   UNL     1      34.737 -23.550 -15.774  0.00  0.00    +0.055 C 
ATOM      4  C   UNL     1      33.852 -22.214 -17.610  0.00  0.00    +0.033 C 
ATOM      5  C   UNL     1      33.328 -23.770 -15.283  0.00  0.00    +0.257 C 
ATOM      6  C   UNL     1      34.943 -22.803 -16.869  0.00  0.00    +0.007 C 
ATOM      7  C   UNL     1      32.596 -22.459 -17.202  0.00  0.00    +0.074 C 
ENDROOT
BRANCH   4   9
ATOM      8  N   UNL     1      35.345 -21.189 -19.180  0.00  0.00    -0.244 NA
ATOM      9  C   UNL     1      34.059 -21.397 -18.821  0.00  0.00    +0.083 C 
ATOM     10  C   UNL     1      32.968 -20.895 -19.510  0.00  0.00    +0.019 C 
ATOM     11  C   UNL     1      33.213 -20.130 -20.646  0.00  0.00    +0.003 C 
ATOM     12  C   UNL     1      35.544 -20.440 -20.289  0.00  0.00    +0.099 C 
ATOM     13  C   UNL     1      34.522 -19.894 -21.048  0.00  0.00    +0.021 C 
ENDBRANCH   4   9
BRANCH   3  14
ATOM     14  C   UNL     1      35.887 -24.146 -15.069  0.00  0.00    +0.014 C 
ATOM     15  C   UNL     1      37.089 -23.460 -14.907  0.00  0.00    +0.069 C 
ATOM     16  C   UNL     1      35.746 -25.436 -14.557  0.00  0.00    +0.001 C 
ATOM     17  C   UNL     1      38.152 -24.062 -14.234  0.00  0.00    +0.010 C 
ATOM     18  C   UNL     1      36.808 -26.039 -13.883  0.00  0.00    +0.000 C 
ATOM     19  C   UNL     1      38.011 -25.352 -13.721  0.00  0.00    +0.001 C 
BRANCH  15  21
ATOM     20  N   UNL     1      37.419 -21.062 -15.832  0.00  0.00    -0.191 NA
ATOM     21  C   UNL     1      37.271 -22.134 -15.419  0.00  0.00    +0.100 C 
ENDBRANCH  15  21
ENDBRANCH   3  14
BRANCH   2  22
ATOM     22  C   UNL     1      30.907 -23.459 -15.706  0.00  0.00    +0.058 C 
ATOM     23  C   UNL     1      29.934 -22.535 -16.067  0.00  0.00    +0.015 C 
ATOM     24  C   UNL     1      30.569 -24.602 -14.991  0.00  0.00    +0.015 C 
ATOM     25  C   UNL     1      28.605 -22.756 -15.707  0.00  0.00    +0.001 C 
ATOM     26  C   UNL     1      29.240 -24.823 -14.632  0.00  0.00    +0.001 C 
ATOM     27  C   UNL     1      28.257 -23.900 -14.990  0.00  0.00    +0.000 C 
ENDBRANCH   2  22
TORSDOF 4
ENDMDL
MODEL 5
REMARK VINA RESULT:      -9.2      1.690      6.333
REMARK  Name = 9924495
REMARK  4 active torsions:
REMARK  status: ('A' for Active; 'I' for Inactive)
REMARK    1  A    between atoms: N_2  and  C_22
REMARK    2  A    between atoms: C_3  and  C_14
REMARK    3  A    between atoms: C_4  and  C_9
REMARK    4  A    between atoms: C_15  and  C_21
REMARK                            x       y       z     vdW  Elec       q    Type
REMARK                         _______ _______ _______ _____ _____    ______ ____
ROOT
ATOM      1  O   UNL     1      32.100 -22.590 -17.642  0.00  0.00    -0.269 OA
ATOM      2  N   UNL     1      32.299 -23.528 -15.489  0.00  0.00    -0.233 N 
ATOM      3  C   UNL     1      34.268 -22.656 -16.735  0.00  0.00    +0.055 C 
ATOM      4  C   UNL     1      34.523 -23.804 -14.600  0.00  0.00    +0.033 C 
ATOM      5  C   UNL     1      32.781 -22.900 -16.664  0.00  0.00    +0.257 C 
ATOM      6  C   UNL     1      35.056 -23.106 -15.747  0.00  0.00    +0.007 C 
ATOM      7  C   UNL     1      33.192 -23.970 -14.513  0.00  0.00    +0.074 C 
ENDROOT
BRANCH   4   9
ATOM      8  N   UNL     1      34.893 -24.106 -12.251  0.00  0.00    -0.244 NA
ATOM      9  C   UNL     1      35.373 -24.297 -13.500  0.00  0.00    +0.083 C 
ATOM     10  C   UNL     1      36.582 -24.909 -13.782  0.00  0.00    +0.019 C 
ATOM     11  C   UNL     1      37.350 -25.357 -12.712  0.00  0.00    +0.003 C 
ATOM     12  C   UNL     1      35.667 -24.553 -11.236  0.00  0.00    +0.099 C 
ATOM     13  C   UNL     1      36.890 -25.180 -11.413  0.00  0.00    +0.021 C 
ENDBRANCH   4   9
BRANCH   3  14
ATOM     14  C   UNL     1      34.863 -21.931 -17.872  0.00  0.00    +0.014 C 
ATOM     15  C   UNL     1      36.220 -21.612 -17.915  0.00  0.00    +0.069 C 
ATOM     16  C   UNL     1      34.026 -21.562 -18.925  0.00  0.00    +0.001 C 
ATOM     17  C   UNL     1      36.741 -20.923 -19.010  0.00  0.00    +0.010 C 
ATOM     18  C   UNL     1      34.547 -20.873 -20.022  0.00  0.00    +0.000 C 
ATOM     19  C   UNL     1      35.904 -20.555 -20.064  0.00  0.00    +0.001 C 
BRANCH  15  21
ATOM     20  N   UNL     1      37.830 -22.267 -15.993  0.00  0.00    -0.191 NA
ATOM     21  C   UNL     1      37.109 -21.974 -16.852  0.00  0.00    +0.100 C 
ENDBRANCH  15  21
ENDBRANCH   3  14
BRANCH   2  22
ATOM     22  C   UNL     1      30.873 -23.735 -15.322  0.00  0.00    +0.058 C 
ATOM     23  C   UNL     1      29.979 -22.790 -15.809  0.00  0.00    +0.015 C 
ATOM     24  C   UNL     1      30.416 -24.878 -14.676  0.00  0.00    +0.015 C 
ATOM     25  C   UNL     1      28.608 -22.989 -15.649  0.00  0.00    +0.001 C 
ATOM     26  C   UNL     1      29.045 -25.077 -14.516  0.00  0.00    +0.001 C 
ATOM     27  C   UNL     1      28.141 -24.133 -15.002  0.00  0.00    +0.000 C 
ENDBRANCH   2  22
TORSDOF 4
ENDMDL
MODEL 6
REMARK VINA RESULT:      -8.8      1.442      5.519
REMARK  Name = 9924495
REMARK  4 active torsions:
REMARK  status: ('A' for Active; 'I' for Inactive)
REMARK    1  A    between atoms: N_2  and  C_22
REMARK    2  A    between atoms: C_3  and  C_14
REMARK    3  A    between atoms: C_4  and  C_9
REMARK    4  A    between atoms: C_15  and  C_21
REMARK                            x       y       z     vdW  Elec       q    Type
REMARK                         _______ _______ _______ _____ _____    ______ ____
ROOT
ATOM      1  O   UNL     1      31.718 -22.107 -17.650  0.00  0.00    -0.269 OA
ATOM      2  N   UNL     1      34.046 -22.299 -17.337  0.00  0.00    -0.233 N 
ATOM      3  C   UNL     1      32.414 -23.395 -15.811  0.00  0.00    +0.055 C 
ATOM      4  C   UNL     1      34.808 -23.438 -15.354  0.00  0.00    +0.033 C 
ATOM      5  C   UNL     1      32.686 -22.554 -17.034  0.00  0.00    +0.257 C 
ATOM      6  C   UNL     1      33.441 -23.784 -15.040  0.00  0.00    +0.007 C 
ATOM      7  C   UNL     1      35.050 -22.737 -16.474  0.00  0.00    +0.074 C 
ENDROOT
BRANCH   4   9
ATOM      8  N   UNL     1      36.573 -24.999 -14.912  0.00  0.00    -0.244 NA
ATOM      9  C   UNL     1      35.950 -23.865 -14.522  0.00  0.00    +0.083 C 
ATOM     10  C   UNL     1      36.319 -23.115 -13.419  0.00  0.00    +0.019 C 
ATOM     11  C   UNL     1      37.401 -23.557 -12.665  0.00  0.00    +0.003 C 
ATOM     12  C   UNL     1      37.620 -25.398 -14.155  0.00  0.00    +0.099 C 
ATOM     13  C   UNL     1      38.069 -24.719 -13.033  0.00  0.00    +0.021 C 
ENDBRANCH   4   9
BRANCH   3  14
ATOM     14  C   UNL     1      31.041 -23.795 -15.456  0.00  0.00    +0.014 C 
ATOM     15  C   UNL     1      30.744 -24.419 -14.245  0.00  0.00    +0.069 C 
ATOM     16  C   UNL     1      30.023 -23.531 -16.372  0.00  0.00    +0.001 C 
ATOM     17  C   UNL     1      29.430 -24.782 -13.950  0.00  0.00    +0.010 C 
ATOM     18  C   UNL     1      28.708 -23.892 -16.078  0.00  0.00    +0.000 C 
ATOM     19  C   UNL     1      28.412 -24.517 -14.866  0.00  0.00    +0.001 C 
BRANCH  15  21
ATOM     20  N   UNL     1      32.586 -24.939 -12.498  0.00  0.00    -0.191 NA
ATOM     21  C   UNL     1      31.763 -24.707 -13.280  0.00  0.00    +0.100 C 
ENDBRANCH  15  21
ENDBRANCH   3  14
BRANCH   2  22
ATOM     22  C   UNL     1      34.384 -21.554 -18.534  0.00  0.00    +0.058 C 
ATOM     23  C   UNL     1      33.373 -20.994 -19.306  0.00  0.00    +0.015 C 
ATOM     24  C   UNL     1      35.718 -21.406 -18.897  0.00  0.00    +0.015 C 
ATOM     25  C   UNL     1      33.700 -20.277 -20.456  0.00  0.00    +0.001 C 
ATOM     26  C   UNL     1      36.045 -20.689 -20.048  0.00  0.00    +0.001 C 
ATOM     27  C   UNL     1      35.035 -20.124 -20.828  0.00  0.00    +0.000 C 
ENDBRANCH   2  22
TORSDOF 4
ENDMDL
MODEL 7
REMARK VINA RESULT:      -8.8      1.289      5.763
REMARK  Name = 9924495
REMARK  4 active torsions:
REMARK  status: ('A' for Active; 'I' for Inactive)
REMARK    1  A    between atoms: N_2  and  C_22
REMARK    2  A    between atoms: C_3  and  C_14
REMARK    3  A    between atoms: C_4  and  C_9
REMARK    4  A    between atoms: C_15  and  C_21
REMARK                            x       y       z     vdW  Elec       q    Type
REMARK                         _______ _______ _______ _____ _____    ______ ____
ROOT
ATOM      1  O   UNL     1      37.160 -22.237 -15.824  0.00  0.00    -0.269 OA
ATOM      2  N   UNL     1      35.740 -23.472 -14.405  0.00  0.00    -0.233 N 
ATOM      3  C   UNL     1      34.942 -22.508 -16.555  0.00  0.00    +0.055 C 
ATOM      4  C   UNL     1      33.410 -23.606 -15.009  0.00  0.00    +0.033 C 
ATOM      5  C   UNL     1      36.063 -22.739 -15.573  0.00  0.00    +0.257 C 
ATOM      6  C   UNL     1      33.704 -22.923 -16.248  0.00  0.00    +0.007 C 
ATOM      7  C   UNL     1      34.422 -23.859 -14.163  0.00  0.00    +0.074 C 
ENDROOT
BRANCH   4   9
ATOM      8  N   UNL     1      31.115 -23.935 -15.618  0.00  0.00    -0.244 NA
ATOM      9  C   UNL     1      32.056 -24.078 -14.659  0.00  0.00    +0.083 C 
ATOM     10  C   UNL     1      31.817 -24.623 -13.409  0.00  0.00    +0.019 C 
ATOM     11  C   UNL     1      30.524 -25.052 -13.124  0.00  0.00    +0.003 C 
ATOM     12  C   UNL     1      29.871 -24.364 -15.305  0.00  0.00    +0.099 C 
ATOM     13  C   UNL     1      29.528 -24.924 -14.085  0.00  0.00    +0.021 C 
ENDBRANCH   4   9
BRANCH   3  14
ATOM     14  C   UNL     1      35.188 -21.836 -17.843  0.00  0.00    +0.014 C 
ATOM     15  C   UNL     1      34.147 -21.445 -18.683  0.00  0.00    +0.069 C 
ATOM     16  C   UNL     1      36.511 -21.594 -18.214  0.00  0.00    +0.001 C 
ATOM     17  C   UNL     1      34.426 -20.813 -19.895  0.00  0.00    +0.010 C 
ATOM     18  C   UNL     1      36.792 -20.961 -19.425  0.00  0.00    +0.000 C 
ATOM     19  C   UNL     1      35.749 -20.570 -20.265  0.00  0.00    +0.001 C 
BRANCH  15  21
ATOM     20  N   UNL     1      31.668 -21.864 -18.054  0.00  0.00    -0.191 NA
ATOM     21  C   UNL     1      32.776 -21.677 -18.336  0.00  0.00    +0.100 C 
ENDBRANCH  15  21
ENDBRANCH   3  14
BRANCH   2  22
ATOM     22  C   UNL     1      36.782 -23.789 -13.448  0.00  0.00    +0.058 C 
ATOM     23  C   UNL     1      36.853 -23.089 -12.249  0.00  0.00    +0.015 C 
ATOM     24  C   UNL     1      37.700 -24.792 -13.739  0.00  0.00    +0.015 C 
ATOM     25  C   UNL     1      37.855 -23.396 -11.329  0.00  0.00    +0.001 C 
ATOM     26  C   UNL     1      38.703 -25.098 -12.819  0.00  0.00    +0.001 C 
ATOM     27  C   UNL     1      38.780 -24.400 -11.614  0.00  0.00    +0.000 C 
ENDBRANCH   2  22
TORSDOF 4
ENDMDL
MODEL 8
REMARK VINA RESULT:      -8.6      1.181      1.892
REMARK  Name = 9924495
REMARK  4 active torsions:
REMARK  status: ('A' for Active; 'I' for Inactive)
REMARK    1  A    between atoms: N_2  and  C_22
REMARK    2  A    between atoms: C_3  and  C_14
REMARK    3  A    between atoms: C_4  and  C_9
REMARK    4  A    between atoms: C_15  and  C_21
REMARK                            x       y       z     vdW  Elec       q    Type
REMARK                         _______ _______ _______ _____ _____    ______ ____
ROOT
ATOM      1  O   UNL     1      36.700 -22.898 -16.614  0.00  0.00    -0.269 OA
ATOM      2  N   UNL     1      34.392 -22.587 -16.978  0.00  0.00    -0.233 N 
ATOM      3  C   UNL     1      35.262 -23.783 -14.978  0.00  0.00    +0.055 C 
ATOM      4  C   UNL     1      32.873 -23.649 -15.438  0.00  0.00    +0.033 C 
ATOM      5  C   UNL     1      35.528 -23.030 -16.257  0.00  0.00    +0.257 C 
ATOM      6  C   UNL     1      33.997 -24.063 -14.631  0.00  0.00    +0.007 C 
ATOM      7  C   UNL     1      33.111 -22.931 -16.548  0.00  0.00    +0.074 C 
ENDROOT
BRANCH   4   9
ATOM      8  N   UNL     1      31.299 -24.894 -14.126  0.00  0.00    -0.244 NA
ATOM      9  C   UNL     1      31.474 -23.941 -15.067  0.00  0.00    +0.083 C 
ATOM     10  C   UNL     1      30.440 -23.253 -15.679  0.00  0.00    +0.019 C 
ATOM     11  C   UNL     1      29.138 -23.564 -15.298  0.00  0.00    +0.003 C 
ATOM     12  C   UNL     1      30.021 -25.169 -13.782  0.00  0.00    +0.099 C 
ATOM     13  C   UNL     1      28.917 -24.538 -14.333  0.00  0.00    +0.021 C 
ENDBRANCH   4   9
BRANCH   3  14
ATOM     14  C   UNL     1      36.371 -24.211 -14.106  0.00  0.00    +0.014 C 
ATOM     15  C   UNL     1      36.243 -24.256 -12.718  0.00  0.00    +0.069 C 
ATOM     16  C   UNL     1      37.575 -24.577 -14.707  0.00  0.00    +0.001 C 
ATOM     17  C   UNL     1      37.318 -24.666 -11.931  0.00  0.00    +0.010 C 
ATOM     18  C   UNL     1      38.651 -24.988 -13.921  0.00  0.00    +0.000 C 
ATOM     19  C   UNL     1      38.523 -25.033 -12.532  0.00  0.00    +0.001 C 
BRANCH  15  21
ATOM     20  N   UNL     1      34.036 -23.590 -11.536  0.00  0.00    -0.191 NA
ATOM     21  C   UNL     1      35.022 -23.887 -12.065  0.00  0.00    +0.100 C 
ENDBRANCH  15  21
ENDBRANCH   3  14
BRANCH   2  22
ATOM     22  C   UNL     1      34.572 -21.800 -18.184  0.00  0.00    +0.058 C 
ATOM     23  C   UNL     1      35.854 -21.492 -18.620  0.00  0.00    +0.015 C 
ATOM     24  C   UNL     1      33.457 -21.363 -18.891  0.00  0.00    +0.015 C 
ATOM     25  C   UNL     1      36.026 -20.735 -19.779  0.00  0.00    +0.001 C 
ATOM     26  C   UNL     1      33.629 -20.607 -20.050  0.00  0.00    +0.001 C 
ATOM     27  C   UNL     1      34.914 -20.293 -20.494  0.00  0.00    +0.000 C 
ENDBRANCH   2  22
TORSDOF 4
ENDMDL
MODEL 9
REMARK VINA RESULT:      -8.4      1.742      5.524
REMARK  Name = 9924495
REMARK  4 active torsions:
REMARK  status: ('A' for Active; 'I' for Inactive)
REMARK    1  A    between atoms: N_2  and  C_22
REMARK    2  A    between atoms: C_3  and  C_14
REMARK    3  A    between atoms: C_4  and  C_9
REMARK    4  A    between atoms: C_15  and  C_21
REMARK                            x       y       z     vdW  Elec       q    Type
REMARK                         _______ _______ _______ _____ _____    ______ ____
ROOT
ATOM      1  O   UNL     1      32.918 -25.015 -13.659  0.00  0.00    -0.269 OA
ATOM      2  N   UNL     1      32.413 -23.679 -15.534  0.00  0.00    -0.233 N 
ATOM      3  C   UNL     1      34.742 -24.367 -14.993  0.00  0.00    +0.055 C 
ATOM      4  C   UNL     1      34.265 -22.821 -16.816  0.00  0.00    +0.033 C 
ATOM      5  C   UNL     1      33.270 -24.406 -14.670  0.00  0.00    +0.257 C 
ATOM      6  C   UNL     1      35.173 -23.600 -16.006  0.00  0.00    +0.007 C 
ATOM      7  C   UNL     1      32.949 -22.902 -16.561  0.00  0.00    +0.074 C 
ENDROOT
BRANCH   4   9
ATOM      8  N   UNL     1      33.749 -21.484 -18.738  0.00  0.00    -0.244 NA
ATOM      9  C   UNL     1      34.720 -21.980 -17.940  0.00  0.00    +0.083 C 
ATOM     10  C   UNL     1      36.072 -21.745 -18.125  0.00  0.00    +0.019 C 
ATOM     11  C   UNL     1      36.453 -20.947 -19.198  0.00  0.00    +0.003 C 
ATOM     12  C   UNL     1      34.156 -20.714 -19.771  0.00  0.00    +0.099 C 
ATOM     13  C   UNL     1      35.483 -20.418 -20.041  0.00  0.00    +0.021 C 
ENDBRANCH   4   9
BRANCH   3  14
ATOM     14  C   UNL     1      35.710 -25.159 -14.213  0.00  0.00    +0.014 C 
ATOM     15  C   UNL     1      35.901 -24.955 -12.847  0.00  0.00    +0.069 C 
ATOM     16  C   UNL     1      36.448 -26.136 -14.882  0.00  0.00    +0.001 C 
ATOM     17  C   UNL     1      36.829 -25.727 -12.149  0.00  0.00    +0.010 C 
ATOM     18  C   UNL     1      37.376 -26.909 -14.184  0.00  0.00    +0.000 C 
ATOM     19  C   UNL     1      37.566 -26.705 -12.817  0.00  0.00    +0.001 C 
BRANCH  15  21
ATOM     20  N   UNL     1      34.564 -23.158 -11.544  0.00  0.00    -0.191 NA
ATOM     21  C   UNL     1      35.162 -23.961 -12.127  0.00  0.00    +0.100 C 
ENDBRANCH  15  21
ENDBRANCH   3  14
BRANCH   2  22
ATOM     22  C   UNL     1      30.979 -23.725 -15.325  0.00  0.00    +0.058 C 
ATOM     23  C   UNL     1      30.391 -24.887 -14.840  0.00  0.00    +0.015 C 
ATOM     24  C   UNL     1      30.207 -22.604 -15.609  0.00  0.00    +0.015 C 
ATOM     25  C   UNL     1      29.011 -24.930 -14.638  0.00  0.00    +0.001 C 
ATOM     26  C   UNL     1      28.827 -22.647 -15.408  0.00  0.00    +0.001 C 
ATOM     27  C   UNL     1      28.230 -23.810 -14.922  0.00  0.00    +0.000 C 
ENDBRANCH   2  22
TORSDOF 4
ENDMDL
