MODEL 1
REMARK VINA RESULT:     -11.0      0.000      0.000
REMARK  Name = 24778473
REMARK  2 active torsions:
REMARK  status: ('A' for Active; 'I' for Inactive)
REMARK    1  A    between atoms: C_11  and  C_22
REMARK    2  A    between atoms: C_17  and  N_29
REMARK                            x       y       z     vdW  Elec       q    Type
REMARK                         _______ _______ _______ _____ _____    ______ ____
ROOT
ATOM      1  O   UNL     1      32.914 -22.356 -17.574  0.00  0.00    -0.270 OA
ATOM      2  O   UNL     1      37.016 -22.828 -15.546  0.00  0.00    -0.270 OA
ATOM      3  N   UNL     1      31.328 -24.681 -13.120  0.00  0.00    -0.353 N 
ATOM      4  N   UNL     1      35.130 -22.430 -16.860  0.00  0.00    -0.248 N 
ATOM      5  C   UNL     1      32.391 -23.729 -14.841  0.00  0.00    +0.022 A 
ATOM      6  C   UNL     1      33.561 -23.285 -15.471  0.00  0.00    +0.060 C 
ATOM      7  C   UNL     1      32.570 -24.311 -13.576  0.00  0.00    +0.057 A 
ATOM      8  C   UNL     1      30.985 -23.765 -15.128  0.00  0.00    +0.018 A 
ATOM      9  C   UNL     1      34.807 -23.424 -14.860  0.00  0.00    +0.058 C 
ATOM     10  C   UNL     1      30.355 -24.364 -14.034  0.00  0.00    +0.057 A 
ATOM     11  C   UNL     1      34.970 -23.998 -13.620  0.00  0.00    +0.007 C 
ATOM     12  C   UNL     1      33.830 -24.455 -12.954  0.00  0.00    +0.017 C 
ATOM     13  C   UNL     1      33.774 -22.640 -16.765  0.00  0.00    +0.252 C 
ATOM     14  C   UNL     1      35.819 -22.873 -15.758  0.00  0.00    +0.252 C 
ATOM     15  C   UNL     1      30.173 -23.350 -16.206  0.00  0.00    +0.016 C 
ATOM     16  C   UNL     1      28.971 -24.567 -13.966  0.00  0.00    +0.018 C 
ATOM     17  C   UNL     1      28.787 -23.546 -16.154  0.00  0.00    +0.051 C 
ATOM     18  C   UNL     1      28.196 -24.146 -15.048  0.00  0.00    +0.016 C 
ATOM     19  H   UNL     1      31.159 -25.115 -12.253  0.00  0.00    +0.166 HD
ATOM     20  H   UNL     1      35.562 -22.006 -17.636  0.00  0.00    +0.158 HD
ENDROOT
BRANCH  11  22
ATOM     21 CL   UNL     1      36.672 -26.446 -14.405  0.00  0.00    -0.082 Cl
ATOM     22  C   UNL     1      36.265 -24.140 -12.989  0.00  0.00    +0.011 C 
ATOM     23  C   UNL     1      37.110 -25.212 -13.277  0.00  0.00    +0.058 C 
ATOM     24  C   UNL     1      36.660 -23.167 -12.071  0.00  0.00    +0.001 C 
ATOM     25  C   UNL     1      38.351 -25.311 -12.647  0.00  0.00    +0.011 C 
ATOM     26  C   UNL     1      37.900 -23.266 -11.441  0.00  0.00    +0.000 C 
ATOM     27  C   UNL     1      38.745 -24.337 -11.729  0.00  0.00    +0.001 C 
ENDBRANCH  11  22
BRANCH  17  29
ATOM     28  O   UNL     1      26.366 -21.721 -16.243  0.00  0.00    -0.265 OA
ATOM     29  N   UNL     1      27.992 -23.134 -17.224  0.00  0.00    -0.277 N 
ATOM     30  C   UNL     1      26.888 -22.288 -17.192  0.00  0.00    +0.303 C 
ATOM     31  H   UNL     1      28.243 -23.484 -18.109  0.00  0.00    +0.155 HD
ENDBRANCH  17  29
TORSDOF 2
ENDMDL
MODEL 2
REMARK VINA RESULT:     -10.3      3.185      5.686
REMARK  Name = 24778473
REMARK  2 active torsions:
REMARK  status: ('A' for Active; 'I' for Inactive)
REMARK    1  A    between atoms: C_11  and  C_22
REMARK    2  A    between atoms: C_17  and  N_29
REMARK                            x       y       z     vdW  Elec       q    Type
REMARK                         _______ _______ _______ _____ _____    ______ ____
ROOT
ATOM      1  O   UNL     1      32.091 -22.485 -17.623  0.00  0.00    -0.270 OA
ATOM      2  O   UNL     1      33.242 -24.618 -13.712  0.00  0.00    -0.270 OA
ATOM      3  N   UNL     1      37.255 -21.439 -17.644  0.00  0.00    -0.353 N 
ATOM      4  N   UNL     1      32.305 -23.652 -15.618  0.00  0.00    -0.248 N 
ATOM      5  C   UNL     1      35.148 -22.086 -17.270  0.00  0.00    +0.022 A 
ATOM      6  C   UNL     1      34.183 -22.746 -16.498  0.00  0.00    +0.060 C 
ATOM      7  C   UNL     1      36.458 -22.130 -16.765  0.00  0.00    +0.057 A 
ATOM      8  C   UNL     1      35.191 -21.335 -18.492  0.00  0.00    +0.018 A 
ATOM      9  C   UNL     1      34.526 -23.395 -15.313  0.00  0.00    +0.058 C 
ATOM     10  C   UNL     1      36.519 -20.949 -18.694  0.00  0.00    +0.057 A 
ATOM     11  C   UNL     1      35.813 -23.431 -14.827  0.00  0.00    +0.007 C 
ATOM     12  C   UNL     1      36.809 -22.786 -15.564  0.00  0.00    +0.017 C 
ATOM     13  C   UNL     1      32.744 -22.915 -16.693  0.00  0.00    +0.252 C 
ATOM     14  C   UNL     1      33.313 -23.979 -14.745  0.00  0.00    +0.252 C 
ATOM     15  C   UNL     1      34.239 -20.939 -19.457  0.00  0.00    +0.016 C 
ATOM     16  C   UNL     1      36.937 -20.195 -19.798  0.00  0.00    +0.018 C 
ATOM     17  C   UNL     1      34.641 -20.186 -20.567  0.00  0.00    +0.051 C 
ATOM     18  C   UNL     1      35.973 -19.820 -20.734  0.00  0.00    +0.016 C 
ATOM     19  H   UNL     1      38.225 -21.312 -17.535  0.00  0.00    +0.166 HD
ATOM     20  H   UNL     1      31.367 -23.919 -15.488  0.00  0.00    +0.158 HD
ENDROOT
BRANCH  11  22
ATOM     21 CL   UNL     1      36.646 -26.393 -15.023  0.00  0.00    -0.082 Cl
ATOM     22  C   UNL     1      36.166 -24.107 -13.597  0.00  0.00    +0.011 C 
ATOM     23  C   UNL     1      36.558 -25.445 -13.579  0.00  0.00    +0.058 C 
ATOM     24  C   UNL     1      36.110 -23.380 -12.408  0.00  0.00    +0.001 C 
ATOM     25  C   UNL     1      36.892 -26.059 -12.372  0.00  0.00    +0.011 C 
ATOM     26  C   UNL     1      36.443 -23.994 -11.200  0.00  0.00    +0.000 C 
ATOM     27  C   UNL     1      36.834 -25.332 -11.182  0.00  0.00    +0.001 C 
ENDBRANCH  11  22
BRANCH  17  29
ATOM     28  O   UNL     1      34.968 -19.268 -23.440  0.00  0.00    -0.265 OA
ATOM     29  N   UNL     1      33.694 -19.797 -21.516  0.00  0.00    -0.277 N 
ATOM     30  C   UNL     1      33.916 -19.385 -22.826  0.00  0.00    +0.303 C 
ATOM     31  H   UNL     1      32.755 -19.818 -21.223  0.00  0.00    +0.155 HD
ENDBRANCH  17  29
TORSDOF 2
ENDMDL
MODEL 3
REMARK VINA RESULT:     -10.1     14.707     16.893
REMARK  Name = 24778473
REMARK  2 active torsions:
REMARK  status: ('A' for Active; 'I' for Inactive)
REMARK    1  A    between atoms: C_11  and  C_22
REMARK    2  A    between atoms: C_17  and  N_29
REMARK                            x       y       z     vdW  Elec       q    Type
REMARK                         _______ _______ _______ _____ _____    ______ ____
ROOT
ATOM      1  O   UNL     1      31.106  -9.056 -20.573  0.00  0.00    -0.270 OA
ATOM      2  O   UNL     1      31.951 -13.535 -21.198  0.00  0.00    -0.270 OA
ATOM      3  N   UNL     1      34.750  -8.651 -24.357  0.00  0.00    -0.353 N 
ATOM      4  N   UNL     1      31.275 -11.379 -20.617  0.00  0.00    -0.248 N 
ATOM      5  C   UNL     1      33.266  -9.243 -22.792  0.00  0.00    +0.022 A 
ATOM      6  C   UNL     1      32.592 -10.214 -22.042  0.00  0.00    +0.060 C 
ATOM      7  C   UNL     1      34.194  -9.736 -23.724  0.00  0.00    +0.057 A 
ATOM      8  C   UNL     1      33.289  -7.811 -22.891  0.00  0.00    +0.018 A 
ATOM      9  C   UNL     1      32.843 -11.573 -22.228  0.00  0.00    +0.058 C 
ATOM     10  C   UNL     1      34.223  -7.479 -23.875  0.00  0.00    +0.057 A 
ATOM     11  C   UNL     1      33.755 -12.045 -23.144  0.00  0.00    +0.007 C 
ATOM     12  C   UNL     1      34.452 -11.112 -23.915  0.00  0.00    +0.017 C 
ATOM     13  C   UNL     1      31.575 -10.092 -20.998  0.00  0.00    +0.252 C 
ATOM     14  C   UNL     1      31.992 -12.324 -21.307  0.00  0.00    +0.252 C 
ATOM     15  C   UNL     1      32.612  -6.753 -22.246  0.00  0.00    +0.016 C 
ATOM     16  C   UNL     1      34.511  -6.158 -24.242  0.00  0.00    +0.018 C 
ATOM     17  C   UNL     1      32.887  -5.427 -22.601  0.00  0.00    +0.051 C 
ATOM     18  C   UNL     1      33.825  -5.135 -23.586  0.00  0.00    +0.016 C 
ATOM     19  H   UNL     1      35.434  -8.708 -25.062  0.00  0.00    +0.166 HD
ATOM     20  H   UNL     1      30.614 -11.600 -19.922  0.00  0.00    +0.158 HD
ENDROOT
BRANCH  11  22
ATOM     21 CL   UNL     1      32.950 -13.281 -25.851  0.00  0.00    -0.082 Cl
ATOM     22  C   UNL     1      34.012 -13.457 -23.335  0.00  0.00    +0.011 C 
ATOM     23  C   UNL     1      33.686 -14.109 -24.524  0.00  0.00    +0.058 C 
ATOM     24  C   UNL     1      34.606 -14.164 -22.290  0.00  0.00    +0.001 C 
ATOM     25  C   UNL     1      33.953 -15.471 -24.668  0.00  0.00    +0.011 C 
ATOM     26  C   UNL     1      34.872 -15.526 -22.435  0.00  0.00    +0.000 C 
ATOM     27  C   UNL     1      34.546 -16.179 -23.623  0.00  0.00    +0.001 C 
ENDBRANCH  11  22
BRANCH  17  29
ATOM     28  O   UNL     1      30.838  -3.445 -23.639  0.00  0.00    -0.265 OA
ATOM     29  N   UNL     1      32.214  -4.386 -21.959  0.00  0.00    -0.277 N 
ATOM     30  C   UNL     1      31.280  -3.510 -22.500  0.00  0.00    +0.303 C 
ATOM     31  H   UNL     1      32.426  -4.258 -21.006  0.00  0.00    +0.155 HD
ENDBRANCH  17  29
TORSDOF 2
ENDMDL
MODEL 4
REMARK VINA RESULT:      -9.6      5.174      8.107
REMARK  Name = 24778473
REMARK  2 active torsions:
REMARK  status: ('A' for Active; 'I' for Inactive)
REMARK    1  A    between atoms: C_11  and  C_22
REMARK    2  A    between atoms: C_17  and  N_29
REMARK                            x       y       z     vdW  Elec       q    Type
REMARK                         _______ _______ _______ _____ _____    ______ ____
ROOT
ATOM      1  O   UNL     1      37.096 -21.900 -17.454  0.00  0.00    -0.270 OA
ATOM      2  O   UNL     1      37.363 -19.241 -21.199  0.00  0.00    -0.270 OA
ATOM      3  N   UNL     1      31.958 -21.614 -18.586  0.00  0.00    -0.353 N 
ATOM      4  N   UNL     1      37.606 -20.558 -19.289  0.00  0.00    -0.248 N 
ATOM      5  C   UNL     1      34.186 -21.488 -18.450  0.00  0.00    +0.022 A 
ATOM      6  C   UNL     1      35.423 -21.033 -18.923  0.00  0.00    +0.060 C 
ATOM      7  C   UNL     1      33.067 -21.078 -19.193  0.00  0.00    +0.057 A 
ATOM      8  C   UNL     1      33.701 -22.295 -17.366  0.00  0.00    +0.018 A 
ATOM      9  C   UNL     1      35.510 -20.228 -20.058  0.00  0.00    +0.058 C 
ATOM     10  C   UNL     1      32.310 -22.352 -17.484  0.00  0.00    +0.057 A 
ATOM     11  C   UNL     1      34.407 -19.831 -20.778  0.00  0.00    +0.007 C 
ATOM     12  C   UNL     1      33.151 -20.262 -20.343  0.00  0.00    +0.017 C 
ATOM     13  C   UNL     1      36.782 -21.245 -18.427  0.00  0.00    +0.252 C 
ATOM     14  C   UNL     1      36.920 -19.921 -20.293  0.00  0.00    +0.252 C 
ATOM     15  C   UNL     1      34.298 -22.989 -16.291  0.00  0.00    +0.016 C 
ATOM     16  C   UNL     1      31.496 -23.059 -16.589  0.00  0.00    +0.018 C 
ATOM     17  C   UNL     1      33.497 -23.701 -15.388  0.00  0.00    +0.051 C 
ATOM     18  C   UNL     1      32.115 -23.734 -15.537  0.00  0.00    +0.016 C 
ATOM     19  H   UNL     1      31.034 -21.487 -18.901  0.00  0.00    +0.166 HD
ATOM     20  H   UNL     1      38.585 -20.526 -19.196  0.00  0.00    +0.158 HD
ENDROOT
BRANCH  11  22
ATOM     21 CL   UNL     1      35.145 -16.867 -20.363  0.00  0.00    -0.082 Cl
ATOM     22  C   UNL     1      34.500 -18.996 -21.957  0.00  0.00    +0.011 C 
ATOM     23  C   UNL     1      34.829 -17.643 -21.876  0.00  0.00    +0.058 C 
ATOM     24  C   UNL     1      34.254 -19.582 -23.199  0.00  0.00    +0.001 C 
ATOM     25  C   UNL     1      34.910 -16.874 -23.037  0.00  0.00    +0.011 C 
ATOM     26  C   UNL     1      34.334 -18.812 -24.360  0.00  0.00    +0.000 C 
ATOM     27  C   UNL     1      34.663 -17.459 -24.279  0.00  0.00    +0.001 C 
ENDBRANCH  11  22
BRANCH  17  29
ATOM     28  O   UNL     1      32.988 -23.566 -12.401  0.00  0.00    -0.265 OA
ATOM     29  N   UNL     1      34.094 -24.383 -14.327  0.00  0.00    -0.277 N 
ATOM     30  C   UNL     1      33.809 -24.272 -12.970  0.00  0.00    +0.303 C 
ATOM     31  H   UNL     1      34.803 -25.022 -14.568  0.00  0.00    +0.155 HD
ENDBRANCH  17  29
TORSDOF 2
ENDMDL
MODEL 5
REMARK VINA RESULT:      -9.6      4.837      8.757
REMARK  Name = 24778473
REMARK  2 active torsions:
REMARK  status: ('A' for Active; 'I' for Inactive)
REMARK    1  A    between atoms: C_11  and  C_22
REMARK    2  A    between atoms: C_17  and  N_29
REMARK                            x       y       z     vdW  Elec       q    Type
REMARK                         _______ _______ _______ _____ _____    ______ ____
ROOT
ATOM      1  O   UNL     1      32.517 -22.529 -17.316  0.00  0.00    -0.270 OA
ATOM      2  O   UNL     1      32.182 -20.089 -21.202  0.00  0.00    -0.270 OA
ATOM      3  N   UNL     1      37.601 -21.276 -17.901  0.00  0.00    -0.353 N 
ATOM      4  N   UNL     1      31.976 -21.372 -19.264  0.00  0.00    -0.248 N 
ATOM      5  C   UNL     1      35.389 -21.586 -18.013  0.00  0.00    +0.022 A 
ATOM      6  C   UNL     1      34.151 -21.397 -18.640  0.00  0.00    +0.060 C 
ATOM      7  C   UNL     1      36.487 -20.986 -18.651  0.00  0.00    +0.057 A 
ATOM      8  C   UNL     1      35.892 -22.253 -16.846  0.00  0.00    +0.018 A 
ATOM      9  C   UNL     1      34.043 -20.657 -19.817  0.00  0.00    +0.058 C 
ATOM     10  C   UNL     1      37.272 -22.038 -16.808  0.00  0.00    +0.057 A 
ATOM     11  C   UNL     1      35.127 -20.074 -20.434  0.00  0.00    +0.007 C 
ATOM     12  C   UNL     1      36.382 -20.236 -19.844  0.00  0.00    +0.017 C 
ATOM     13  C   UNL     1      32.810 -21.858 -18.284  0.00  0.00    +0.252 C 
ATOM     14  C   UNL     1      32.639 -20.643 -20.220  0.00  0.00    +0.252 C 
ATOM     15  C   UNL     1      35.319 -23.022 -15.809  0.00  0.00    +0.016 C 
ATOM     16  C   UNL     1      38.098 -22.547 -15.798  0.00  0.00    +0.018 C 
ATOM     17  C   UNL     1      36.131 -23.538 -14.791  0.00  0.00    +0.051 C 
ATOM     18  C   UNL     1      37.502 -23.303 -14.787  0.00  0.00    +0.016 C 
ATOM     19  H   UNL     1      38.513 -20.977 -18.119  0.00  0.00    +0.166 HD
ATOM     20  H   UNL     1      31.005 -21.530 -19.279  0.00  0.00    +0.158 HD
ENDROOT
BRANCH  11  22
ATOM     21 CL   UNL     1      35.335 -17.006 -20.207  0.00  0.00    -0.082 Cl
ATOM     22  C   UNL     1      35.011 -19.306 -21.655  0.00  0.00    +0.011 C 
ATOM     23  C   UNL     1      35.093 -17.914 -21.659  0.00  0.00    +0.058 C 
ATOM     24  C   UNL     1      34.817 -19.997 -22.851  0.00  0.00    +0.001 C 
ATOM     25  C   UNL     1      34.979 -17.211 -22.859  0.00  0.00    +0.011 C 
ATOM     26  C   UNL     1      34.701 -19.295 -24.051  0.00  0.00    +0.000 C 
ATOM     27  C   UNL     1      34.783 -17.902 -24.055  0.00  0.00    +0.001 C 
ENDBRANCH  11  22
BRANCH  17  29
ATOM     28  O   UNL     1      36.146 -23.154 -11.782  0.00  0.00    -0.265 OA
ATOM     29  N   UNL     1      35.558 -24.297 -13.770  0.00  0.00    -0.277 N 
ATOM     30  C   UNL     1      35.605 -24.060 -12.400  0.00  0.00    +0.303 C 
ATOM     31  H   UNL     1      35.060 -25.097 -14.053  0.00  0.00    +0.155 HD
ENDBRANCH  17  29
TORSDOF 2
ENDMDL
MODEL 6
REMARK VINA RESULT:      -9.3      2.345      7.546
REMARK  Name = 24778473
REMARK  2 active torsions:
REMARK  status: ('A' for Active; 'I' for Inactive)
REMARK    1  A    between atoms: C_11  and  C_22
REMARK    2  A    between atoms: C_17  and  N_29
REMARK                            x       y       z     vdW  Elec       q    Type
REMARK                         _______ _______ _______ _____ _____    ______ ____
ROOT
ATOM      1  O   UNL     1      36.050 -23.063 -16.419  0.00  0.00    -0.270 OA
ATOM      2  O   UNL     1      31.584 -22.507 -17.370  0.00  0.00    -0.270 OA
ATOM      3  N   UNL     1      34.057 -24.666 -11.812  0.00  0.00    -0.353 N 
ATOM      4  N   UNL     1      33.907 -22.660 -17.240  0.00  0.00    -0.248 N 
ATOM      5  C   UNL     1      34.495 -23.926 -13.876  0.00  0.00    +0.022 A 
ATOM      6  C   UNL     1      34.079 -23.447 -15.125  0.00  0.00    +0.060 C 
ATOM      7  C   UNL     1      33.465 -24.214 -12.966  0.00  0.00    +0.057 A 
ATOM      8  C   UNL     1      35.736 -24.222 -13.218  0.00  0.00    +0.018 A 
ATOM      9  C   UNL     1      32.727 -23.278 -15.420  0.00  0.00    +0.058 C 
ATOM     10  C   UNL     1      35.424 -24.681 -11.936  0.00  0.00    +0.057 A 
ATOM     11  C   UNL     1      31.725 -23.563 -14.520  0.00  0.00    +0.007 C 
ATOM     12  C   UNL     1      32.094 -24.044 -13.261  0.00  0.00    +0.017 C 
ATOM     13  C   UNL     1      34.841 -23.047 -16.307  0.00  0.00    +0.252 C 
ATOM     14  C   UNL     1      32.617 -22.769 -16.785  0.00  0.00    +0.252 C 
ATOM     15  C   UNL     1      37.100 -24.151 -13.575  0.00  0.00    +0.016 C 
ATOM     16  C   UNL     1      36.397 -25.066 -11.004  0.00  0.00    +0.018 C 
ATOM     17  C   UNL     1      38.084 -24.532 -12.655  0.00  0.00    +0.051 C 
ATOM     18  C   UNL     1      37.735 -24.984 -11.387  0.00  0.00    +0.016 C 
ATOM     19  H   UNL     1      33.566 -24.941 -11.005  0.00  0.00    +0.166 HD
ATOM     20  H   UNL     1      34.140 -22.340 -18.141  0.00  0.00    +0.158 HD
ENDROOT
BRANCH  11  22
ATOM     21 CL   UNL     1      30.215 -25.984 -15.688  0.00  0.00    -0.082 Cl
ATOM     22  C   UNL     1      30.322 -23.388 -14.829  0.00  0.00    +0.011 C 
ATOM     23  C   UNL     1      29.551 -24.421 -15.359  0.00  0.00    +0.058 C 
ATOM     24  C   UNL     1      29.744 -22.143 -14.579  0.00  0.00    +0.001 C 
ATOM     25  C   UNL     1      28.201 -24.211 -15.641  0.00  0.00    +0.011 C 
ATOM     26  C   UNL     1      28.395 -21.932 -14.862  0.00  0.00    +0.000 C 
ATOM     27  C   UNL     1      27.623 -22.966 -15.392  0.00  0.00    +0.001 C 
ENDBRANCH  11  22
BRANCH  17  29
ATOM     28  O   UNL     1      39.907 -26.574 -13.965  0.00  0.00    -0.265 OA
ATOM     29  N   UNL     1      39.431 -24.458 -13.016  0.00  0.00    -0.277 N 
ATOM     30  C   UNL     1      40.210 -25.441 -13.618  0.00  0.00    +0.303 C 
ATOM     31  H   UNL     1      39.884 -23.607 -12.821  0.00  0.00    +0.155 HD
ENDBRANCH  17  29
TORSDOF 2
ENDMDL
MODEL 7
REMARK VINA RESULT:      -8.5     16.002     18.304
REMARK  Name = 24778473
REMARK  2 active torsions:
REMARK  status: ('A' for Active; 'I' for Inactive)
REMARK    1  A    between atoms: C_11  and  C_22
REMARK    2  A    between atoms: C_17  and  N_29
REMARK                            x       y       z     vdW  Elec       q    Type
REMARK                         _______ _______ _______ _____ _____    ______ ____
ROOT
ATOM      1  O   UNL     1      35.516  -9.750 -24.467  0.00  0.00    -0.270 OA
ATOM      2  O   UNL     1      34.295  -5.326 -24.776  0.00  0.00    -0.270 OA
ATOM      3  N   UNL     1      31.169  -9.922 -21.494  0.00  0.00    -0.353 N 
ATOM      4  N   UNL     1      35.207  -7.471 -24.840  0.00  0.00    -0.248 N 
ATOM      5  C   UNL     1      32.920  -9.436 -22.797  0.00  0.00    +0.022 A 
ATOM      6  C   UNL     1      33.682  -8.528 -23.544  0.00  0.00    +0.060 C 
ATOM      7  C   UNL     1      31.784  -8.897 -22.171  0.00  0.00    +0.057 A 
ATOM      8  C   UNL     1      32.963 -10.832 -22.467  0.00  0.00    +0.018 A 
ATOM      9  C   UNL     1      33.317  -7.186 -23.642  0.00  0.00    +0.058 C 
ATOM     10  C   UNL     1      31.857 -11.099 -21.655  0.00  0.00    +0.057 A 
ATOM     11  C   UNL     1      32.201  -6.670 -23.023  0.00  0.00    +0.007 C 
ATOM     12  C   UNL     1      31.410  -7.538 -22.268  0.00  0.00    +0.017 C 
ATOM     13  C   UNL     1      34.907  -8.710 -24.321  0.00  0.00    +0.252 C 
ATOM     14  C   UNL     1      34.302  -6.505 -24.479  0.00  0.00    +0.252 C 
ATOM     15  C   UNL     1      33.828 -11.905 -22.771  0.00  0.00    +0.016 C 
ATOM     16  C   UNL     1      31.578 -12.371 -21.139  0.00  0.00    +0.018 C 
ATOM     17  C   UNL     1      33.562 -13.183 -22.263  0.00  0.00    +0.051 C 
ATOM     18  C   UNL     1      32.451 -13.411 -21.458  0.00  0.00    +0.016 C 
ATOM     19  H   UNL     1      30.345  -9.826 -20.965  0.00  0.00    +0.166 HD
ATOM     20  H   UNL     1      35.989  -7.296 -25.411  0.00  0.00    +0.158 HD
ENDROOT
BRANCH  11  22
ATOM     21 CL   UNL     1      32.378  -4.955 -20.467  0.00  0.00    -0.082 Cl
ATOM     22  C   UNL     1      31.823  -5.276 -23.128  0.00  0.00    +0.011 C 
ATOM     23  C   UNL     1      31.870  -4.417 -22.030  0.00  0.00    +0.058 C 
ATOM     24  C   UNL     1      31.407  -4.800 -24.370  0.00  0.00    +0.001 C 
ATOM     25  C   UNL     1      31.498  -3.080 -22.174  0.00  0.00    +0.011 C 
ATOM     26  C   UNL     1      31.035  -3.463 -24.514  0.00  0.00    +0.000 C 
ATOM     27  C   UNL     1      31.081  -2.604 -23.417  0.00  0.00    +0.001 C 
ENDBRANCH  11  22
BRANCH  17  29
ATOM     28  O   UNL     1      33.482 -15.227 -24.503  0.00  0.00    -0.265 OA
ATOM     29  N   UNL     1      34.422 -14.239 -22.568  0.00  0.00    -0.277 N 
ATOM     30  C   UNL     1      34.324 -15.144 -23.620  0.00  0.00    +0.303 C 
ATOM     31  H   UNL     1      35.191 -14.358 -21.967  0.00  0.00    +0.155 HD
ENDBRANCH  17  29
TORSDOF 2
ENDMDL
MODEL 8
REMARK VINA RESULT:      -8.3      4.693      7.211
REMARK  Name = 24778473
REMARK  2 active torsions:
REMARK  status: ('A' for Active; 'I' for Inactive)
REMARK    1  A    between atoms: C_11  and  C_22
REMARK    2  A    between atoms: C_17  and  N_29
REMARK                            x       y       z     vdW  Elec       q    Type
REMARK                         _______ _______ _______ _____ _____    ______ ____
ROOT
ATOM      1  O   UNL     1      32.113 -21.259 -19.974  0.00  0.00    -0.270 OA
ATOM      2  O   UNL     1      33.083 -23.557 -16.108  0.00  0.00    -0.270 OA
ATOM      3  N   UNL     1      37.241 -20.097 -19.631  0.00  0.00    -0.353 N 
ATOM      4  N   UNL     1      32.237 -22.519 -18.018  0.00  0.00    -0.248 N 
ATOM      5  C   UNL     1      35.132 -20.809 -19.417  0.00  0.00    +0.022 A 
ATOM      6  C   UNL     1      34.140 -21.527 -18.738  0.00  0.00    +0.060 C 
ATOM      7  C   UNL     1      36.410 -20.849 -18.837  0.00  0.00    +0.057 A 
ATOM      8  C   UNL     1      35.229 -19.998 -20.598  0.00  0.00    +0.018 A 
ATOM      9  C   UNL     1      34.428 -22.227 -17.567  0.00  0.00    +0.058 C 
ATOM     10  C   UNL     1      36.556 -19.572 -20.699  0.00  0.00    +0.057 A 
ATOM     11  C   UNL     1      35.685 -22.258 -17.007  0.00  0.00    +0.007 C 
ATOM     12  C   UNL     1      36.707 -21.555 -17.650  0.00  0.00    +0.017 C 
ATOM     13  C   UNL     1      32.720 -21.719 -19.028  0.00  0.00    +0.252 C 
ATOM     14  C   UNL     1      33.199 -22.866 -17.103  0.00  0.00    +0.252 C 
ATOM     15  C   UNL     1      34.326 -19.576 -21.598  0.00  0.00    +0.016 C 
ATOM     16  C   UNL     1      37.019 -18.755 -21.739  0.00  0.00    +0.018 C 
ATOM     17  C   UNL     1      34.774 -18.759 -22.644  0.00  0.00    +0.051 C 
ATOM     18  C   UNL     1      36.103 -18.356 -22.712  0.00  0.00    +0.016 C 
ATOM     19  H   UNL     1      38.199 -19.954 -19.458  0.00  0.00    +0.166 HD
ATOM     20  H   UNL     1      31.300 -22.812 -17.958  0.00  0.00    +0.158 HD
ENDROOT
BRANCH  11  22
ATOM     21 CL   UNL     1      37.816 -21.068 -15.123  0.00  0.00    -0.082 Cl
ATOM     22  C   UNL     1      35.982 -22.986 -15.791  0.00  0.00    +0.011 C 
ATOM     23  C   UNL     1      36.928 -22.531 -14.874  0.00  0.00    +0.058 C 
ATOM     24  C   UNL     1      35.288 -24.172 -15.549  0.00  0.00    +0.001 C 
ATOM     25  C   UNL     1      37.183 -23.262 -13.714  0.00  0.00    +0.011 C 
ATOM     26  C   UNL     1      35.544 -24.903 -14.389  0.00  0.00    +0.000 C 
ATOM     27  C   UNL     1      36.490 -24.448 -13.472  0.00  0.00    +0.001 C 
ENDBRANCH  11  22
BRANCH  17  29
ATOM     28  O   UNL     1      34.953 -16.521 -24.684  0.00  0.00    -0.265 OA
ATOM     29  N   UNL     1      33.876 -18.346 -23.629  0.00  0.00    -0.277 N 
ATOM     30  C   UNL     1      34.024 -17.303 -24.538  0.00  0.00    +0.303 C 
ATOM     31  H   UNL     1      33.036 -18.855 -23.689  0.00  0.00    +0.155 HD
ENDBRANCH  17  29
TORSDOF 2
ENDMDL
MODEL 9
REMARK VINA RESULT:      -8.1      3.537      7.059
REMARK  Name = 24778473
REMARK  2 active torsions:
REMARK  status: ('A' for Active; 'I' for Inactive)
REMARK    1  A    between atoms: C_11  and  C_22
REMARK    2  A    between atoms: C_17  and  N_29
REMARK                            x       y       z     vdW  Elec       q    Type
REMARK                         _______ _______ _______ _____ _____    ______ ____
ROOT
ATOM      1  O   UNL     1      36.859 -22.428 -16.683  0.00  0.00    -0.270 OA
ATOM      2  O   UNL     1      34.013 -24.532 -13.744  0.00  0.00    -0.270 OA
ATOM      3  N   UNL     1      32.292 -21.268 -19.040  0.00  0.00    -0.353 N 
ATOM      4  N   UNL     1      35.733 -23.591 -15.007  0.00  0.00    -0.248 N 
ATOM      5  C   UNL     1      33.985 -21.962 -17.755  0.00  0.00    +0.022 A 
ATOM      6  C   UNL     1      34.480 -22.642 -16.635  0.00  0.00    +0.060 C 
ATOM      7  C   UNL     1      32.588 -21.975 -17.901  0.00  0.00    +0.057 A 
ATOM      8  C   UNL     1      34.518 -21.216 -18.860  0.00  0.00    +0.018 A 
ATOM      9  C   UNL     1      33.622 -23.281 -15.741  0.00  0.00    +0.058 C 
ATOM     10  C   UNL     1      33.435 -20.799 -19.638  0.00  0.00    +0.057 A 
ATOM     11  C   UNL     1      32.255 -23.287 -15.893  0.00  0.00    +0.007 C 
ATOM     12  C   UNL     1      31.716 -22.621 -16.997  0.00  0.00    +0.017 C 
ATOM     13  C   UNL     1      35.847 -22.845 -16.157  0.00  0.00    +0.252 C 
ATOM     14  C   UNL     1      34.433 -23.893 -14.690  0.00  0.00    +0.252 C 
ATOM     15  C   UNL     1      35.813 -20.847 -19.285  0.00  0.00    +0.016 C 
ATOM     16  C   UNL     1      33.581 -20.040 -20.807  0.00  0.00    +0.018 C 
ATOM     17  C   UNL     1      35.975 -20.089 -20.452  0.00  0.00    +0.051 C 
ATOM     18  C   UNL     1      34.873 -19.691 -21.201  0.00  0.00    +0.016 C 
ATOM     19  H   UNL     1      31.381 -21.117 -19.381  0.00  0.00    +0.166 HD
ATOM     20  H   UNL     1      36.504 -23.879 -14.467  0.00  0.00    +0.158 HD
ENDROOT
BRANCH  11  22
ATOM     21 CL   UNL     1      31.916 -22.016 -13.105  0.00  0.00    -0.082 Cl
ATOM     22  C   UNL     1      31.367 -23.950 -14.962  0.00  0.00    +0.011 C 
ATOM     23  C   UNL     1      31.145 -23.454 -13.678  0.00  0.00    +0.058 C 
ATOM     24  C   UNL     1      30.722 -25.114 -15.382  0.00  0.00    +0.001 C 
ATOM     25  C   UNL     1      30.279 -24.123 -12.811  0.00  0.00    +0.011 C 
ATOM     26  C   UNL     1      29.858 -25.783 -14.516  0.00  0.00    +0.000 C 
ATOM     27  C   UNL     1      29.636 -25.287 -13.231  0.00  0.00    +0.001 C 
ENDBRANCH  11  22
BRANCH  17  29
ATOM     28  O   UNL     1      36.954 -17.685 -22.023  0.00  0.00    -0.265 OA
ATOM     29  N   UNL     1      37.258 -19.728 -20.866  0.00  0.00    -0.277 N 
ATOM     30  C   UNL     1      37.638 -18.602 -21.590  0.00  0.00    +0.303 C 
ATOM     31  H   UNL     1      37.982 -20.345 -20.616  0.00  0.00    +0.155 HD
ENDBRANCH  17  29
TORSDOF 2
ENDMDL
