MODEL 1
REMARK VINA RESULT:     -12.5      0.000      0.000
REMARK  Name = 9826451
REMARK  9 active torsions:
REMARK  status: ('A' for Active; 'I' for Inactive)
REMARK    1  A    between atoms: C_1  and  N_2
REMARK    2  A    between atoms: C_1  and  C_19
REMARK    3  A    between atoms: C_8  and  O_10
REMARK    4  A    between atoms: O_10  and  C_11
REMARK    5  A    between atoms: C_14  and  O_17
REMARK    6  A    between atoms: C_19  and  O_20
REMARK    7  A    between atoms: O_20  and  C_24
REMARK    8  A    between atoms: C_21  and  C_27
REMARK    9  A    between atoms: C_27  and  C_32
REMARK                            x       y       z     vdW  Elec       q    Type
REMARK                         _______ _______ _______ _____ _____    ______ ____
ROOT
ATOM      1  C   UNL     1      33.828 -14.783 -24.566  0.00  0.00    +0.139 C 
ENDROOT
BRANCH   1   2
ATOM      2  N   UNL     1      34.391 -15.433 -23.407  0.00  0.00    -0.291 N 
ATOM      3  C   UNL     1      34.768 -14.610 -22.257  0.00  0.00    +0.113 C 
ATOM      4  N   UNL     1      34.234 -17.557 -24.445  0.00  0.00    -0.233 NA
ATOM      5  N   UNL     1      34.993 -19.518 -23.270  0.00  0.00    -0.214 NA
ATOM      6  C   UNL     1      34.590 -16.820 -23.372  0.00  0.00    +0.115 C 
ATOM      7  C   UNL     1      35.146 -17.353 -22.227  0.00  0.00    +0.146 C 
ATOM      8  C   UNL     1      35.326 -18.722 -22.232  0.00  0.00    +0.210 C 
ATOM      9  C   UNL     1      34.460 -18.879 -24.328  0.00  0.00    +0.254 C 
BRANCH   8  10
ATOM     10  O   UNL     1      35.872 -19.329 -21.132  0.00  0.00    -0.440 OA
BRANCH  10  11
ATOM     11  C   UNL     1      35.046 -20.137 -20.377  0.00  0.00    +0.147 C 
ATOM     12  C   UNL     1      33.664 -19.952 -20.414  0.00  0.00    +0.041 C 
ATOM     13  C   UNL     1      35.594 -21.141 -19.577  0.00  0.00    +0.041 C 
ATOM     14  C   UNL     1      33.377 -21.772 -18.853  0.00  0.00    +0.139 C 
ATOM     15  C   UNL     1      32.829 -20.769 -19.652  0.00  0.00    +0.040 C 
ATOM     16  C   UNL     1      34.760 -21.958 -18.816  0.00  0.00    +0.040 C 
BRANCH  14  17
ATOM     17  O   UNL     1      32.563 -22.571 -18.109  0.00  0.00    -0.471 OA
ATOM     18  C   UNL     1      33.069 -23.028 -16.856  0.00  0.00    +0.252 C 
ENDBRANCH  14  17
ENDBRANCH  10  11
ENDBRANCH   8  10
ENDBRANCH   1   2
BRANCH   1  19
ATOM     19  C   UNL     1      33.184 -13.467 -24.164  0.00  0.00    +0.227 C 
BRANCH  19  20
ATOM     20  O   UNL     1      33.885 -12.388 -24.778  0.00  0.00    -0.474 OA
BRANCH  20  24
ATOM     21  C   UNL     1      33.726  -8.702 -22.876  0.00  0.00    -0.021 C 
ATOM     22  C   UNL     1      32.828  -9.709 -22.522  0.00  0.00    -0.001 C 
ATOM     23  C   UNL     1      34.678  -8.934 -23.870  0.00  0.00    -0.001 C 
ATOM     24  C   UNL     1      33.832 -11.179 -24.155  0.00  0.00    +0.139 C 
ATOM     25  C   UNL     1      32.881 -10.947 -23.161  0.00  0.00    +0.037 C 
ATOM     26  C   UNL     1      34.730 -10.172 -24.509  0.00  0.00    +0.037 C 
BRANCH  21  27
ATOM     27  C   UNL     1      33.668  -7.364 -22.185  0.00  0.00    +0.047 C 
BRANCH  27  32
ATOM     28  S   UNL     1      31.389  -5.939 -22.784  0.00  0.00    -0.048 S 
ATOM     29  O   UNL     1      32.906  -6.791 -19.340  0.00  0.00    -0.274 OA
ATOM     30  O   UNL     1      30.475  -3.698 -21.758  0.00  0.00    -0.263 OA
ATOM     31  N   UNL     1      31.667  -5.136 -20.376  0.00  0.00    -0.246 N 
ATOM     32  C   UNL     1      32.278  -7.058 -21.658  0.00  0.00    +0.137 C 
ATOM     33  C   UNL     1      32.336  -6.341 -20.328  0.00  0.00    +0.239 C 
ATOM     34  C   UNL     1      31.095  -4.731 -21.553  0.00  0.00    +0.279 C 
ATOM     35  H   UNL     1      31.602  -4.572 -19.572  0.00  0.00    +0.158 HD
ENDBRANCH  27  32
ENDBRANCH  21  27
ENDBRANCH  20  24
ENDBRANCH  19  20
ENDBRANCH   1  19
TORSDOF 9
ENDMDL
MODEL 2
REMARK VINA RESULT:     -11.6      1.235      1.638
REMARK  Name = 9826451
REMARK  9 active torsions:
REMARK  status: ('A' for Active; 'I' for Inactive)
REMARK    1  A    between atoms: C_1  and  N_2
REMARK    2  A    between atoms: C_1  and  C_19
REMARK    3  A    between atoms: C_8  and  O_10
REMARK    4  A    between atoms: O_10  and  C_11
REMARK    5  A    between atoms: C_14  and  O_17
REMARK    6  A    between atoms: C_19  and  O_20
REMARK    7  A    between atoms: O_20  and  C_24
REMARK    8  A    between atoms: C_21  and  C_27
REMARK    9  A    between atoms: C_27  and  C_32
REMARK                            x       y       z     vdW  Elec       q    Type
REMARK                         _______ _______ _______ _____ _____    ______ ____
ROOT
ATOM      1  C   UNL     1      33.851 -13.995 -23.521  0.00  0.00    +0.139 C 
ENDROOT
BRANCH   1   2
ATOM      2  N   UNL     1      34.407 -14.836 -22.488  0.00  0.00    -0.291 N 
ATOM      3  C   UNL     1      34.643 -14.255 -21.165  0.00  0.00    +0.113 C 
ATOM      4  N   UNL     1      34.502 -16.688 -23.961  0.00  0.00    -0.233 NA
ATOM      5  N   UNL     1      35.372 -18.793 -23.176  0.00  0.00    -0.214 NA
ATOM      6  C   UNL     1      34.730 -16.176 -22.733  0.00  0.00    +0.115 C 
ATOM      7  C   UNL     1      35.269 -16.902 -21.690  0.00  0.00    +0.146 C 
ATOM      8  C   UNL     1      35.574 -18.218 -21.972  0.00  0.00    +0.210 C 
ATOM      9  C   UNL     1      34.842 -17.982 -24.110  0.00  0.00    +0.254 C 
BRANCH   8  10
ATOM     10  O   UNL     1      36.113 -19.005 -20.988  0.00  0.00    -0.440 OA
BRANCH  10  11
ATOM     11  C   UNL     1      35.273 -19.907 -20.366  0.00  0.00    +0.147 C 
ATOM     12  C   UNL     1      33.890 -19.782 -20.501  0.00  0.00    +0.041 C 
ATOM     13  C   UNL     1      35.808 -20.946 -19.602  0.00  0.00    +0.041 C 
ATOM     14  C   UNL     1      33.577 -21.731 -19.109  0.00  0.00    +0.139 C 
ATOM     15  C   UNL     1      33.042 -20.693 -19.873  0.00  0.00    +0.040 C 
ATOM     16  C   UNL     1      34.960 -21.857 -18.975  0.00  0.00    +0.040 C 
BRANCH  14  17
ATOM     17  O   UNL     1      32.750 -22.622 -18.497  0.00  0.00    -0.471 OA
ATOM     18  C   UNL     1      32.935 -22.824 -17.096  0.00  0.00    +0.252 C 
ENDBRANCH  14  17
ENDBRANCH  10  11
ENDBRANCH   8  10
ENDBRANCH   1   2
BRANCH   1  19
ATOM     19  C   UNL     1      33.441 -12.654 -22.936  0.00  0.00    +0.227 C 
BRANCH  19  20
ATOM     20  O   UNL     1      33.830 -11.609 -23.826  0.00  0.00    -0.474 OA
BRANCH  20  24
ATOM     21  C   UNL     1      33.364  -7.710 -22.482  0.00  0.00    -0.021 C 
ATOM     22  C   UNL     1      34.444  -8.041 -23.300  0.00  0.00    -0.001 C 
ATOM     23  C   UNL     1      32.441  -8.689 -22.115  0.00  0.00    -0.001 C 
ATOM     24  C   UNL     1      33.678 -10.330 -23.385  0.00  0.00    +0.139 C 
ATOM     25  C   UNL     1      34.601  -9.351 -23.752  0.00  0.00    +0.037 C 
ATOM     26  C   UNL     1      32.598  -9.999 -22.566  0.00  0.00    +0.037 C 
BRANCH  21  27
ATOM     27  C   UNL     1      33.196  -6.293 -21.995  0.00  0.00    +0.047 C 
BRANCH  27  32
ATOM     28  S   UNL     1      32.716  -4.378 -23.916  0.00  0.00    -0.048 S 
ATOM     29  O   UNL     1      30.655  -5.263 -20.775  0.00  0.00    -0.274 OA
ATOM     30  O   UNL     1      31.921  -1.886 -23.659  0.00  0.00    -0.263 OA
ATOM     31  N   UNL     1      31.164  -3.447 -22.114  0.00  0.00    -0.246 N 
ATOM     32  C   UNL     1      32.065  -5.578 -22.712  0.00  0.00    +0.137 C 
ATOM     33  C   UNL     1      31.218  -4.776 -21.749  0.00  0.00    +0.239 C 
ATOM     34  C   UNL     1      31.865  -3.021 -23.211  0.00  0.00    +0.279 C 
ATOM     35  H   UNL     1      30.627  -2.810 -21.589  0.00  0.00    +0.158 HD
ENDBRANCH  27  32
ENDBRANCH  21  27
ENDBRANCH  20  24
ENDBRANCH  19  20
ENDBRANCH   1  19
TORSDOF 9
ENDMDL
MODEL 3
REMARK VINA RESULT:     -11.4      4.980      9.514
REMARK  Name = 9826451
REMARK  9 active torsions:
REMARK  status: ('A' for Active; 'I' for Inactive)
REMARK    1  A    between atoms: C_1  and  N_2
REMARK    2  A    between atoms: C_1  and  C_19
REMARK    3  A    between atoms: C_8  and  O_10
REMARK    4  A    between atoms: O_10  and  C_11
REMARK    5  A    between atoms: C_14  and  O_17
REMARK    6  A    between atoms: C_19  and  O_20
REMARK    7  A    between atoms: O_20  and  C_24
REMARK    8  A    between atoms: C_21  and  C_27
REMARK    9  A    between atoms: C_27  and  C_32
REMARK                            x       y       z     vdW  Elec       q    Type
REMARK                         _______ _______ _______ _____ _____    ______ ____
ROOT
ATOM      1  C   UNL     1      35.867 -22.016 -17.334  0.00  0.00    +0.139 C 
ENDROOT
BRANCH   1   2
ATOM      2  N   UNL     1      34.640 -22.586 -16.831  0.00  0.00    -0.291 N 
ATOM      3  C   UNL     1      33.478 -22.641 -17.719  0.00  0.00    +0.113 C 
ATOM      4  N   UNL     1      35.629 -23.008 -14.720  0.00  0.00    -0.233 NA
ATOM      5  N   UNL     1      34.320 -24.021 -12.970  0.00  0.00    -0.214 NA
ATOM      6  C   UNL     1      34.543 -23.070 -15.519  0.00  0.00    +0.115 C 
ATOM      7  C   UNL     1      33.327 -23.586 -15.120  0.00  0.00    +0.146 C 
ATOM      8  C   UNL     1      33.274 -24.052 -13.822  0.00  0.00    +0.210 C 
ATOM      9  C   UNL     1      35.449 -23.494 -13.478  0.00  0.00    +0.254 C 
BRANCH   8  10
ATOM     10  O   UNL     1      32.101 -24.581 -13.350  0.00  0.00    -0.440 OA
BRANCH  10  11
ATOM     11  C   UNL     1      30.940 -24.245 -14.017  0.00  0.00    +0.147 C 
ATOM     12  C   UNL     1      30.525 -22.915 -14.071  0.00  0.00    +0.041 C 
ATOM     13  C   UNL     1      30.182 -25.238 -14.640  0.00  0.00    +0.041 C 
ATOM     14  C   UNL     1      28.595 -23.568 -15.367  0.00  0.00    +0.139 C 
ATOM     15  C   UNL     1      29.352 -22.576 -14.745  0.00  0.00    +0.040 C 
ATOM     16  C   UNL     1      29.010 -24.899 -15.315  0.00  0.00    +0.040 C 
BRANCH  14  17
ATOM     17  O   UNL     1      27.450 -23.238 -16.027  0.00  0.00    -0.471 OA
ATOM     18  C   UNL     1      26.683 -22.159 -15.497  0.00  0.00    +0.252 C 
ENDBRANCH  14  17
ENDBRANCH  10  11
ENDBRANCH   8  10
ENDBRANCH   1   2
BRANCH   1  19
ATOM     19  C   UNL     1      35.729 -21.706 -18.814  0.00  0.00    +0.227 C 
BRANCH  19  20
ATOM     20  O   UNL     1      36.436 -20.505 -19.116  0.00  0.00    -0.474 OA
BRANCH  20  24
ATOM     21  C   UNL     1      35.115 -18.301 -22.376  0.00  0.00    -0.021 C 
ATOM     22  C   UNL     1      36.434 -18.179 -21.940  0.00  0.00    -0.001 C 
ATOM     23  C   UNL     1      34.240 -19.164 -21.716  0.00  0.00    -0.001 C 
ATOM     24  C   UNL     1      36.003 -19.782 -20.185  0.00  0.00    +0.139 C 
ATOM     25  C   UNL     1      36.879 -18.918 -20.845  0.00  0.00    +0.037 C 
ATOM     26  C   UNL     1      34.684 -19.903 -20.621  0.00  0.00    +0.037 C 
BRANCH  21  27
ATOM     27  C   UNL     1      34.636 -17.501 -23.560  0.00  0.00    +0.047 C 
BRANCH  27  32
ATOM     28  S   UNL     1      34.738 -15.459 -21.714  0.00  0.00    -0.048 S 
ATOM     29  O   UNL     1      33.948 -15.308 -25.489  0.00  0.00    -0.274 OA
ATOM     30  O   UNL     1      33.122 -13.417 -21.358  0.00  0.00    -0.263 OA
ATOM     31  N   UNL     1      33.420 -14.220 -23.517  0.00  0.00    -0.246 N 
ATOM     32  C   UNL     1      34.980 -16.028 -23.426  0.00  0.00    +0.137 C 
ATOM     33  C   UNL     1      34.073 -15.168 -24.277  0.00  0.00    +0.239 C 
ATOM     34  C   UNL     1      33.622 -14.187 -22.163  0.00  0.00    +0.279 C 
ATOM     35  H   UNL     1      32.813 -13.573 -23.945  0.00  0.00    +0.158 HD
ENDBRANCH  27  32
ENDBRANCH  21  27
ENDBRANCH  20  24
ENDBRANCH  19  20
ENDBRANCH   1  19
TORSDOF 9
ENDMDL
MODEL 4
REMARK VINA RESULT:     -11.3      3.778     12.537
REMARK  Name = 9826451
REMARK  9 active torsions:
REMARK  status: ('A' for Active; 'I' for Inactive)
REMARK    1  A    between atoms: C_1  and  N_2
REMARK    2  A    between atoms: C_1  and  C_19
REMARK    3  A    between atoms: C_8  and  O_10
REMARK    4  A    between atoms: O_10  and  C_11
REMARK    5  A    between atoms: C_14  and  O_17
REMARK    6  A    between atoms: C_19  and  O_20
REMARK    7  A    between atoms: O_20  and  C_24
REMARK    8  A    between atoms: C_21  and  C_27
REMARK    9  A    between atoms: C_27  and  C_32
REMARK                            x       y       z     vdW  Elec       q    Type
REMARK                         _______ _______ _______ _____ _____    ______ ____
ROOT
ATOM      1  C   UNL     1      33.355 -13.127 -23.765  0.00  0.00    +0.139 C 
ENDROOT
BRANCH   1   2
ATOM      2  N   UNL     1      33.496 -11.699 -23.610  0.00  0.00    -0.291 N 
ATOM      3  C   UNL     1      34.385 -10.981 -24.524  0.00  0.00    +0.113 C 
ATOM      4  N   UNL     1      32.001 -11.688 -21.773  0.00  0.00    -0.233 NA
ATOM      5  N   UNL     1      31.502  -9.614 -20.654  0.00  0.00    -0.214 NA
ATOM      6  C   UNL     1      32.815 -11.003 -22.603  0.00  0.00    +0.115 C 
ATOM      7  C   UNL     1      33.021  -9.640 -22.521  0.00  0.00    +0.146 C 
ATOM      8  C   UNL     1      32.331  -8.991 -21.517  0.00  0.00    +0.210 C 
ATOM      9  C   UNL     1      31.386 -10.943 -20.836  0.00  0.00    +0.254 C 
BRANCH   8  10
ATOM     10  O   UNL     1      32.482  -7.638 -21.370  0.00  0.00    -0.440 OA
BRANCH  10  11
ATOM     11  C   UNL     1      32.466  -6.869 -22.517  0.00  0.00    +0.147 C 
ATOM     12  C   UNL     1      31.293  -6.753 -23.264  0.00  0.00    +0.041 C 
ATOM     13  C   UNL     1      33.624  -6.209 -22.930  0.00  0.00    +0.041 C 
ATOM     14  C   UNL     1      32.435  -5.317 -24.834  0.00  0.00    +0.139 C 
ATOM     15  C   UNL     1      31.278  -5.977 -24.422  0.00  0.00    +0.040 C 
ATOM     16  C   UNL     1      33.608  -5.432 -24.087  0.00  0.00    +0.040 C 
BRANCH  14  17
ATOM     17  O   UNL     1      32.420  -4.558 -25.964  0.00  0.00    -0.471 OA
ATOM     18  C   UNL     1      33.655  -4.409 -26.664  0.00  0.00    +0.252 C 
ENDBRANCH  14  17
ENDBRANCH  10  11
ENDBRANCH   8  10
ENDBRANCH   1   2
BRANCH   1  19
ATOM     19  C   UNL     1      34.286 -13.850 -22.807  0.00  0.00    +0.227 C 
BRANCH  19  20
ATOM     20  O   UNL     1      35.036 -14.830 -23.522  0.00  0.00    -0.474 OA
BRANCH  20  24
ATOM     21  C   UNL     1      34.930 -18.719 -22.076  0.00  0.00    -0.021 C 
ATOM     22  C   UNL     1      34.582 -18.459 -23.401  0.00  0.00    -0.001 C 
ATOM     23  C   UNL     1      35.313 -17.673 -21.237  0.00  0.00    -0.001 C 
ATOM     24  C   UNL     1      35.001 -16.106 -23.048  0.00  0.00    +0.139 C 
ATOM     25  C   UNL     1      34.617 -17.152 -23.888  0.00  0.00    +0.037 C 
ATOM     26  C   UNL     1      35.348 -16.367 -21.722  0.00  0.00    +0.037 C 
BRANCH  21  27
ATOM     27  C   UNL     1      34.892 -20.132 -21.552  0.00  0.00    +0.047 C 
BRANCH  27  32
ATOM     28  S   UNL     1      35.328 -21.389 -19.140  0.00  0.00    -0.048 S 
ATOM     29  O   UNL     1      32.022 -20.121 -20.675  0.00  0.00    -0.274 OA
ATOM     30  O   UNL     1      33.973 -23.309 -17.963  0.00  0.00    -0.263 OA
ATOM     31  N   UNL     1      32.810 -21.790 -19.280  0.00  0.00    -0.246 N 
ATOM     32  C   UNL     1      34.374 -20.193 -20.126  0.00  0.00    +0.137 C 
ATOM     33  C   UNL     1      32.941 -20.672 -20.078  0.00  0.00    +0.239 C 
ATOM     34  C   UNL     1      33.922 -22.329 -18.690  0.00  0.00    +0.279 C 
ATOM     35  H   UNL     1      31.925 -22.196 -19.137  0.00  0.00    +0.158 HD
ENDBRANCH  27  32
ENDBRANCH  21  27
ENDBRANCH  20  24
ENDBRANCH  19  20
ENDBRANCH   1  19
TORSDOF 9
ENDMDL
MODEL 5
REMARK VINA RESULT:     -11.3      3.946     12.830
REMARK  Name = 9826451
REMARK  9 active torsions:
REMARK  status: ('A' for Active; 'I' for Inactive)
REMARK    1  A    between atoms: C_1  and  N_2
REMARK    2  A    between atoms: C_1  and  C_19
REMARK    3  A    between atoms: C_8  and  O_10
REMARK    4  A    between atoms: O_10  and  C_11
REMARK    5  A    between atoms: C_14  and  O_17
REMARK    6  A    between atoms: C_19  and  O_20
REMARK    7  A    between atoms: O_20  and  C_24
REMARK    8  A    between atoms: C_21  and  C_27
REMARK    9  A    between atoms: C_27  and  C_32
REMARK                            x       y       z     vdW  Elec       q    Type
REMARK                         _______ _______ _______ _____ _____    ______ ____
ROOT
ATOM      1  C   UNL     1      33.306 -13.800 -23.627  0.00  0.00    +0.139 C 
ENDROOT
BRANCH   1   2
ATOM      2  N   UNL     1      33.062 -12.545 -22.958  0.00  0.00    -0.291 N 
ATOM      3  C   UNL     1      32.191 -12.537 -21.781  0.00  0.00    +0.113 C 
ATOM      4  N   UNL     1      34.429 -11.383 -24.504  0.00  0.00    -0.233 NA
ATOM      5  N   UNL     1      34.716  -9.001 -24.288  0.00  0.00    -0.214 NA
ATOM      6  C   UNL     1      33.629 -11.349 -23.418  0.00  0.00    +0.115 C 
ATOM      7  C   UNL     1      33.330 -10.194 -22.723  0.00  0.00    +0.146 C 
ATOM      8  C   UNL     1      33.908  -9.039 -23.209  0.00  0.00    +0.210 C 
ATOM      9  C   UNL     1      34.930 -10.191 -24.879  0.00  0.00    +0.254 C 
BRANCH   8  10
ATOM     10  O   UNL     1      33.660  -7.850 -22.574  0.00  0.00    -0.440 OA
BRANCH  10  11
ATOM     11  C   UNL     1      33.198  -6.802 -23.345  0.00  0.00    +0.147 C 
ATOM     12  C   UNL     1      34.079  -5.811 -23.777  0.00  0.00    +0.041 C 
ATOM     13  C   UNL     1      31.848  -6.736 -23.695  0.00  0.00    +0.041 C 
ATOM     14  C   UNL     1      32.264  -4.687 -24.905  0.00  0.00    +0.139 C 
ATOM     15  C   UNL     1      33.613  -4.754 -24.556  0.00  0.00    +0.040 C 
ATOM     16  C   UNL     1      31.382  -5.679 -24.475  0.00  0.00    +0.040 C 
BRANCH  14  17
ATOM     17  O   UNL     1      31.808  -3.655 -25.667  0.00  0.00    -0.471 OA
ATOM     18  C   UNL     1      32.690  -3.145 -26.665  0.00  0.00    +0.252 C 
ENDBRANCH  14  17
ENDBRANCH  10  11
ENDBRANCH   8  10
ENDBRANCH   1   2
BRANCH   1  19
ATOM     19  C   UNL     1      34.476 -14.519 -22.976  0.00  0.00    +0.227 C 
BRANCH  19  20
ATOM     20  O   UNL     1      34.826 -15.660 -23.757  0.00  0.00    -0.474 OA
BRANCH  20  24
ATOM     21  C   UNL     1      35.016 -19.311 -21.792  0.00  0.00    -0.021 C 
ATOM     22  C   UNL     1      34.546 -19.248 -23.104  0.00  0.00    -0.001 C 
ATOM     23  C   UNL     1      35.422 -18.146 -21.140  0.00  0.00    -0.001 C 
ATOM     24  C   UNL     1      34.888 -16.857 -23.113  0.00  0.00    +0.139 C 
ATOM     25  C   UNL     1      34.482 -18.022 -23.765  0.00  0.00    +0.037 C 
ATOM     26  C   UNL     1      35.357 -16.920 -21.800  0.00  0.00    +0.037 C 
BRANCH  21  27
ATOM     27  C   UNL     1      35.085 -20.637 -21.079  0.00  0.00    +0.047 C 
BRANCH  27  32
ATOM     28  S   UNL     1      35.351 -21.731 -18.565  0.00  0.00    -0.048 S 
ATOM     29  O   UNL     1      32.193 -20.377 -20.322  0.00  0.00    -0.274 OA
ATOM     30  O   UNL     1      33.831 -23.465 -17.305  0.00  0.00    -0.263 OA
ATOM     31  N   UNL     1      32.819 -21.980 -18.776  0.00  0.00    -0.246 N 
ATOM     32  C   UNL     1      34.514 -20.556 -19.675  0.00  0.00    +0.137 C 
ATOM     33  C   UNL     1      33.051 -20.937 -19.649  0.00  0.00    +0.239 C 
ATOM     34  C   UNL     1      33.871 -22.542 -18.103  0.00  0.00    +0.279 C 
ATOM     35  H   UNL     1      31.904 -22.318 -18.640  0.00  0.00    +0.158 HD
ENDBRANCH  27  32
ENDBRANCH  21  27
ENDBRANCH  20  24
ENDBRANCH  19  20
ENDBRANCH   1  19
TORSDOF 9
ENDMDL
MODEL 6
REMARK VINA RESULT:     -11.3      3.118      6.261
REMARK  Name = 9826451
REMARK  9 active torsions:
REMARK  status: ('A' for Active; 'I' for Inactive)
REMARK    1  A    between atoms: C_1  and  N_2
REMARK    2  A    between atoms: C_1  and  C_19
REMARK    3  A    between atoms: C_8  and  O_10
REMARK    4  A    between atoms: O_10  and  C_11
REMARK    5  A    between atoms: C_14  and  O_17
REMARK    6  A    between atoms: C_19  and  O_20
REMARK    7  A    between atoms: O_20  and  C_24
REMARK    8  A    between atoms: C_21  and  C_27
REMARK    9  A    between atoms: C_27  and  C_32
REMARK                            x       y       z     vdW  Elec       q    Type
REMARK                         _______ _______ _______ _____ _____    ______ ____
ROOT
ATOM      1  C   UNL     1      35.341 -19.569 -20.556  0.00  0.00    +0.139 C 
ENDROOT
BRANCH   1   2
ATOM      2  N   UNL     1      34.579 -20.539 -19.805  0.00  0.00    -0.291 N 
ATOM      3  C   UNL     1      33.190 -20.791 -20.194  0.00  0.00    +0.113 C 
ATOM      4  N   UNL     1      36.420 -20.973 -18.379  0.00  0.00    -0.233 NA
ATOM      5  N   UNL     1      36.194 -22.573 -16.593  0.00  0.00    -0.214 NA
ATOM      6  C   UNL     1      35.137 -21.223 -18.717  0.00  0.00    +0.115 C 
ATOM      7  C   UNL     1      34.331 -22.122 -18.049  0.00  0.00    +0.146 C 
ATOM      8  C   UNL     1      34.919 -22.775 -16.985  0.00  0.00    +0.210 C 
ATOM      9  C   UNL     1      36.877 -21.672 -17.324  0.00  0.00    +0.254 C 
BRANCH   8  10
ATOM     10  O   UNL     1      34.184 -23.684 -16.270  0.00  0.00    -0.440 OA
BRANCH  10  11
ATOM     11  C   UNL     1      32.932 -23.291 -15.840  0.00  0.00    +0.147 C 
ATOM     12  C   UNL     1      31.916 -23.061 -16.767  0.00  0.00    +0.041 C 
ATOM     13  C   UNL     1      32.684 -23.123 -14.477  0.00  0.00    +0.041 C 
ATOM     14  C   UNL     1      30.404 -22.496 -14.970  0.00  0.00    +0.139 C 
ATOM     15  C   UNL     1      30.652 -22.663 -16.333  0.00  0.00    +0.040 C 
ATOM     16  C   UNL     1      31.420 -22.727 -14.043  0.00  0.00    +0.040 C 
BRANCH  14  17
ATOM     17  O   UNL     1      29.170 -22.110 -14.545  0.00  0.00    -0.471 OA
ATOM     18  C   UNL     1      28.045 -22.672 -15.218  0.00  0.00    +0.252 C 
ENDBRANCH  14  17
ENDBRANCH  10  11
ENDBRANCH   8  10
ENDBRANCH   1   2
BRANCH   1  19
ATOM     19  C   UNL     1      34.741 -19.396 -21.941  0.00  0.00    +0.227 C 
BRANCH  19  20
ATOM     20  O   UNL     1      35.564 -18.520 -22.709  0.00  0.00    -0.474 OA
BRANCH  20  24
ATOM     21  C   UNL     1      33.976 -14.816 -23.702  0.00  0.00    -0.021 C 
ATOM     22  C   UNL     1      34.585 -15.004 -22.461  0.00  0.00    -0.001 C 
ATOM     23  C   UNL     1      33.901 -15.874 -24.609  0.00  0.00    -0.001 C 
ATOM     24  C   UNL     1      35.043 -17.305 -23.034  0.00  0.00    +0.139 C 
ATOM     25  C   UNL     1      35.119 -16.248 -22.127  0.00  0.00    +0.037 C 
ATOM     26  C   UNL     1      34.434 -17.118 -24.274  0.00  0.00    +0.037 C 
BRANCH  21  27
ATOM     27  C   UNL     1      33.400 -13.471 -24.062  0.00  0.00    +0.047 C 
BRANCH  27  32
ATOM     28  S   UNL     1      32.352 -12.281 -21.810  0.00  0.00    -0.048 S 
ATOM     29  O   UNL     1      34.661 -10.786 -24.517  0.00  0.00    -0.274 OA
ATOM     30  O   UNL     1      31.283  -9.901 -21.495  0.00  0.00    -0.263 OA
ATOM     31  N   UNL     1      32.984 -10.145 -23.058  0.00  0.00    -0.246 N 
ATOM     32  C   UNL     1      33.712 -12.421 -23.011  0.00  0.00    +0.137 C 
ATOM     33  C   UNL     1      33.858 -11.047 -23.627  0.00  0.00    +0.239 C 
ATOM     34  C   UNL     1      32.114 -10.570 -22.090  0.00  0.00    +0.279 C 
ATOM     35  H   UNL     1      32.986  -9.203 -23.346  0.00  0.00    +0.158 HD
ENDBRANCH  27  32
ENDBRANCH  21  27
ENDBRANCH  20  24
ENDBRANCH  19  20
ENDBRANCH   1  19
TORSDOF 9
ENDMDL
MODEL 7
REMARK VINA RESULT:     -11.2      4.127     12.797
REMARK  Name = 9826451
REMARK  9 active torsions:
REMARK  status: ('A' for Active; 'I' for Inactive)
REMARK    1  A    between atoms: C_1  and  N_2
REMARK    2  A    between atoms: C_1  and  C_19
REMARK    3  A    between atoms: C_8  and  O_10
REMARK    4  A    between atoms: O_10  and  C_11
REMARK    5  A    between atoms: C_14  and  O_17
REMARK    6  A    between atoms: C_19  and  O_20
REMARK    7  A    between atoms: O_20  and  C_24
REMARK    8  A    between atoms: C_21  and  C_27
REMARK    9  A    between atoms: C_27  and  C_32
REMARK                            x       y       z     vdW  Elec       q    Type
REMARK                         _______ _______ _______ _____ _____    ______ ____
ROOT
ATOM      1  C   UNL     1      35.314 -16.892 -21.291  0.00  0.00    +0.139 C 
ENDROOT
BRANCH   1   2
ATOM      2  N   UNL     1      34.972 -15.945 -22.326  0.00  0.00    -0.291 N 
ATOM      3  C   UNL     1      35.373 -16.240 -23.703  0.00  0.00    +0.113 C 
ATOM      4  N   UNL     1      33.926 -14.512 -20.757  0.00  0.00    -0.233 NA
ATOM      5  N   UNL     1      32.945 -12.442 -21.502  0.00  0.00    -0.214 NA
ATOM      6  C   UNL     1      34.285 -14.760 -22.035  0.00  0.00    +0.115 C 
ATOM      7  C   UNL     1      34.012 -13.908 -23.086  0.00  0.00    +0.146 C 
ATOM      8  C   UNL     1      33.333 -12.752 -22.756  0.00  0.00    +0.210 C 
ATOM      9  C   UNL     1      33.270 -13.353 -20.565  0.00  0.00    +0.254 C 
BRANCH   8  10
ATOM     10  O   UNL     1      33.024 -11.854 -23.744  0.00  0.00    -0.440 OA
BRANCH  10  11
ATOM     11  C   UNL     1      33.412 -10.543 -23.553  0.00  0.00    +0.147 C 
ATOM     12  C   UNL     1      32.602  -9.674 -22.823  0.00  0.00    +0.041 C 
ATOM     13  C   UNL     1      34.617 -10.087 -24.092  0.00  0.00    +0.041 C 
ATOM     14  C   UNL     1      34.198  -7.895 -23.169  0.00  0.00    +0.139 C 
ATOM     15  C   UNL     1      32.995  -8.350 -22.631  0.00  0.00    +0.040 C 
ATOM     16  C   UNL     1      35.010  -8.764 -23.899  0.00  0.00    +0.040 C 
BRANCH  14  17
ATOM     17  O   UNL     1      34.583  -6.602 -22.981  0.00  0.00    -0.471 OA
ATOM     18  C   UNL     1      34.588  -5.752 -24.126  0.00  0.00    +0.252 C 
ENDBRANCH  14  17
ENDBRANCH  10  11
ENDBRANCH   8  10
ENDBRANCH   1   2
BRANCH   1  19
ATOM     19  C   UNL     1      35.076 -18.310 -21.783  0.00  0.00    +0.227 C 
BRANCH  19  20
ATOM     20  O   UNL     1      35.891 -19.213 -21.039  0.00  0.00    -0.474 OA
BRANCH  20  24
ATOM     21  C   UNL     1      33.942 -22.056 -18.726  0.00  0.00    -0.021 C 
ATOM     22  C   UNL     1      33.203 -21.158 -19.496  0.00  0.00    -0.001 C 
ATOM     23  C   UNL     1      35.336 -21.998 -18.733  0.00  0.00    -0.001 C 
ATOM     24  C   UNL     1      35.251 -20.145 -20.280  0.00  0.00    +0.139 C 
ATOM     25  C   UNL     1      33.857 -20.202 -20.273  0.00  0.00    +0.037 C 
ATOM     26  C   UNL     1      35.990 -21.043 -19.509  0.00  0.00    +0.037 C 
BRANCH  21  27
ATOM     27  C   UNL     1      33.233 -23.088 -17.887  0.00  0.00    +0.047 C 
BRANCH  27  32
ATOM     28  S   UNL     1      33.831 -23.394 -15.216  0.00  0.00    -0.048 S 
ATOM     29  O   UNL     1      30.488 -22.417 -16.878  0.00  0.00    -0.274 OA
ATOM     30  O   UNL     1      32.465 -24.564 -13.299  0.00  0.00    -0.263 OA
ATOM     31  N   UNL     1      31.289 -23.523 -15.011  0.00  0.00    -0.246 N 
ATOM     32  C   UNL     1      32.873 -22.552 -16.513  0.00  0.00    +0.137 C 
ATOM     33  C   UNL     1      31.420 -22.808 -16.183  0.00  0.00    +0.239 C 
ATOM     34  C   UNL     1      32.412 -23.927 -14.340  0.00  0.00    +0.279 C 
ATOM     35  H   UNL     1      30.395 -23.741 -14.660  0.00  0.00    +0.158 HD
ENDBRANCH  27  32
ENDBRANCH  21  27
ENDBRANCH  20  24
ENDBRANCH  19  20
ENDBRANCH   1  19
TORSDOF 9
ENDMDL
MODEL 8
REMARK VINA RESULT:     -11.1      5.550     13.633
REMARK  Name = 9826451
REMARK  9 active torsions:
REMARK  status: ('A' for Active; 'I' for Inactive)
REMARK    1  A    between atoms: C_1  and  N_2
REMARK    2  A    between atoms: C_1  and  C_19
REMARK    3  A    between atoms: C_8  and  O_10
REMARK    4  A    between atoms: O_10  and  C_11
REMARK    5  A    between atoms: C_14  and  O_17
REMARK    6  A    between atoms: C_19  and  O_20
REMARK    7  A    between atoms: O_20  and  C_24
REMARK    8  A    between atoms: C_21  and  C_27
REMARK    9  A    between atoms: C_27  and  C_32
REMARK                            x       y       z     vdW  Elec       q    Type
REMARK                         _______ _______ _______ _____ _____    ______ ____
ROOT
ATOM      1  C   UNL     1      34.267 -21.314 -18.707  0.00  0.00    +0.139 C 
ENDROOT
BRANCH   1   2
ATOM      2  N   UNL     1      33.957 -20.548 -19.891  0.00  0.00    -0.291 N 
ATOM      3  C   UNL     1      32.582 -20.564 -20.395  0.00  0.00    +0.113 C 
ATOM      4  N   UNL     1      36.200 -19.811 -20.076  0.00  0.00    -0.233 NA
ATOM      5  N   UNL     1      36.833 -18.361 -21.893  0.00  0.00    -0.214 NA
ATOM      6  C   UNL     1      34.940 -19.810 -20.561  0.00  0.00    +0.115 C 
ATOM      7  C   UNL     1      34.556 -19.118 -21.692  0.00  0.00    +0.146 C 
ATOM      8  C   UNL     1      35.555 -18.404 -22.323  0.00  0.00    +0.210 C 
ATOM      9  C   UNL     1      37.082 -19.077 -20.781  0.00  0.00    +0.254 C 
BRANCH   8  10
ATOM     10  O   UNL     1      35.253 -17.689 -23.453  0.00  0.00    -0.440 OA
BRANCH  10  11
ATOM     11  C   UNL     1      34.788 -16.401 -23.284  0.00  0.00    +0.147 C 
ATOM     12  C   UNL     1      34.167 -15.738 -24.342  0.00  0.00    +0.041 C 
ATOM     13  C   UNL     1      34.938 -15.761 -22.052  0.00  0.00    +0.041 C 
ATOM     14  C   UNL     1      33.847 -13.797 -22.940  0.00  0.00    +0.139 C 
ATOM     15  C   UNL     1      33.697 -14.436 -24.170  0.00  0.00    +0.040 C 
ATOM     16  C   UNL     1      34.467 -14.461 -21.880  0.00  0.00    +0.040 C 
BRANCH  14  17
ATOM     17  O   UNL     1      33.387 -12.527 -22.771  0.00  0.00    -0.471 OA
ATOM     18  C   UNL     1      33.726 -11.574 -23.777  0.00  0.00    +0.252 C 
ENDBRANCH  14  17
ENDBRANCH  10  11
ENDBRANCH   8  10
ENDBRANCH   1   2
BRANCH   1  19
ATOM     19  C   UNL     1      33.300 -22.478 -18.572  0.00  0.00    +0.227 C 
BRANCH  19  20
ATOM     20  O   UNL     1      32.579 -22.357 -17.347  0.00  0.00    -0.474 OA
BRANCH  20  24
ATOM     21  C   UNL     1      34.231 -24.157 -13.992  0.00  0.00    -0.021 C 
ATOM     22  C   UNL     1      34.900 -24.214 -15.215  0.00  0.00    -0.001 C 
ATOM     23  C   UNL     1      33.006 -23.496 -13.898  0.00  0.00    -0.001 C 
ATOM     24  C   UNL     1      33.121 -22.948 -16.248  0.00  0.00    +0.139 C 
ATOM     25  C   UNL     1      34.345 -23.610 -16.342  0.00  0.00    +0.037 C 
ATOM     26  C   UNL     1      32.451 -22.892 -15.025  0.00  0.00    +0.037 C 
BRANCH  21  27
ATOM     27  C   UNL     1      34.831 -24.811 -12.774  0.00  0.00    +0.047 C 
BRANCH  27  32
ATOM     28  S   UNL     1      36.882 -22.986 -12.541  0.00  0.00    -0.048 S 
ATOM     29  O   UNL     1      35.182 -25.118  -9.810  0.00  0.00    -0.274 OA
ATOM     30  O   UNL     1      39.117 -23.120 -11.166  0.00  0.00    -0.263 OA
ATOM     31  N   UNL     1      37.236 -24.180 -10.311  0.00  0.00    -0.246 N 
ATOM     32  C   UNL     1      35.420 -23.791 -11.816  0.00  0.00    +0.137 C 
ATOM     33  C   UNL     1      35.901 -24.445 -10.540  0.00  0.00    +0.239 C 
ATOM     34  C   UNL     1      37.939 -23.437 -11.221  0.00  0.00    +0.279 C 
ATOM     35  H   UNL     1      37.678 -24.524  -9.502  0.00  0.00    +0.158 HD
ENDBRANCH  27  32
ENDBRANCH  21  27
ENDBRANCH  20  24
ENDBRANCH  19  20
ENDBRANCH   1  19
TORSDOF 9
ENDMDL
MODEL 9
REMARK VINA RESULT:     -10.8      2.477      3.531
REMARK  Name = 9826451
REMARK  9 active torsions:
REMARK  status: ('A' for Active; 'I' for Inactive)
REMARK    1  A    between atoms: C_1  and  N_2
REMARK    2  A    between atoms: C_1  and  C_19
REMARK    3  A    between atoms: C_8  and  O_10
REMARK    4  A    between atoms: O_10  and  C_11
REMARK    5  A    between atoms: C_14  and  O_17
REMARK    6  A    between atoms: C_19  and  O_20
REMARK    7  A    between atoms: O_20  and  C_24
REMARK    8  A    between atoms: C_21  and  C_27
REMARK    9  A    between atoms: C_27  and  C_32
REMARK                            x       y       z     vdW  Elec       q    Type
REMARK                         _______ _______ _______ _____ _____    ______ ____
ROOT
ATOM      1  C   UNL     1      33.058 -12.427 -21.546  0.00  0.00    +0.139 C 
ENDROOT
BRANCH   1   2
ATOM      2  N   UNL     1      33.743 -13.697 -21.574  0.00  0.00    -0.291 N 
ATOM      3  C   UNL     1      34.288 -14.226 -20.323  0.00  0.00    +0.113 C 
ATOM      4  N   UNL     1      33.389 -13.906 -23.907  0.00  0.00    -0.233 NA
ATOM      5  N   UNL     1      34.229 -15.839 -25.073  0.00  0.00    -0.214 NA
ATOM      6  C   UNL     1      33.902 -14.415 -22.767  0.00  0.00    +0.115 C 
ATOM      7  C   UNL     1      34.582 -15.614 -22.702  0.00  0.00    +0.146 C 
ATOM      8  C   UNL     1      34.717 -16.290 -23.898  0.00  0.00    +0.210 C 
ATOM      9  C   UNL     1      33.587 -14.658 -25.005  0.00  0.00    +0.254 C 
BRANCH   8  10
ATOM     10  O   UNL     1      35.380 -17.489 -23.917  0.00  0.00    -0.440 OA
BRANCH  10  11
ATOM     11  C   UNL     1      35.324 -18.262 -22.775  0.00  0.00    +0.147 C 
ATOM     12  C   UNL     1      36.375 -18.233 -21.859  0.00  0.00    +0.041 C 
ATOM     13  C   UNL     1      34.213 -19.073 -22.536  0.00  0.00    +0.041 C 
ATOM     14  C   UNL     1      35.209 -19.825 -20.467  0.00  0.00    +0.139 C 
ATOM     15  C   UNL     1      36.319 -19.014 -20.706  0.00  0.00    +0.040 C 
ATOM     16  C   UNL     1      34.156 -19.854 -21.382  0.00  0.00    +0.040 C 
BRANCH  14  17
ATOM     17  O   UNL     1      35.152 -20.587 -19.341  0.00  0.00    -0.471 OA
ATOM     18  C   UNL     1      36.348 -21.262 -18.951  0.00  0.00    +0.252 C 
ENDBRANCH  14  17
ENDBRANCH  10  11
ENDBRANCH   8  10
ENDBRANCH   1   2
BRANCH   1  19
ATOM     19  C   UNL     1      32.176 -12.338 -20.311  0.00  0.00    +0.227 C 
BRANCH  19  20
ATOM     20  O   UNL     1      31.119 -11.411 -20.549  0.00  0.00    -0.474 OA
BRANCH  20  24
ATOM     21  C   UNL     1      32.185  -7.461 -21.245  0.00  0.00    -0.021 C 
ATOM     22  C   UNL     1      32.281  -7.993 -19.959  0.00  0.00    -0.001 C 
ATOM     23  C   UNL     1      31.731  -8.257 -22.297  0.00  0.00    -0.001 C 
ATOM     24  C   UNL     1      31.468 -10.116 -20.777  0.00  0.00    +0.139 C 
ATOM     25  C   UNL     1      31.922  -9.320 -19.725  0.00  0.00    +0.037 C 
ATOM     26  C   UNL     1      31.372  -9.584 -22.062  0.00  0.00    +0.037 C 
BRANCH  21  27
ATOM     27  C   UNL     1      32.573  -6.027 -21.498  0.00  0.00    +0.047 C 
BRANCH  27  32
ATOM     28  S   UNL     1      33.147  -5.305 -24.093  0.00  0.00    -0.048 S 
ATOM     29  O   UNL     1      30.539  -3.827 -21.663  0.00  0.00    -0.274 OA
ATOM     30  O   UNL     1      33.404  -2.921 -25.169  0.00  0.00    -0.263 OA
ATOM     31  N   UNL     1      31.898  -3.182 -23.420  0.00  0.00    -0.246 N 
ATOM     32  C   UNL     1      31.925  -5.477 -22.756  0.00  0.00    +0.137 C 
ATOM     33  C   UNL     1      31.365  -4.091 -22.530  0.00  0.00    +0.239 C 
ATOM     34  C   UNL     1      32.839  -3.598 -24.324  0.00  0.00    +0.279 C 
ATOM     35  H   UNL     1      31.605  -2.242 -23.404  0.00  0.00    +0.158 HD
ENDBRANCH  27  32
ENDBRANCH  21  27
ENDBRANCH  20  24
ENDBRANCH  19  20
ENDBRANCH   1  19
TORSDOF 9
ENDMDL
