MODEL 1
REMARK VINA RESULT:     -12.2      0.000      0.000
REMARK  Name = 9999276
REMARK  5 active torsions:
REMARK  status: ('A' for Active; 'I' for Inactive)
REMARK    1  A    between atoms: C_3  and  C_11
REMARK    2  A    between atoms: C_6  and  C_20
REMARK    3  A    between atoms: C_14  and  N_19
REMARK    4  A    between atoms: C_25  and  C_27
REMARK    5  A    between atoms: C_27  and  O_28
REMARK                            x       y       z     vdW  Elec       q    Type
REMARK                         _______ _______ _______ _____ _____    ______ ____
ROOT
ATOM      1  N   UNL     1      34.642 -22.966 -16.187  0.00  0.00    -0.400 NA
ATOM      2  N   UNL     1      32.833 -24.739 -13.559  0.00  0.00    -0.242 NA
ATOM      3  C   UNL     1      34.331 -23.677 -15.078  0.00  0.00    +0.149 C 
ATOM      4  C   UNL     1      33.051 -24.027 -14.682  0.00  0.00    +0.107 C 
ATOM      5  C   UNL     1      32.004 -23.599 -15.516  0.00  0.00    +0.005 C 
ATOM      6  C   UNL     1      33.609 -22.576 -16.959  0.00  0.00    +0.131 C 
ATOM      7  C   UNL     1      32.285 -22.862 -16.673  0.00  0.00    +0.030 C 
ATOM      8  C   UNL     1      30.693 -23.934 -15.151  0.00  0.00    +0.056 C 
ATOM      9  C   UNL     1      30.458 -24.668 -13.996  0.00  0.00    -0.001 C 
ATOM     10  C   UNL     1      31.553 -25.043 -13.241  0.00  0.00    +0.095 C 
ENDROOT
BRANCH   3  11
ATOM     11  C   UNL     1      35.493 -24.060 -14.302  0.00  0.00    +0.033 C 
ATOM     12  C   UNL     1      35.915 -23.262 -13.241  0.00  0.00    +0.027 C 
ATOM     13  C   UNL     1      36.186 -25.228 -14.619  0.00  0.00    +0.003 C 
ATOM     14  C   UNL     1      37.034 -23.631 -12.494  0.00  0.00    +0.143 C 
ATOM     15  C   UNL     1      37.305 -25.598 -13.872  0.00  0.00    +0.002 C 
ATOM     16  C   UNL     1      37.729 -24.799 -12.810  0.00  0.00    +0.024 C 
BRANCH  14  19
ATOM     17  O   UNL     1      38.249 -21.869 -11.649  0.00  0.00    -0.126 OA
ATOM     18  O   UNL     1      37.049 -23.078 -10.260  0.00  0.00    -0.126 OA
ATOM     19  N   UNL     1      37.466 -22.819 -11.412  0.00  0.00    +0.058 N 
ENDBRANCH  14  19
ENDBRANCH   3  11
BRANCH   6  20
ATOM     20  C   UNL     1      33.972 -21.820 -18.133  0.00  0.00    +0.030 C 
ATOM     21  C   UNL     1      35.314 -21.691 -18.498  0.00  0.00    +0.003 C 
ATOM     22  C   UNL     1      32.982 -21.212 -18.909  0.00  0.00    +0.003 C 
ATOM     23  C   UNL     1      35.665 -20.961 -19.633  0.00  0.00    +0.007 C 
ATOM     24  C   UNL     1      33.333 -20.481 -20.045  0.00  0.00    +0.007 C 
ATOM     25  C   UNL     1      34.673 -20.356 -20.406  0.00  0.00    +0.075 C 
BRANCH  25  27
ATOM     26  O   UNL     1      34.347 -19.476 -22.607  0.00  0.00    -0.245 OA
ATOM     27  C   UNL     1      35.038 -19.593 -21.590  0.00  0.00    +0.338 C 
BRANCH  27  28
ATOM     28  O   UNL     1      36.256 -18.997 -21.470  0.00  0.00    -0.477 OA
ATOM     29  H   UNL     1      36.526 -18.642 -20.646  0.00  0.00    +0.295 HD
ENDBRANCH  27  28
ENDBRANCH  25  27
ENDBRANCH   6  20
TORSDOF 5
ENDMDL
MODEL 2
REMARK VINA RESULT:     -11.6      1.924      2.155
REMARK  Name = 9999276
REMARK  5 active torsions:
REMARK  status: ('A' for Active; 'I' for Inactive)
REMARK    1  A    between atoms: C_3  and  C_11
REMARK    2  A    between atoms: C_6  and  C_20
REMARK    3  A    between atoms: C_14  and  N_19
REMARK    4  A    between atoms: C_25  and  C_27
REMARK    5  A    between atoms: C_27  and  O_28
REMARK                            x       y       z     vdW  Elec       q    Type
REMARK                         _______ _______ _______ _____ _____    ______ ____
ROOT
ATOM      1  N   UNL     1      34.530 -22.910 -16.446  0.00  0.00    -0.400 NA
ATOM      2  N   UNL     1      32.691 -24.659 -13.822  0.00  0.00    -0.242 NA
ATOM      3  C   UNL     1      34.208 -23.627 -15.344  0.00  0.00    +0.149 C 
ATOM      4  C   UNL     1      32.920 -23.937 -14.936  0.00  0.00    +0.107 C 
ATOM      5  C   UNL     1      31.879 -23.458 -15.750  0.00  0.00    +0.005 C 
ATOM      6  C   UNL     1      33.501 -22.471 -17.198  0.00  0.00    +0.131 C 
ATOM      7  C   UNL     1      32.172 -22.713 -16.899  0.00  0.00    +0.030 C 
ATOM      8  C   UNL     1      30.562 -23.751 -15.372  0.00  0.00    +0.056 C 
ATOM      9  C   UNL     1      30.316 -24.494 -14.225  0.00  0.00    -0.001 C 
ATOM     10  C   UNL     1      31.405 -24.921 -13.491  0.00  0.00    +0.095 C 
ENDROOT
BRANCH   3  11
ATOM     11  C   UNL     1      35.364 -24.065 -14.590  0.00  0.00    +0.033 C 
ATOM     12  C   UNL     1      35.788 -25.390 -14.672  0.00  0.00    +0.027 C 
ATOM     13  C   UNL     1      36.051 -23.158 -13.782  0.00  0.00    +0.003 C 
ATOM     14  C   UNL     1      36.902 -25.811 -13.945  0.00  0.00    +0.143 C 
ATOM     15  C   UNL     1      37.165 -23.579 -13.056  0.00  0.00    +0.002 C 
ATOM     16  C   UNL     1      37.590 -24.906 -13.136  0.00  0.00    +0.024 C 
BRANCH  14  19
ATOM     17  O   UNL     1      38.277 -27.537 -13.291  0.00  0.00    -0.126 OA
ATOM     18  O   UNL     1      36.760 -27.930 -14.832  0.00  0.00    -0.126 OA
ATOM     19  N   UNL     1      37.334 -27.161 -14.028  0.00  0.00    +0.058 N 
ENDBRANCH  14  19
ENDBRANCH   3  11
BRANCH   6  20
ATOM     20  C   UNL     1      33.877 -21.710 -18.365  0.00  0.00    +0.030 C 
ATOM     21  C   UNL     1      35.221 -21.592 -18.724  0.00  0.00    +0.003 C 
ATOM     22  C   UNL     1      32.896 -21.086 -19.139  0.00  0.00    +0.003 C 
ATOM     23  C   UNL     1      35.584 -20.857 -19.853  0.00  0.00    +0.007 C 
ATOM     24  C   UNL     1      33.258 -20.350 -20.269  0.00  0.00    +0.007 C 
ATOM     25  C   UNL     1      34.601 -20.236 -20.624  0.00  0.00    +0.075 C 
BRANCH  25  27
ATOM     26  O   UNL     1      34.322 -19.390 -22.846  0.00  0.00    -0.245 OA
ATOM     27  C   UNL     1      34.978 -19.468 -21.801  0.00  0.00    +0.338 C 
BRANCH  27  28
ATOM     28  O   UNL     1      36.162 -18.817 -21.641  0.00  0.00    -0.477 OA
ATOM     29  H   UNL     1      36.910 -19.070 -22.147  0.00  0.00    +0.295 HD
ENDBRANCH  27  28
ENDBRANCH  25  27
ENDBRANCH   6  20
TORSDOF 5
ENDMDL
MODEL 3
REMARK VINA RESULT:     -11.4      3.330      5.404
REMARK  Name = 9999276
REMARK  5 active torsions:
REMARK  status: ('A' for Active; 'I' for Inactive)
REMARK    1  A    between atoms: C_3  and  C_11
REMARK    2  A    between atoms: C_6  and  C_20
REMARK    3  A    between atoms: C_14  and  N_19
REMARK    4  A    between atoms: C_25  and  C_27
REMARK    5  A    between atoms: C_27  and  O_28
REMARK                            x       y       z     vdW  Elec       q    Type
REMARK                         _______ _______ _______ _____ _____    ______ ____
ROOT
ATOM      1  N   UNL     1      33.002 -22.529 -16.980  0.00  0.00    -0.400 NA
ATOM      2  N   UNL     1      33.787 -24.296 -13.884  0.00  0.00    -0.242 NA
ATOM      3  C   UNL     1      32.908 -23.227 -15.823  0.00  0.00    +0.149 C 
ATOM      4  C   UNL     1      33.974 -23.601 -15.022  0.00  0.00    +0.107 C 
ATOM      5  C   UNL     1      35.250 -23.213 -15.466  0.00  0.00    +0.005 C 
ATOM      6  C   UNL     1      34.243 -22.177 -17.368  0.00  0.00    +0.131 C 
ATOM      7  C   UNL     1      35.389 -22.489 -16.657  0.00  0.00    +0.030 C 
ATOM      8  C   UNL     1      36.355 -23.571 -14.683  0.00  0.00    +0.056 C 
ATOM      9  C   UNL     1      36.173 -24.288 -13.508  0.00  0.00    -0.001 C 
ATOM     10  C   UNL     1      34.881 -24.623 -13.156  0.00  0.00    +0.095 C 
ENDROOT
BRANCH   3  11
ATOM     11  C   UNL     1      31.544 -23.568 -15.473  0.00  0.00    +0.033 C 
ATOM     12  C   UNL     1      30.484 -23.037 -16.205  0.00  0.00    +0.027 C 
ATOM     13  C   UNL     1      31.295 -24.425 -14.401  0.00  0.00    +0.003 C 
ATOM     14  C   UNL     1      29.171 -23.365 -15.867  0.00  0.00    +0.143 C 
ATOM     15  C   UNL     1      29.983 -24.754 -14.063  0.00  0.00    +0.002 C 
ATOM     16  C   UNL     1      28.920 -24.223 -14.795  0.00  0.00    +0.024 C 
BRANCH  14  19
ATOM     17  O   UNL     1      27.594 -23.512 -17.537  0.00  0.00    -0.126 OA
ATOM     18  O   UNL     1      27.666 -21.683 -16.319  0.00  0.00    -0.126 OA
ATOM     19  N   UNL     1      28.089 -22.826 -16.612  0.00  0.00    +0.058 N 
ENDBRANCH  14  19
ENDBRANCH   3  11
BRANCH   6  20
ATOM     20  C   UNL     1      34.311 -21.435 -18.604  0.00  0.00    +0.030 C 
ATOM     21  C   UNL     1      33.139 -21.014 -19.236  0.00  0.00    +0.003 C 
ATOM     22  C   UNL     1      35.551 -21.137 -19.174  0.00  0.00    +0.003 C 
ATOM     23  C   UNL     1      33.205 -20.296 -20.430  0.00  0.00    +0.007 C 
ATOM     24  C   UNL     1      35.617 -20.419 -20.370  0.00  0.00    +0.007 C 
ATOM     25  C   UNL     1      34.445 -20.000 -20.996  0.00  0.00    +0.075 C 
BRANCH  25  27
ATOM     26  O   UNL     1      33.634 -19.218 -23.108  0.00  0.00    -0.245 OA
ATOM     27  C   UNL     1      34.515 -19.252 -22.242  0.00  0.00    +0.338 C 
BRANCH  27  28
ATOM     28  O   UNL     1      35.684 -18.566 -22.373  0.00  0.00    -0.477 OA
ATOM     29  H   UNL     1      35.730 -17.665 -22.119  0.00  0.00    +0.295 HD
ENDBRANCH  27  28
ENDBRANCH  25  27
ENDBRANCH   6  20
TORSDOF 5
ENDMDL
MODEL 4
REMARK VINA RESULT:     -11.0      1.406      1.575
REMARK  Name = 9999276
REMARK  5 active torsions:
REMARK  status: ('A' for Active; 'I' for Inactive)
REMARK    1  A    between atoms: C_3  and  C_11
REMARK    2  A    between atoms: C_6  and  C_20
REMARK    3  A    between atoms: C_14  and  N_19
REMARK    4  A    between atoms: C_25  and  C_27
REMARK    5  A    between atoms: C_27  and  O_28
REMARK                            x       y       z     vdW  Elec       q    Type
REMARK                         _______ _______ _______ _____ _____    ______ ____
ROOT
ATOM      1  N   UNL     1      34.867 -22.783 -16.582  0.00  0.00    -0.400 NA
ATOM      2  N   UNL     1      33.248 -24.557 -13.833  0.00  0.00    -0.242 NA
ATOM      3  C   UNL     1      34.635 -23.498 -15.456  0.00  0.00    +0.149 C 
ATOM      4  C   UNL     1      33.386 -23.839 -14.965  0.00  0.00    +0.107 C 
ATOM      5  C   UNL     1      32.282 -23.396 -15.713  0.00  0.00    +0.005 C 
ATOM      6  C   UNL     1      33.781 -22.378 -17.269  0.00  0.00    +0.131 C 
ATOM      7  C   UNL     1      32.481 -22.653 -16.884  0.00  0.00    +0.030 C 
ATOM      8  C   UNL     1      31.000 -23.720 -15.250  0.00  0.00    +0.056 C 
ATOM      9  C   UNL     1      30.848 -24.459 -14.084  0.00  0.00    -0.001 C 
ATOM     10  C   UNL     1      31.994 -24.850 -13.419  0.00  0.00    +0.095 C 
ENDROOT
BRANCH   3  11
ATOM     11  C   UNL     1      35.850 -23.898 -14.775  0.00  0.00    +0.033 C 
ATOM     12  C   UNL     1      35.788 -24.803 -13.716  0.00  0.00    +0.027 C 
ATOM     13  C   UNL     1      37.078 -23.376 -15.179  0.00  0.00    +0.003 C 
ATOM     14  C   UNL     1      36.957 -25.188 -13.061  0.00  0.00    +0.143 C 
ATOM     15  C   UNL     1      38.247 -23.761 -14.523  0.00  0.00    +0.002 C 
ATOM     16  C   UNL     1      38.187 -24.666 -13.463  0.00  0.00    +0.024 C 
BRANCH  14  19
ATOM     17  O   UNL     1      37.166 -27.314 -12.203  0.00  0.00    -0.126 OA
ATOM     18  O   UNL     1      36.575 -25.688 -10.846  0.00  0.00    -0.126 OA
ATOM     19  N   UNL     1      36.896 -26.109 -11.982  0.00  0.00    +0.058 N 
ENDBRANCH  14  19
ENDBRANCH   3  11
BRANCH   6  20
ATOM     20  C   UNL     1      34.060 -21.617 -18.464  0.00  0.00    +0.030 C 
ATOM     21  C   UNL     1      35.379 -21.427 -18.883  0.00  0.00    +0.003 C 
ATOM     22  C   UNL     1      33.011 -21.067 -19.204  0.00  0.00    +0.003 C 
ATOM     23  C   UNL     1      35.648 -20.692 -20.037  0.00  0.00    +0.007 C 
ATOM     24  C   UNL     1      33.281 -20.332 -20.360  0.00  0.00    +0.007 C 
ATOM     25  C   UNL     1      34.598 -20.144 -20.775  0.00  0.00    +0.075 C 
BRANCH  25  27
ATOM     26  O   UNL     1      34.181 -19.367 -23.000  0.00  0.00    -0.245 OA
ATOM     27  C   UNL     1      34.878 -19.377 -21.979  0.00  0.00    +0.338 C 
BRANCH  27  28
ATOM     28  O   UNL     1      36.019 -18.643 -21.875  0.00  0.00    -0.477 OA
ATOM     29  H   UNL     1      35.983 -17.760 -21.564  0.00  0.00    +0.295 HD
ENDBRANCH  27  28
ENDBRANCH  25  27
ENDBRANCH   6  20
TORSDOF 5
ENDMDL
MODEL 5
REMARK VINA RESULT:     -10.0      2.199      4.550
REMARK  Name = 9999276
REMARK  5 active torsions:
REMARK  status: ('A' for Active; 'I' for Inactive)
REMARK    1  A    between atoms: C_3  and  C_11
REMARK    2  A    between atoms: C_6  and  C_20
REMARK    3  A    between atoms: C_14  and  N_19
REMARK    4  A    between atoms: C_25  and  C_27
REMARK    5  A    between atoms: C_27  and  O_28
REMARK                            x       y       z     vdW  Elec       q    Type
REMARK                         _______ _______ _______ _____ _____    ______ ____
ROOT
ATOM      1  N   UNL     1      34.290 -21.856 -17.728  0.00  0.00    -0.400 NA
ATOM      2  N   UNL     1      35.641 -23.550 -14.790  0.00  0.00    -0.242 NA
ATOM      3  C   UNL     1      34.415 -22.556 -16.576  0.00  0.00    +0.149 C 
ATOM      4  C   UNL     1      35.610 -22.845 -15.938  0.00  0.00    +0.107 C 
ATOM      5  C   UNL     1      36.776 -22.361 -16.555  0.00  0.00    +0.005 C 
ATOM      6  C   UNL     1      35.433 -21.410 -18.286  0.00  0.00    +0.131 C 
ATOM      7  C   UNL     1      36.688 -21.632 -17.748  0.00  0.00    +0.030 C 
ATOM      8  C   UNL     1      38.006 -22.632 -15.940  0.00  0.00    +0.056 C 
ATOM      9  C   UNL     1      38.048 -23.358 -14.757  0.00  0.00    -0.001 C 
ATOM     10  C   UNL     1      36.848 -23.790 -14.228  0.00  0.00    +0.095 C 
ENDROOT
BRANCH   3  11
ATOM     11  C   UNL     1      33.145 -22.999 -16.038  0.00  0.00    +0.033 C 
ATOM     12  C   UNL     1      33.080 -23.518 -14.746  0.00  0.00    +0.027 C 
ATOM     13  C   UNL     1      31.990 -22.906 -16.814  0.00  0.00    +0.003 C 
ATOM     14  C   UNL     1      31.857 -23.944 -14.228  0.00  0.00    +0.143 C 
ATOM     15  C   UNL     1      30.767 -23.333 -16.296  0.00  0.00    +0.002 C 
ATOM     16  C   UNL     1      30.701 -23.853 -15.004  0.00  0.00    +0.024 C 
BRANCH  14  19
ATOM     17  O   UNL     1      30.670 -24.554 -12.353  0.00  0.00    -0.126 OA
ATOM     18  O   UNL     1      32.849 -24.842 -12.355  0.00  0.00    -0.126 OA
ATOM     19  N   UNL     1      31.789 -24.473 -12.912  0.00  0.00    +0.058 N 
ENDBRANCH  14  19
ENDBRANCH   3  11
BRANCH   6  20
ATOM     20  C   UNL     1      35.268 -20.669 -19.513  0.00  0.00    +0.030 C 
ATOM     21  C   UNL     1      36.374 -20.088 -20.138  0.00  0.00    +0.003 C 
ATOM     22  C   UNL     1      33.998 -20.527 -20.079  0.00  0.00    +0.003 C 
ATOM     23  C   UNL     1      36.213 -19.373 -21.324  0.00  0.00    +0.007 C 
ATOM     24  C   UNL     1      33.838 -19.811 -21.266  0.00  0.00    +0.007 C 
ATOM     25  C   UNL     1      34.944 -19.234 -21.887  0.00  0.00    +0.075 C 
BRANCH  25  27
ATOM     26  O   UNL     1      33.995 -18.779 -24.037  0.00  0.00    -0.245 OA
ATOM     27  C   UNL     1      34.775 -18.487 -23.124  0.00  0.00    +0.338 C 
BRANCH  27  28
ATOM     28  O   UNL     1      35.584 -17.394 -23.187  0.00  0.00    -0.477 OA
ATOM     29  H   UNL     1      36.438 -17.463 -23.566  0.00  0.00    +0.295 HD
ENDBRANCH  27  28
ENDBRANCH  25  27
ENDBRANCH   6  20
TORSDOF 5
ENDMDL
MODEL 6
REMARK VINA RESULT:      -9.5      2.113      7.070
REMARK  Name = 9999276
REMARK  5 active torsions:
REMARK  status: ('A' for Active; 'I' for Inactive)
REMARK    1  A    between atoms: C_3  and  C_11
REMARK    2  A    between atoms: C_6  and  C_20
REMARK    3  A    between atoms: C_14  and  N_19
REMARK    4  A    between atoms: C_25  and  C_27
REMARK    5  A    between atoms: C_27  and  O_28
REMARK                            x       y       z     vdW  Elec       q    Type
REMARK                         _______ _______ _______ _____ _____    ______ ____
ROOT
ATOM      1  N   UNL     1      34.712 -23.063 -16.560  0.00  0.00    -0.400 NA
ATOM      2  N   UNL     1      31.130 -22.427 -16.858  0.00  0.00    -0.242 NA
ATOM      3  C   UNL     1      33.501 -22.627 -16.982  0.00  0.00    +0.149 C 
ATOM      4  C   UNL     1      32.291 -22.905 -16.368  0.00  0.00    +0.107 C 
ATOM      5  C   UNL     1      32.348 -23.707 -15.216  0.00  0.00    +0.005 C 
ATOM      6  C   UNL     1      34.721 -23.828 -15.451  0.00  0.00    +0.131 C 
ATOM      7  C   UNL     1      33.582 -24.177 -14.748  0.00  0.00    +0.030 C 
ATOM      8  C   UNL     1      31.144 -24.010 -14.566  0.00  0.00    +0.056 C 
ATOM      9  C   UNL     1      29.943 -23.522 -15.062  0.00  0.00    -0.001 C 
ATOM     10  C   UNL     1      29.989 -22.742 -16.201  0.00  0.00    +0.095 C 
ENDROOT
BRANCH   3  11
ATOM     11  C   UNL     1      33.573 -21.811 -18.176  0.00  0.00    +0.033 C 
ATOM     12  C   UNL     1      34.800 -21.302 -18.599  0.00  0.00    +0.027 C 
ATOM     13  C   UNL     1      32.414 -21.535 -18.900  0.00  0.00    +0.003 C 
ATOM     14  C   UNL     1      34.868 -20.516 -19.749  0.00  0.00    +0.143 C 
ATOM     15  C   UNL     1      32.482 -20.749 -20.051  0.00  0.00    +0.002 C 
ATOM     16  C   UNL     1      33.709 -20.238 -20.474  0.00  0.00    +0.024 C 
BRANCH  14  19
ATOM     17  O   UNL     1      37.119 -20.144 -19.441  0.00  0.00    -0.126 OA
ATOM     18  O   UNL     1      36.177 -19.411 -21.286  0.00  0.00    -0.126 OA
ATOM     19  N   UNL     1      36.118 -19.997 -20.181  0.00  0.00    +0.058 N 
ENDBRANCH  14  19
ENDBRANCH   3  11
BRANCH   6  20
ATOM     20  C   UNL     1      36.026 -24.278 -15.028  0.00  0.00    +0.030 C 
ATOM     21  C   UNL     1      36.199 -25.577 -14.546  0.00  0.00    +0.003 C 
ATOM     22  C   UNL     1      37.121 -23.413 -15.098  0.00  0.00    +0.003 C 
ATOM     23  C   UNL     1      37.460 -26.011 -14.139  0.00  0.00    +0.007 C 
ATOM     24  C   UNL     1      38.383 -23.847 -14.689  0.00  0.00    +0.007 C 
ATOM     25  C   UNL     1      38.552 -25.145 -14.210  0.00  0.00    +0.075 C 
BRANCH  25  27
ATOM     26  O   UNL     1      40.715 -24.899 -13.218  0.00  0.00    -0.245 OA
ATOM     27  C   UNL     1      39.867 -25.597 -13.784  0.00  0.00    +0.338 C 
BRANCH  27  28
ATOM     28  O   UNL     1      40.088 -26.908 -14.076  0.00  0.00    -0.477 OA
ATOM     29  H   UNL     1      39.365 -27.475 -14.264  0.00  0.00    +0.295 HD
ENDBRANCH  27  28
ENDBRANCH  25  27
ENDBRANCH   6  20
TORSDOF 5
ENDMDL
MODEL 7
REMARK VINA RESULT:      -9.2      3.523      5.505
REMARK  Name = 9999276
REMARK  5 active torsions:
REMARK  status: ('A' for Active; 'I' for Inactive)
REMARK    1  A    between atoms: C_3  and  C_11
REMARK    2  A    between atoms: C_6  and  C_20
REMARK    3  A    between atoms: C_14  and  N_19
REMARK    4  A    between atoms: C_25  and  C_27
REMARK    5  A    between atoms: C_27  and  O_28
REMARK                            x       y       z     vdW  Elec       q    Type
REMARK                         _______ _______ _______ _____ _____    ______ ____
ROOT
ATOM      1  N   UNL     1      34.135 -23.836 -14.561  0.00  0.00    -0.400 NA
ATOM      2  N   UNL     1      37.649 -23.056 -15.172  0.00  0.00    -0.242 NA
ATOM      3  C   UNL     1      35.484 -23.758 -14.465  0.00  0.00    +0.149 C 
ATOM      4  C   UNL     1      36.313 -23.081 -15.345  0.00  0.00    +0.107 C 
ATOM      5  C   UNL     1      35.681 -22.429 -16.417  0.00  0.00    +0.005 C 
ATOM      6  C   UNL     1      33.570 -23.195 -15.603  0.00  0.00    +0.131 C 
ATOM      7  C   UNL     1      34.287 -22.486 -16.550  0.00  0.00    +0.030 C 
ATOM      8  C   UNL     1      36.484 -21.732 -17.329  0.00  0.00    +0.056 C 
ATOM      9  C   UNL     1      37.862 -21.700 -17.159  0.00  0.00    -0.001 C 
ATOM     10  C   UNL     1      38.390 -22.372 -16.075  0.00  0.00    +0.095 C 
ENDROOT
BRANCH   3  11
ATOM     11  C   UNL     1      36.016 -24.468 -13.321  0.00  0.00    +0.033 C 
ATOM     12  C   UNL     1      35.810 -23.971 -12.036  0.00  0.00    +0.027 C 
ATOM     13  C   UNL     1      36.736 -25.648 -13.508  0.00  0.00    +0.003 C 
ATOM     14  C   UNL     1      36.323 -24.655 -10.934  0.00  0.00    +0.143 C 
ATOM     15  C   UNL     1      37.249 -26.333 -12.406  0.00  0.00    +0.002 C 
ATOM     16  C   UNL     1      37.044 -25.836 -11.119  0.00  0.00    +0.024 C 
BRANCH  14  19
ATOM     17  O   UNL     1      35.315 -24.752  -8.866  0.00  0.00    -0.126 OA
ATOM     18  O   UNL     1      36.733 -23.121  -9.267  0.00  0.00    -0.126 OA
ATOM     19  N   UNL     1      36.113 -24.150  -9.623  0.00  0.00    +0.058 N 
ENDBRANCH  14  19
ENDBRANCH   3  11
BRANCH   6  20
ATOM     20  C   UNL     1      32.132 -23.298 -15.678  0.00  0.00    +0.030 C 
ATOM     21  C   UNL     1      31.438 -24.109 -14.778  0.00  0.00    +0.003 C 
ATOM     22  C   UNL     1      31.430 -22.586 -16.654  0.00  0.00    +0.003 C 
ATOM     23  C   UNL     1      30.049 -24.206 -14.850  0.00  0.00    +0.007 C 
ATOM     24  C   UNL     1      30.040 -22.684 -16.726  0.00  0.00    +0.007 C 
ATOM     25  C   UNL     1      29.350 -23.494 -15.825  0.00  0.00    +0.075 C 
BRANCH  25  27
ATOM     26  O   UNL     1      27.104 -23.090 -15.104  0.00  0.00    -0.245 OA
ATOM     27  C   UNL     1      27.901 -23.595 -15.902  0.00  0.00    +0.338 C 
BRANCH  27  28
ATOM     28  O   UNL     1      27.486 -24.324 -16.974  0.00  0.00    -0.477 OA
ATOM     29  H   UNL     1      27.871 -25.161 -17.150  0.00  0.00    +0.295 HD
ENDBRANCH  27  28
ENDBRANCH  25  27
ENDBRANCH   6  20
TORSDOF 5
ENDMDL
