MODEL 1
REMARK VINA RESULT:     -12.1      0.000      0.000
REMARK  Name = 24978486
REMARK  5 active torsions:
REMARK  status: ('A' for Active; 'I' for Inactive)
REMARK    1  A    between atoms: O_1  and  C_6
REMARK    2  A    between atoms: O_1  and  C_18
REMARK    3  A    between atoms: C_18  and  C_20
REMARK    4  A    between atoms: N_19  and  C_26
REMARK    5  A    between atoms: C_26  and  C_29
REMARK                            x       y       z     vdW  Elec       q    Type
REMARK                         _______ _______ _______ _____ _____    ______ ____
ROOT
ATOM      1  O   UNL     1      34.363 -19.308 -21.369  0.00  0.00    -0.479 OA
ENDROOT
BRANCH   1   6
ATOM      2  N   UNL     1      34.643 -22.429 -17.673  0.00  0.00    -0.332 NA
ATOM      3  N   UNL     1      32.472 -21.948 -18.602  0.00  0.00    -0.317 NA
ATOM      4  N   UNL     1      32.214 -20.464 -20.382  0.00  0.00    -0.335 N 
ATOM      5  N   UNL     1      32.710 -23.443 -16.814  0.00  0.00    -0.283 N 
ATOM      6  C   UNL     1      35.058 -20.019 -20.423  0.00  0.00    +0.130 C 
ATOM      7  C   UNL     1      34.450 -20.892 -19.504  0.00  0.00    +0.177 C 
ATOM      8  C   UNL     1      36.437 -19.839 -20.402  0.00  0.00    +0.033 C 
ATOM      9  C   UNL     1      35.215 -21.592 -18.556  0.00  0.00    +0.137 C 
ATOM     10  C   UNL     1      33.077 -21.118 -19.472  0.00  0.00    +0.181 C 
ATOM     11  C   UNL     1      37.206 -20.525 -19.468  0.00  0.00    +0.005 C 
ATOM     12  C   UNL     1      36.593 -21.392 -18.557  0.00  0.00    +0.030 C 
ATOM     13  C   UNL     1      33.303 -22.562 -17.744  0.00  0.00    +0.197 C 
ATOM     14  H   UNL     1      31.245 -20.632 -20.349  0.00  0.00    +0.144 HD
ATOM     15  H   UNL     1      32.583 -19.841 -21.049  0.00  0.00    +0.144 HD
ATOM     16  H   UNL     1      33.271 -23.921 -16.161  0.00  0.00    +0.156 HD
ATOM     17  H   UNL     1      31.735 -23.582 -16.819  0.00  0.00    +0.156 HD
ENDBRANCH   1   6
BRANCH   1  18
ATOM     18  C   UNL     1      34.932 -19.233 -22.664  0.00  0.00    +0.205 C 
BRANCH  18  20
ATOM     19  N   UNL     1      34.065 -15.034 -23.179  0.00  0.00    +0.390 N 
ATOM     20  C   UNL     1      35.123 -17.763 -23.026  0.00  0.00    +0.040 C 
ATOM     21  C   UNL     1      34.978 -16.868 -21.792  0.00  0.00    -0.019 C 
ATOM     22  C   UNL     1      34.122 -17.328 -24.102  0.00  0.00    -0.019 C 
ATOM     23  C   UNL     1      35.068 -15.386 -22.166  0.00  0.00    -0.077 C 
ATOM     24  C   UNL     1      34.241 -15.832 -24.399  0.00  0.00    -0.077 C 
ATOM     25  H   UNL     1      33.143 -15.244 -22.795  0.00  0.00    -0.079 HD
BRANCH  19  26
ATOM     26  C   UNL     1      34.129 -13.606 -23.487  0.00  0.00    -0.049 C 
BRANCH  26  29
ATOM     27 CL   UNL     1      33.529 -10.726 -24.279  0.00  0.00    -0.082 Cl
ATOM     28 CL   UNL     1      31.698  -9.099 -22.199  0.00  0.00    -0.081 Cl
ATOM     29  C   UNL     1      33.276 -12.790 -22.552  0.00  0.00    -0.032 C 
ATOM     30  C   UNL     1      32.943 -11.463 -22.823  0.00  0.00    +0.062 C 
ATOM     31  C   UNL     1      32.815 -13.401 -21.386  0.00  0.00    -0.005 C 
ATOM     32  C   UNL     1      32.149 -10.746 -21.927  0.00  0.00    +0.068 C 
ATOM     33  C   UNL     1      32.021 -12.685 -20.490  0.00  0.00    +0.001 C 
ATOM     34  C   UNL     1      31.688 -11.357 -20.761  0.00  0.00    +0.012 C 
ENDBRANCH  26  29
ENDBRANCH  19  26
ENDBRANCH  18  20
ENDBRANCH   1  18
TORSDOF 5
ENDMDL
MODEL 2
REMARK VINA RESULT:     -11.6      4.450     10.053
REMARK  Name = 24978486
REMARK  5 active torsions:
REMARK  status: ('A' for Active; 'I' for Inactive)
REMARK    1  A    between atoms: O_1  and  C_6
REMARK    2  A    between atoms: O_1  and  C_18
REMARK    3  A    between atoms: C_18  and  C_20
REMARK    4  A    between atoms: N_19  and  C_26
REMARK    5  A    between atoms: C_26  and  C_29
REMARK                            x       y       z     vdW  Elec       q    Type
REMARK                         _______ _______ _______ _____ _____    ______ ____
ROOT
ATOM      1  O   UNL     1      34.160 -12.688 -23.231  0.00  0.00    -0.479 OA
ENDROOT
BRANCH   1   6
ATOM      2  N   UNL     1      32.066  -8.440 -22.204  0.00  0.00    -0.332 NA
ATOM      3  N   UNL     1      33.899  -8.464 -23.768  0.00  0.00    -0.317 NA
ATOM      4  N   UNL     1      34.984 -10.447 -24.340  0.00  0.00    -0.335 N 
ATOM      5  N   UNL     1      32.823  -6.459 -23.208  0.00  0.00    -0.283 N 
ATOM      6  C   UNL     1      33.235 -11.909 -22.581  0.00  0.00    +0.130 C 
ATOM      7  C   UNL     1      33.137 -10.517 -22.746  0.00  0.00    +0.177 C 
ATOM      8  C   UNL     1      32.365 -12.570 -21.719  0.00  0.00    +0.033 C 
ATOM      9  C   UNL     1      32.169  -9.773 -22.053  0.00  0.00    +0.137 C 
ATOM     10  C   UNL     1      33.974  -9.796 -23.593  0.00  0.00    +0.181 C 
ATOM     11  C   UNL     1      31.403 -11.844 -21.026  0.00  0.00    +0.005 C 
ATOM     12  C   UNL     1      31.312 -10.459 -21.196  0.00  0.00    +0.030 C 
ATOM     13  C   UNL     1      32.937  -7.858 -23.053  0.00  0.00    +0.197 C 
ATOM     14  H   UNL     1      35.569  -9.926 -24.935  0.00  0.00    +0.144 HD
ATOM     15  H   UNL     1      35.100 -11.422 -24.264  0.00  0.00    +0.144 HD
ATOM     16  H   UNL     1      32.134  -5.964 -22.708  0.00  0.00    +0.156 HD
ATOM     17  H   UNL     1      33.431  -5.979 -23.816  0.00  0.00    +0.156 HD
ENDBRANCH   1   6
BRANCH   1  18
ATOM     18  C   UNL     1      33.673 -13.819 -23.928  0.00  0.00    +0.205 C 
BRANCH  18  20
ATOM     19  N   UNL     1      34.827 -17.698 -22.417  0.00  0.00    +0.390 N 
ATOM     20  C   UNL     1      34.547 -15.020 -23.577  0.00  0.00    +0.040 C 
ATOM     21  C   UNL     1      34.065 -16.283 -24.298  0.00  0.00    -0.019 C 
ATOM     22  C   UNL     1      34.567 -15.263 -22.064  0.00  0.00    -0.019 C 
ATOM     23  C   UNL     1      34.875 -17.510 -23.873  0.00  0.00    -0.077 C 
ATOM     24  C   UNL     1      35.360 -16.524 -21.714  0.00  0.00    -0.077 C 
ATOM     25  H   UNL     1      33.850 -17.811 -22.146  0.00  0.00    -0.079 HD
BRANCH  19  26
ATOM     26  C   UNL     1      35.562 -18.902 -22.033  0.00  0.00    -0.049 C 
BRANCH  26  29
ATOM     27 CL   UNL     1      37.193 -20.340 -19.899  0.00  0.00    -0.082 Cl
ATOM     28 CL   UNL     1      35.469 -22.042 -17.789  0.00  0.00    -0.081 Cl
ATOM     29  C   UNL     1      34.811 -19.717 -21.014  0.00  0.00    -0.032 C 
ATOM     30  C   UNL     1      35.463 -20.414 -19.997  0.00  0.00    +0.062 C 
ATOM     31  C   UNL     1      33.420 -19.764 -21.110  0.00  0.00    -0.005 C 
ATOM     32  C   UNL     1      34.725 -21.156 -19.075  0.00  0.00    +0.068 C 
ATOM     33  C   UNL     1      32.681 -20.505 -20.188  0.00  0.00    +0.001 C 
ATOM     34  C   UNL     1      33.334 -21.202 -19.170  0.00  0.00    +0.012 C 
ENDBRANCH  26  29
ENDBRANCH  19  26
ENDBRANCH  18  20
ENDBRANCH   1  18
TORSDOF 5
ENDMDL
MODEL 3
REMARK VINA RESULT:     -11.5      2.321      4.013
REMARK  Name = 24978486
REMARK  5 active torsions:
REMARK  status: ('A' for Active; 'I' for Inactive)
REMARK    1  A    between atoms: O_1  and  C_6
REMARK    2  A    between atoms: O_1  and  C_18
REMARK    3  A    between atoms: C_18  and  C_20
REMARK    4  A    between atoms: N_19  and  C_26
REMARK    5  A    between atoms: C_26  and  C_29
REMARK                            x       y       z     vdW  Elec       q    Type
REMARK                         _______ _______ _______ _____ _____    ______ ____
ROOT
ATOM      1  O   UNL     1      35.270 -22.070 -18.293  0.00  0.00    -0.479 OA
ENDROOT
BRANCH   1   6
ATOM      2  N   UNL     1      32.476 -23.584 -14.635  0.00  0.00    -0.332 NA
ATOM      3  N   UNL     1      31.434 -23.134 -16.761  0.00  0.00    -0.317 NA
ATOM      4  N   UNL     1      32.676 -22.401 -18.593  0.00  0.00    -0.335 N 
ATOM      5  N   UNL     1      30.167 -23.869 -14.932  0.00  0.00    -0.283 N 
ATOM      6  C   UNL     1      35.072 -22.480 -16.998  0.00  0.00    +0.130 C 
ATOM      7  C   UNL     1      33.815 -22.832 -16.478  0.00  0.00    +0.177 C 
ATOM      8  C   UNL     1      36.200 -22.534 -16.186  0.00  0.00    +0.033 C 
ATOM      9  C   UNL     1      33.674 -23.243 -15.142  0.00  0.00    +0.137 C 
ATOM     10  C   UNL     1      32.648 -22.800 -17.236  0.00  0.00    +0.181 C 
ATOM     11  C   UNL     1      36.074 -22.939 -14.862  0.00  0.00    +0.005 C 
ATOM     12  C   UNL     1      34.820 -23.289 -14.352  0.00  0.00    +0.030 C 
ATOM     13  C   UNL     1      31.421 -23.510 -15.471  0.00  0.00    +0.197 C 
ATOM     14  H   UNL     1      31.844 -22.383 -19.118  0.00  0.00    +0.144 HD
ATOM     15  H   UNL     1      33.529 -22.143 -19.011  0.00  0.00    +0.144 HD
ATOM     16  H   UNL     1      30.098 -24.154 -13.992  0.00  0.00    +0.156 HD
ATOM     17  H   UNL     1      29.360 -23.837 -15.496  0.00  0.00    +0.156 HD
ENDBRANCH   1   6
BRANCH   1  18
ATOM     18  C   UNL     1      36.453 -21.340 -18.562  0.00  0.00    +0.205 C 
BRANCH  18  20
ATOM     19  N   UNL     1      35.525 -18.216 -21.397  0.00  0.00    +0.390 N 
ATOM     20  C   UNL     1      36.284 -20.616 -19.896  0.00  0.00    +0.040 C 
ATOM     21  C   UNL     1      37.178 -19.374 -19.965  0.00  0.00    -0.019 C 
ATOM     22  C   UNL     1      34.823 -20.217 -20.124  0.00  0.00    -0.019 C 
ATOM     23  C   UNL     1      36.939 -18.588 -21.257  0.00  0.00    -0.077 C 
ATOM     24  C   UNL     1      34.663 -19.404 -21.410  0.00  0.00    -0.077 C 
ATOM     25  H   UNL     1      35.267 -17.648 -20.589  0.00  0.00    -0.079 HD
BRANCH  19  26
ATOM     26  C   UNL     1      35.323 -17.422 -22.609  0.00  0.00    -0.049 C 
BRANCH  26  29
ATOM     27 CL   UNL     1      34.520 -15.650 -24.953  0.00  0.00    -0.082 Cl
ATOM     28 CL   UNL     1      33.503 -12.711 -24.147  0.00  0.00    -0.081 Cl
ATOM     29  C   UNL     1      34.838 -16.032 -22.296  0.00  0.00    -0.032 C 
ATOM     30  C   UNL     1      34.447 -15.143 -23.296  0.00  0.00    +0.062 C 
ATOM     31  C   UNL     1      34.786 -15.643 -20.957  0.00  0.00    -0.005 C 
ATOM     32  C   UNL     1      34.003 -13.863 -22.958  0.00  0.00    +0.068 C 
ATOM     33  C   UNL     1      34.342 -14.364 -20.619  0.00  0.00    +0.001 C 
ATOM     34  C   UNL     1      33.951 -13.475 -21.620  0.00  0.00    +0.012 C 
ENDBRANCH  26  29
ENDBRANCH  19  26
ENDBRANCH  18  20
ENDBRANCH   1  18
TORSDOF 5
ENDMDL
MODEL 4
REMARK VINA RESULT:     -11.4      4.397      9.765
REMARK  Name = 24978486
REMARK  5 active torsions:
REMARK  status: ('A' for Active; 'I' for Inactive)
REMARK    1  A    between atoms: O_1  and  C_6
REMARK    2  A    between atoms: O_1  and  C_18
REMARK    3  A    between atoms: C_18  and  C_20
REMARK    4  A    between atoms: N_19  and  C_26
REMARK    5  A    between atoms: C_26  and  C_29
REMARK                            x       y       z     vdW  Elec       q    Type
REMARK                         _______ _______ _______ _____ _____    ______ ____
ROOT
ATOM      1  O   UNL     1      33.235 -12.984 -23.298  0.00  0.00    -0.479 OA
ENDROOT
BRANCH   1   6
ATOM      2  N   UNL     1      33.066  -8.258 -22.244  0.00  0.00    -0.332 NA
ATOM      3  N   UNL     1      31.759  -9.776 -20.904  0.00  0.00    -0.317 NA
ATOM      4  N   UNL     1      31.762 -12.071 -21.317  0.00  0.00    -0.335 N 
ATOM      5  N   UNL     1      31.743  -7.473 -20.472  0.00  0.00    -0.283 N 
ATOM      6  C   UNL     1      33.593 -11.675 -23.503  0.00  0.00    +0.130 C 
ATOM      7  C   UNL     1      33.115 -10.607 -22.724  0.00  0.00    +0.177 C 
ATOM      8  C   UNL     1      34.477 -11.432 -24.549  0.00  0.00    +0.033 C 
ATOM      9  C   UNL     1      33.517  -9.287 -22.984  0.00  0.00    +0.137 C 
ATOM     10  C   UNL     1      32.230 -10.783 -21.664  0.00  0.00    +0.181 C 
ATOM     11  C   UNL     1      34.882 -10.129 -24.817  0.00  0.00    +0.005 C 
ATOM     12  C   UNL     1      34.402  -9.071 -24.037  0.00  0.00    +0.030 C 
ATOM     13  C   UNL     1      32.212  -8.558 -21.245  0.00  0.00    +0.197 C 
ATOM     14  H   UNL     1      31.137 -12.182 -20.565  0.00  0.00    +0.144 HD
ATOM     15  H   UNL     1      32.063 -12.858 -21.827  0.00  0.00    +0.144 HD
ATOM     16  H   UNL     1      32.042  -6.558 -20.678  0.00  0.00    +0.156 HD
ATOM     17  H   UNL     1      31.118  -7.632 -19.728  0.00  0.00    +0.156 HD
ENDBRANCH   1   6
BRANCH   1  18
ATOM     18  C   UNL     1      33.378 -13.870 -24.394  0.00  0.00    +0.205 C 
BRANCH  18  20
ATOM     19  N   UNL     1      34.801 -17.520 -22.575  0.00  0.00    +0.390 N 
ATOM     20  C   UNL     1      34.324 -14.996 -23.988  0.00  0.00    +0.040 C 
ATOM     21  C   UNL     1      33.839 -16.345 -24.529  0.00  0.00    -0.019 C 
ATOM     22  C   UNL     1      34.471 -15.071 -22.465  0.00  0.00    -0.019 C 
ATOM     23  C   UNL     1      34.728 -17.492 -24.042  0.00  0.00    -0.077 C 
ATOM     24  C   UNL     1      35.339 -16.259 -22.047  0.00  0.00    -0.077 C 
ATOM     25  H   UNL     1      33.853 -17.633 -22.215  0.00  0.00    -0.079 HD
BRANCH  19  26
ATOM     26  C   UNL     1      35.611 -18.651 -22.125  0.00  0.00    -0.049 C 
BRANCH  26  29
ATOM     27 CL   UNL     1      37.236 -20.030 -19.948  0.00  0.00    -0.082 Cl
ATOM     28 CL   UNL     1      35.528 -21.854 -17.928  0.00  0.00    -0.081 Cl
ATOM     29  C   UNL     1      34.867 -19.520 -21.147  0.00  0.00    -0.032 C 
ATOM     30  C   UNL     1      35.518 -20.195 -20.114  0.00  0.00    +0.062 C 
ATOM     31  C   UNL     1      33.486 -19.641 -21.297  0.00  0.00    -0.005 C 
ATOM     32  C   UNL     1      34.786 -20.990 -19.231  0.00  0.00    +0.068 C 
ATOM     33  C   UNL     1      32.754 -20.435 -20.414  0.00  0.00    +0.001 C 
ATOM     34  C   UNL     1      33.405 -21.110 -19.381  0.00  0.00    +0.012 C 
ENDBRANCH  26  29
ENDBRANCH  19  26
ENDBRANCH  18  20
ENDBRANCH   1  18
TORSDOF 5
ENDMDL
MODEL 5
REMARK VINA RESULT:     -11.4      3.762      6.611
REMARK  Name = 24978486
REMARK  5 active torsions:
REMARK  status: ('A' for Active; 'I' for Inactive)
REMARK    1  A    between atoms: O_1  and  C_6
REMARK    2  A    between atoms: O_1  and  C_18
REMARK    3  A    between atoms: C_18  and  C_20
REMARK    4  A    between atoms: N_19  and  C_26
REMARK    5  A    between atoms: C_26  and  C_29
REMARK                            x       y       z     vdW  Elec       q    Type
REMARK                         _______ _______ _______ _____ _____    ______ ____
ROOT
ATOM      1  O   UNL     1      34.192 -23.408 -16.777  0.00  0.00    -0.479 OA
ENDROOT
BRANCH   1   6
ATOM      2  N   UNL     1      34.018 -24.112 -11.986  0.00  0.00    -0.332 NA
ATOM      3  N   UNL     1      36.163 -24.207 -13.080  0.00  0.00    -0.317 NA
ATOM      4  N   UNL     1      36.371 -23.884 -15.379  0.00  0.00    -0.335 N 
ATOM      5  N   UNL     1      35.977 -24.534 -10.767  0.00  0.00    -0.283 N 
ATOM      6  C   UNL     1      33.523 -23.506 -15.582  0.00  0.00    +0.130 C 
ATOM      7  C   UNL     1      34.158 -23.770 -14.356  0.00  0.00    +0.177 C 
ATOM      8  C   UNL     1      32.144 -23.332 -15.628  0.00  0.00    +0.033 C 
ATOM      9  C   UNL     1      33.420 -23.860 -13.165  0.00  0.00    +0.137 C 
ATOM     10  C   UNL     1      35.533 -23.954 -14.242  0.00  0.00    +0.181 C 
ATOM     11  C   UNL     1      31.402 -23.420 -14.455  0.00  0.00    +0.005 C 
ATOM     12  C   UNL     1      32.042 -23.682 -13.239  0.00  0.00    +0.030 C 
ATOM     13  C   UNL     1      35.357 -24.271 -12.008  0.00  0.00    +0.197 C 
ATOM     14  H   UNL     1      37.341 -24.015 -15.285  0.00  0.00    +0.144 HD
ATOM     15  H   UNL     1      35.982 -23.702 -16.266  0.00  0.00    +0.144 HD
ATOM     16  H   UNL     1      35.434 -24.592  -9.948  0.00  0.00    +0.156 HD
ATOM     17  H   UNL     1      36.953 -24.658 -10.720  0.00  0.00    +0.156 HD
ENDBRANCH   1   6
BRANCH   1  18
ATOM     18  C   UNL     1      33.444 -22.974 -17.899  0.00  0.00    +0.205 C 
BRANCH  18  20
ATOM     19  N   UNL     1      35.323 -20.168 -20.591  0.00  0.00    +0.390 N 
ATOM     20  C   UNL     1      34.058 -21.678 -18.420  0.00  0.00    +0.040 C 
ATOM     21  C   UNL     1      33.265 -21.134 -19.613  0.00  0.00    -0.019 C 
ATOM     22  C   UNL     1      35.522 -21.885 -18.821  0.00  0.00    -0.019 C 
ATOM     23  C   UNL     1      33.933 -19.890 -20.203  0.00  0.00    -0.077 C 
ATOM     24  C   UNL     1      36.114 -20.616 -19.437  0.00  0.00    -0.077 C 
ATOM     25  H   UNL     1      35.314 -20.921 -21.279  0.00  0.00    -0.079 HD
BRANCH  19  26
ATOM     26  C   UNL     1      35.930 -18.985 -21.200  0.00  0.00    -0.049 C 
BRANCH  26  29
ATOM     27 CL   UNL     1      35.384 -16.006 -21.537  0.00  0.00    -0.082 Cl
ATOM     28 CL   UNL     1      33.803 -15.211 -24.219  0.00  0.00    -0.081 Cl
ATOM     29  C   UNL     1      35.191 -18.548 -22.437  0.00  0.00    -0.032 C 
ATOM     30  C   UNL     1      34.892 -17.209 -22.686  0.00  0.00    +0.062 C 
ATOM     31  C   UNL     1      34.804 -19.530 -23.349  0.00  0.00    -0.005 C 
ATOM     32  C   UNL     1      34.206 -16.852 -23.847  0.00  0.00    +0.068 C 
ATOM     33  C   UNL     1      34.119 -19.173 -24.510  0.00  0.00    +0.001 C 
ATOM     34  C   UNL     1      33.819 -17.834 -24.758  0.00  0.00    +0.012 C 
ENDBRANCH  26  29
ENDBRANCH  19  26
ENDBRANCH  18  20
ENDBRANCH   1  18
TORSDOF 5
ENDMDL
MODEL 6
REMARK VINA RESULT:     -11.3      3.211      5.246
REMARK  Name = 24978486
REMARK  5 active torsions:
REMARK  status: ('A' for Active; 'I' for Inactive)
REMARK    1  A    between atoms: O_1  and  C_6
REMARK    2  A    between atoms: O_1  and  C_18
REMARK    3  A    between atoms: C_18  and  C_20
REMARK    4  A    between atoms: N_19  and  C_26
REMARK    5  A    between atoms: C_26  and  C_29
REMARK                            x       y       z     vdW  Elec       q    Type
REMARK                         _______ _______ _______ _____ _____    ______ ____
ROOT
ATOM      1  O   UNL     1      34.981 -22.405 -17.634  0.00  0.00    -0.479 OA
ENDROOT
BRANCH   1   6
ATOM      2  N   UNL     1      35.663 -23.566 -12.980  0.00  0.00    -0.332 NA
ATOM      3  N   UNL     1      37.571 -22.870 -14.277  0.00  0.00    -0.317 NA
ATOM      4  N   UNL     1      37.365 -22.287 -16.525  0.00  0.00    -0.335 N 
ATOM      5  N   UNL     1      37.800 -23.451 -12.019  0.00  0.00    -0.283 N 
ATOM      6  C   UNL     1      34.538 -22.821 -16.404  0.00  0.00    +0.130 C 
ATOM      7  C   UNL     1      35.378 -22.980 -15.288  0.00  0.00    +0.177 C 
ATOM      8  C   UNL     1      33.178 -23.092 -16.293  0.00  0.00    +0.033 C 
ATOM      9  C   UNL     1      34.867 -23.411 -14.053  0.00  0.00    +0.137 C 
ATOM     10  C   UNL     1      36.746 -22.725 -15.331  0.00  0.00    +0.181 C 
ATOM     11  C   UNL     1      32.660 -23.520 -15.076  0.00  0.00    +0.005 C 
ATOM     12  C   UNL     1      33.503 -23.675 -13.971  0.00  0.00    +0.030 C 
ATOM     13  C   UNL     1      36.971 -23.287 -13.150  0.00  0.00    +0.197 C 
ATOM     14  H   UNL     1      38.333 -22.110 -16.542  0.00  0.00    +0.144 HD
ATOM     15  H   UNL     1      36.826 -22.157 -17.339  0.00  0.00    +0.144 HD
ATOM     16  H   UNL     1      37.413 -23.754 -11.166  0.00  0.00    +0.156 HD
ATOM     17  H   UNL     1      38.764 -23.261 -12.082  0.00  0.00    +0.156 HD
ENDBRANCH   1   6
BRANCH   1  18
ATOM     18  C   UNL     1      34.019 -22.326 -18.671  0.00  0.00    +0.205 C 
BRANCH  18  20
ATOM     19  N   UNL     1      35.325 -18.807 -20.807  0.00  0.00    +0.390 N 
ATOM     20  C   UNL     1      34.581 -21.453 -19.790  0.00  0.00    +0.040 C 
ATOM     21  C   UNL     1      35.851 -20.727 -19.337  0.00  0.00    -0.019 C 
ATOM     22  C   UNL     1      33.542 -20.433 -20.266  0.00  0.00    -0.019 C 
ATOM     23  C   UNL     1      36.362 -19.773 -20.420  0.00  0.00    -0.077 C 
ATOM     24  C   UNL     1      34.129 -19.490 -21.318  0.00  0.00    -0.077 C 
ATOM     25  H   UNL     1      35.057 -18.282 -19.975  0.00  0.00    -0.079 HD
BRANCH  19  26
ATOM     26  C   UNL     1      35.845 -17.872 -21.804  0.00  0.00    -0.049 C 
BRANCH  26  29
ATOM     27 CL   UNL     1      35.032 -16.560 -24.431  0.00  0.00    -0.082 Cl
ATOM     28 CL   UNL     1      33.577 -13.711 -24.133  0.00  0.00    -0.081 Cl
ATOM     29  C   UNL     1      35.159 -16.534 -21.730  0.00  0.00    -0.032 C 
ATOM     30  C   UNL     1      34.747 -15.850 -22.875  0.00  0.00    +0.062 C 
ATOM     31  C   UNL     1      34.938 -15.980 -20.470  0.00  0.00    -0.005 C 
ATOM     32  C   UNL     1      34.114 -14.612 -22.757  0.00  0.00    +0.068 C 
ATOM     33  C   UNL     1      34.305 -14.743 -20.352  0.00  0.00    +0.001 C 
ATOM     34  C   UNL     1      33.893 -14.059 -21.496  0.00  0.00    +0.012 C 
ENDBRANCH  26  29
ENDBRANCH  19  26
ENDBRANCH  18  20
ENDBRANCH   1  18
TORSDOF 5
ENDMDL
MODEL 7
REMARK VINA RESULT:     -10.8      1.393      2.280
REMARK  Name = 24978486
REMARK  5 active torsions:
REMARK  status: ('A' for Active; 'I' for Inactive)
REMARK    1  A    between atoms: O_1  and  C_6
REMARK    2  A    between atoms: O_1  and  C_18
REMARK    3  A    between atoms: C_18  and  C_20
REMARK    4  A    between atoms: N_19  and  C_26
REMARK    5  A    between atoms: C_26  and  C_29
REMARK                            x       y       z     vdW  Elec       q    Type
REMARK                         _______ _______ _______ _____ _____    ______ ____
ROOT
ATOM      1  O   UNL     1      35.218 -18.741 -21.463  0.00  0.00    -0.479 OA
ENDROOT
BRANCH   1   6
ATOM      2  N   UNL     1      35.110 -22.025 -17.902  0.00  0.00    -0.332 NA
ATOM      3  N   UNL     1      37.181 -20.870 -18.330  0.00  0.00    -0.317 NA
ATOM      4  N   UNL     1      37.353 -19.269 -20.016  0.00  0.00    -0.335 N 
ATOM      5  N   UNL     1      37.029 -22.475 -16.630  0.00  0.00    -0.283 N 
ATOM      6  C   UNL     1      34.583 -19.679 -20.688  0.00  0.00    +0.130 C 
ATOM      7  C   UNL     1      35.216 -20.390 -19.653  0.00  0.00    +0.177 C 
ATOM      8  C   UNL     1      33.242 -19.914 -20.973  0.00  0.00    +0.033 C 
ATOM      9  C   UNL     1      34.514 -21.340 -18.894  0.00  0.00    +0.137 C 
ATOM     10  C   UNL     1      36.554 -20.202 -19.316  0.00  0.00    +0.181 C 
ATOM     11  C   UNL     1      32.536 -20.853 -20.230  0.00  0.00    +0.005 C 
ATOM     12  C   UNL     1      33.173 -21.555 -19.201  0.00  0.00    +0.030 C 
ATOM     13  C   UNL     1      36.410 -21.753 -17.674  0.00  0.00    +0.197 C 
ATOM     14  H   UNL     1      38.297 -19.146 -19.769  0.00  0.00    +0.144 HD
ATOM     15  H   UNL     1      36.964 -18.742 -20.752  0.00  0.00    +0.144 HD
ATOM     16  H   UNL     1      36.512 -23.135 -16.115  0.00  0.00    +0.156 HD
ATOM     17  H   UNL     1      37.977 -22.318 -16.416  0.00  0.00    +0.156 HD
ENDBRANCH   1   6
BRANCH   1  18
ATOM     18  C   UNL     1      34.830 -18.660 -22.822  0.00  0.00    +0.205 C 
BRANCH  18  20
ATOM     19  N   UNL     1      33.836 -14.503 -23.444  0.00  0.00    +0.390 N 
ATOM     20  C   UNL     1      34.953 -17.209 -23.278  0.00  0.00    +0.040 C 
ATOM     21  C   UNL     1      34.934 -16.252 -22.081  0.00  0.00    -0.019 C 
ATOM     22  C   UNL     1      33.829 -16.841 -24.252  0.00  0.00    -0.019 C 
ATOM     23  C   UNL     1      34.955 -14.791 -22.537  0.00  0.00    -0.077 C 
ATOM     24  C   UNL     1      33.887 -15.361 -24.635  0.00  0.00    -0.077 C 
ATOM     25  H   UNL     1      32.968 -14.704 -22.948  0.00  0.00    -0.079 HD
BRANCH  19  26
ATOM     26  C   UNL     1      33.840 -13.092 -23.829  0.00  0.00    -0.049 C 
BRANCH  26  29
ATOM     27 CL   UNL     1      33.941 -10.071 -24.211  0.00  0.00    -0.082 Cl
ATOM     28 CL   UNL     1      32.258  -8.375 -22.063  0.00  0.00    -0.081 Cl
ATOM     29  C   UNL     1      33.072 -12.242 -22.853  0.00  0.00    -0.032 C 
ATOM     30  C   UNL     1      33.053 -10.850 -22.941  0.00  0.00    +0.062 C 
ATOM     31  C   UNL     1      32.364 -12.887 -21.839  0.00  0.00    -0.005 C 
ATOM     32  C   UNL     1      32.326 -10.103 -22.013  0.00  0.00    +0.068 C 
ATOM     33  C   UNL     1      31.637 -12.140 -20.912  0.00  0.00    +0.001 C 
ATOM     34  C   UNL     1      31.618 -10.748 -21.000  0.00  0.00    +0.012 C 
ENDBRANCH  26  29
ENDBRANCH  19  26
ENDBRANCH  18  20
ENDBRANCH   1  18
TORSDOF 5
ENDMDL
MODEL 8
REMARK VINA RESULT:     -10.8      3.688      5.911
REMARK  Name = 24978486
REMARK  5 active torsions:
REMARK  status: ('A' for Active; 'I' for Inactive)
REMARK    1  A    between atoms: O_1  and  C_6
REMARK    2  A    between atoms: O_1  and  C_18
REMARK    3  A    between atoms: C_18  and  C_20
REMARK    4  A    between atoms: N_19  and  C_26
REMARK    5  A    between atoms: C_26  and  C_29
REMARK                            x       y       z     vdW  Elec       q    Type
REMARK                         _______ _______ _______ _____ _____    ______ ____
ROOT
ATOM      1  O   UNL     1      33.336 -22.430 -17.307  0.00  0.00    -0.479 OA
ENDROOT
BRANCH   1   6
ATOM      2  N   UNL     1      32.447 -24.400 -12.970  0.00  0.00    -0.332 NA
ATOM      3  N   UNL     1      30.573 -23.822 -14.370  0.00  0.00    -0.317 NA
ATOM      4  N   UNL     1      30.877 -22.869 -16.476  0.00  0.00    -0.335 N 
ATOM      5  N   UNL     1      30.245 -24.779 -12.257  0.00  0.00    -0.283 N 
ATOM      6  C   UNL     1      33.731 -22.961 -16.105  0.00  0.00    +0.130 C 
ATOM      7  C   UNL     1      32.833 -23.423 -15.126  0.00  0.00    +0.177 C 
ATOM      8  C   UNL     1      35.101 -23.028 -15.877  0.00  0.00    +0.033 C 
ATOM      9  C   UNL     1      33.297 -23.955 -13.913  0.00  0.00    +0.137 C 
ATOM     10  C   UNL     1      31.451 -23.386 -15.292  0.00  0.00    +0.181 C 
ATOM     11  C   UNL     1      35.574 -23.552 -14.679  0.00  0.00    +0.005 C 
ATOM     12  C   UNL     1      34.674 -24.010 -13.711  0.00  0.00    +0.030 C 
ATOM     13  C   UNL     1      31.131 -24.309 -13.250  0.00  0.00    +0.197 C 
ATOM     14  H   UNL     1      29.898 -22.848 -16.581  0.00  0.00    +0.144 HD
ATOM     15  H   UNL     1      31.456 -22.531 -17.197  0.00  0.00    +0.144 HD
ATOM     16  H   UNL     1      30.599 -25.147 -11.415  0.00  0.00    +0.156 HD
ATOM     17  H   UNL     1      29.272 -24.740 -12.405  0.00  0.00    +0.156 HD
ENDBRANCH   1   6
BRANCH   1  18
ATOM     18  C   UNL     1      33.742 -23.116 -18.477  0.00  0.00    +0.205 C 
BRANCH  18  20
ATOM     19  N   UNL     1      35.424 -19.434 -19.983  0.00  0.00    +0.390 N 
ATOM     20  C   UNL     1      34.335 -22.103 -19.453  0.00  0.00    +0.040 C 
ATOM     21  C   UNL     1      35.749 -21.694 -19.029  0.00  0.00    -0.019 C 
ATOM     22  C   UNL     1      33.447 -20.860 -19.563  0.00  0.00    -0.019 C 
ATOM     23  C   UNL     1      36.311 -20.604 -19.946  0.00  0.00    -0.077 C 
ATOM     24  C   UNL     1      34.085 -19.799 -20.462  0.00  0.00    -0.077 C 
ATOM     25  H   UNL     1      35.332 -19.078 -19.031  0.00  0.00    -0.079 HD
BRANCH  19  26
ATOM     26  C   UNL     1      35.999 -18.383 -20.821  0.00  0.00    -0.049 C 
BRANCH  26  29
ATOM     27 CL   UNL     1      35.169 -15.604 -21.756  0.00  0.00    -0.082 Cl
ATOM     28 CL   UNL     1      33.682 -15.518 -24.603  0.00  0.00    -0.081 Cl
ATOM     29  C   UNL     1      35.297 -18.276 -22.149  0.00  0.00    -0.032 C 
ATOM     30  C   UNL     1      34.876 -17.051 -22.666  0.00  0.00    +0.062 C 
ATOM     31  C   UNL     1      35.071 -19.451 -22.866  0.00  0.00    -0.005 C 
ATOM     32  C   UNL     1      34.229 -17.001 -23.902  0.00  0.00    +0.068 C 
ATOM     33  C   UNL     1      34.425 -19.401 -24.101  0.00  0.00    +0.001 C 
ATOM     34  C   UNL     1      34.004 -18.176 -24.618  0.00  0.00    +0.012 C 
ENDBRANCH  26  29
ENDBRANCH  19  26
ENDBRANCH  18  20
ENDBRANCH   1  18
TORSDOF 5
ENDMDL
MODEL 9
REMARK VINA RESULT:     -10.7      1.593      2.435
REMARK  Name = 24978486
REMARK  5 active torsions:
REMARK  status: ('A' for Active; 'I' for Inactive)
REMARK    1  A    between atoms: O_1  and  C_6
REMARK    2  A    between atoms: O_1  and  C_18
REMARK    3  A    between atoms: C_18  and  C_20
REMARK    4  A    between atoms: N_19  and  C_26
REMARK    5  A    between atoms: C_26  and  C_29
REMARK                            x       y       z     vdW  Elec       q    Type
REMARK                         _______ _______ _______ _____ _____    ______ ____
ROOT
ATOM      1  O   UNL     1      34.816 -18.575 -21.773  0.00  0.00    -0.479 OA
ENDROOT
BRANCH   1   6
ATOM      2  N   UNL     1      34.640 -22.003 -18.353  0.00  0.00    -0.332 NA
ATOM      3  N   UNL     1      32.605 -21.441 -19.515  0.00  0.00    -0.317 NA
ATOM      4  N   UNL     1      32.567 -19.809 -21.180  0.00  0.00    -0.335 N 
ATOM      5  N   UNL     1      32.621 -23.085 -17.846  0.00  0.00    -0.283 N 
ATOM      6  C   UNL     1      35.388 -19.366 -20.808  0.00  0.00    +0.130 C 
ATOM      7  C   UNL     1      34.673 -20.313 -20.055  0.00  0.00    +0.177 C 
ATOM      8  C   UNL     1      36.750 -19.189 -20.591  0.00  0.00    +0.033 C 
ATOM      9  C   UNL     1      35.314 -21.093 -19.079  0.00  0.00    +0.137 C 
ATOM     10  C   UNL     1      33.310 -20.540 -20.224  0.00  0.00    +0.181 C 
ATOM     11  C   UNL     1      37.396 -19.954 -19.626  0.00  0.00    +0.005 C 
ATOM     12  C   UNL     1      36.678 -20.896 -18.881  0.00  0.00    +0.030 C 
ATOM     13  C   UNL     1      33.322 -22.127 -18.610  0.00  0.00    +0.197 C 
ATOM     14  H   UNL     1      31.604 -19.979 -21.290  0.00  0.00    +0.144 HD
ATOM     15  H   UNL     1      33.015 -19.132 -21.737  0.00  0.00    +0.144 HD
ATOM     16  H   UNL     1      33.097 -23.617 -17.168  0.00  0.00    +0.156 HD
ATOM     17  H   UNL     1      31.657 -23.221 -17.990  0.00  0.00    +0.156 HD
ENDBRANCH   1   6
BRANCH   1  18
ATOM     18  C   UNL     1      35.511 -17.396 -22.135  0.00  0.00    +0.205 C 
BRANCH  18  20
ATOM     19  N   UNL     1      33.918 -13.726 -23.762  0.00  0.00    +0.390 N 
ATOM     20  C   UNL     1      34.498 -16.367 -22.630  0.00  0.00    +0.040 C 
ATOM     21  C   UNL     1      34.724 -16.040 -24.109  0.00  0.00    -0.019 C 
ATOM     22  C   UNL     1      34.569 -15.082 -21.798  0.00  0.00    -0.019 C 
ATOM     23  C   UNL     1      33.777 -14.935 -24.585  0.00  0.00    -0.077 C 
ATOM     24  C   UNL     1      33.628 -14.010 -22.350  0.00  0.00    -0.077 C 
ATOM     25  H   UNL     1      34.886 -13.411 -23.828  0.00  0.00    -0.079 HD
BRANCH  19  26
ATOM     26  C   UNL     1      33.045 -12.664 -24.261  0.00  0.00    -0.049 C 
BRANCH  26  29
ATOM     27 CL   UNL     1      32.106 -10.758 -22.077  0.00  0.00    -0.082 Cl
ATOM     28 CL   UNL     1      33.597  -7.912 -22.026  0.00  0.00    -0.081 Cl
ATOM     29  C   UNL     1      33.706 -11.313 -24.185  0.00  0.00    -0.032 C 
ATOM     30  C   UNL     1      33.348 -10.368 -23.223  0.00  0.00    +0.062 C 
ATOM     31  C   UNL     1      34.703 -11.018 -25.115  0.00  0.00    -0.005 C 
ATOM     32  C   UNL     1      33.989  -9.129 -23.191  0.00  0.00    +0.068 C 
ATOM     33  C   UNL     1      35.343  -9.780 -25.083  0.00  0.00    +0.001 C 
ATOM     34  C   UNL     1      34.986  -8.835 -24.121  0.00  0.00    +0.012 C 
ENDBRANCH  26  29
ENDBRANCH  19  26
ENDBRANCH  18  20
ENDBRANCH   1  18
TORSDOF 5
ENDMDL
