MODEL 1
REMARK VINA RESULT:     -11.1      0.000      0.000
REMARK  Name = 4565
REMARK  4 active torsions:
REMARK  status: ('A' for Active; 'I' for Inactive)
REMARK    1  A    between atoms: N_5  and  C_15
REMARK    2  A    between atoms: C_6  and  O_21
REMARK    3  A    between atoms: O_21  and  C_22
REMARK    4  A    between atoms: C_22  and  C_23
REMARK                            x       y       z     vdW  Elec       q    Type
REMARK                         _______ _______ _______ _____ _____    ______ ____
ROOT
ATOM      1  N   UNL     1      32.673 -23.313 -15.467  0.00  0.00    -0.293 NA
ATOM      2  N   UNL     1      29.294 -22.584 -16.722  0.00  0.00    -0.266 NA
ATOM      3  N   UNL     1      30.889 -23.807 -13.876  0.00  0.00    -0.316 NA
ATOM      4  N   UNL     1      28.661 -23.320 -14.715  0.00  0.00    -0.296 N 
ATOM      5  N   UNL     1      33.137 -24.176 -13.340  0.00  0.00    -0.238 N 
ATOM      6  C   UNL     1      31.786 -22.889 -16.393  0.00  0.00    +0.288 C 
ATOM      7  C   UNL     1      30.446 -22.920 -16.070  0.00  0.00    +0.215 C 
ATOM      8  C   UNL     1      30.027 -23.374 -14.827  0.00  0.00    +0.196 C 
ATOM      9  C   UNL     1      32.176 -23.741 -14.281  0.00  0.00    +0.207 C 
ATOM     10  C   UNL     1      28.251 -22.841 -15.871  0.00  0.00    +0.164 C 
ATOM     11  H   UNL     1      29.224 -22.223 -17.635  0.00  0.00    +0.126 HD
ATOM     12  H   UNL     1      28.109 -23.582 -13.943  0.00  0.00    +0.150 HD
ATOM     13  H   UNL     1      32.748 -24.481 -12.487  0.00  0.00    +0.166 HD
ENDROOT
BRANCH   5  15
ATOM     14 CL   UNL     1      37.651 -22.816 -11.316  0.00  0.00    -0.082 Cl
ATOM     15  C   UNL     1      34.540 -24.258 -13.382  0.00  0.00    +0.059 C 
ATOM     16  C   UNL     1      35.312 -23.575 -12.438  0.00  0.00    +0.027 C 
ATOM     17  C   UNL     1      35.169 -25.024 -14.367  0.00  0.00    +0.015 C 
ATOM     18  C   UNL     1      36.703 -23.659 -12.480  0.00  0.00    +0.059 C 
ATOM     19  C   UNL     1      36.560 -25.107 -14.409  0.00  0.00    +0.002 C 
ATOM     20  C   UNL     1      37.328 -24.424 -13.465  0.00  0.00    +0.011 C 
ENDBRANCH   5  15
BRANCH   6  21
ATOM     21  O   UNL     1      32.256 -22.449 -17.607  0.00  0.00    -0.453 OA
BRANCH  21  22
ATOM     22  C   UNL     1      33.589 -22.788 -17.942  0.00  0.00    +0.208 C 
BRANCH  22  23
ATOM     23  C   UNL     1      33.995 -21.992 -19.180  0.00  0.00    +0.044 C 
ATOM     24  C   UNL     1      32.971 -20.885 -19.472  0.00  0.00    +0.004 C 
ATOM     25  C   UNL     1      35.402 -21.403 -19.010  0.00  0.00    +0.004 C 
ATOM     26  C   UNL     1      33.383 -20.040 -20.676  0.00  0.00    +0.000 C 
ATOM     27  C   UNL     1      35.808 -20.557 -20.214  0.00  0.00    +0.000 C 
ATOM     28  C   UNL     1      34.785 -19.464 -20.507  0.00  0.00    +0.000 C 
ENDBRANCH  22  23
ENDBRANCH  21  22
ENDBRANCH   6  21
TORSDOF 4
ENDMDL
MODEL 2
REMARK VINA RESULT:     -10.5      2.799      6.428
REMARK  Name = 4565
REMARK  4 active torsions:
REMARK  status: ('A' for Active; 'I' for Inactive)
REMARK    1  A    between atoms: N_5  and  C_15
REMARK    2  A    between atoms: C_6  and  O_21
REMARK    3  A    between atoms: O_21  and  C_22
REMARK    4  A    between atoms: C_22  and  C_23
REMARK                            x       y       z     vdW  Elec       q    Type
REMARK                         _______ _______ _______ _____ _____    ______ ____
ROOT
ATOM      1  N   UNL     1      33.473 -22.924 -16.191  0.00  0.00    -0.293 NA
ATOM      2  N   UNL     1      31.705 -24.594 -13.433  0.00  0.00    -0.266 NA
ATOM      3  N   UNL     1      31.054 -23.046 -16.485  0.00  0.00    -0.316 NA
ATOM      4  N   UNL     1      29.895 -24.152 -14.657  0.00  0.00    -0.296 N 
ATOM      5  N   UNL     1      32.427 -22.035 -18.088  0.00  0.00    -0.238 N 
ATOM      6  C   UNL     1      33.403 -23.564 -15.004  0.00  0.00    +0.288 C 
ATOM      7  C   UNL     1      32.160 -23.950 -14.547  0.00  0.00    +0.215 C 
ATOM      8  C   UNL     1      31.018 -23.685 -15.292  0.00  0.00    +0.196 C 
ATOM      9  C   UNL     1      32.309 -22.707 -16.850  0.00  0.00    +0.207 C 
ATOM     10  C   UNL     1      30.343 -24.692 -13.544  0.00  0.00    +0.164 C 
ATOM     11  H   UNL     1      32.254 -24.928 -12.687  0.00  0.00    +0.126 HD
ATOM     12  H   UNL     1      28.962 -24.095 -14.966  0.00  0.00    +0.150 HD
ATOM     13  H   UNL     1      31.566 -21.891 -18.545  0.00  0.00    +0.166 HD
ENDROOT
BRANCH   5  15
ATOM     14 CL   UNL     1      34.196 -19.126 -21.927  0.00  0.00    -0.082 Cl
ATOM     15  C   UNL     1      33.533 -21.532 -18.796  0.00  0.00    +0.059 C 
ATOM     16  C   UNL     1      33.340 -20.678 -19.885  0.00  0.00    +0.027 C 
ATOM     17  C   UNL     1      34.830 -21.885 -18.414  0.00  0.00    +0.015 C 
ATOM     18  C   UNL     1      34.437 -20.179 -20.586  0.00  0.00    +0.059 C 
ATOM     19  C   UNL     1      35.927 -21.385 -19.116  0.00  0.00    +0.002 C 
ATOM     20  C   UNL     1      35.730 -20.532 -20.202  0.00  0.00    +0.011 C 
ENDBRANCH   5  15
BRANCH   6  21
ATOM     21  O   UNL     1      34.565 -23.800 -14.309  0.00  0.00    -0.453 OA
BRANCH  21  22
ATOM     22  C   UNL     1      35.779 -23.676 -15.026  0.00  0.00    +0.208 C 
BRANCH  22  23
ATOM     23  C   UNL     1      36.932 -23.646 -14.024  0.00  0.00    +0.044 C 
ATOM     24  C   UNL     1      36.444 -23.160 -12.651  0.00  0.00    +0.004 C 
ATOM     25  C   UNL     1      37.589 -25.028 -13.912  0.00  0.00    +0.004 C 
ATOM     26  C   UNL     1      37.568 -23.172 -11.618  0.00  0.00    +0.000 C 
ATOM     27  C   UNL     1      38.710 -25.037 -12.876  0.00  0.00    +0.000 C 
ATOM     28  C   UNL     1      38.224 -24.545 -11.516  0.00  0.00    +0.000 C 
ENDBRANCH  22  23
ENDBRANCH  21  22
ENDBRANCH   6  21
TORSDOF 4
ENDMDL
MODEL 3
REMARK VINA RESULT:     -10.2      1.563      2.066
REMARK  Name = 4565
REMARK  4 active torsions:
REMARK  status: ('A' for Active; 'I' for Inactive)
REMARK    1  A    between atoms: N_5  and  C_15
REMARK    2  A    between atoms: C_6  and  O_21
REMARK    3  A    between atoms: O_21  and  C_22
REMARK    4  A    between atoms: C_22  and  C_23
REMARK                            x       y       z     vdW  Elec       q    Type
REMARK                         _______ _______ _______ _____ _____    ______ ____
ROOT
ATOM      1  N   UNL     1      34.177 -23.814 -14.515  0.00  0.00    -0.293 NA
ATOM      2  N   UNL     1      30.866 -23.273 -16.023  0.00  0.00    -0.266 NA
ATOM      3  N   UNL     1      32.313 -24.123 -12.969  0.00  0.00    -0.316 NA
ATOM      4  N   UNL     1      30.131 -23.762 -13.976  0.00  0.00    -0.296 N 
ATOM      5  N   UNL     1      34.531 -24.404 -12.276  0.00  0.00    -0.238 N 
ATOM      6  C   UNL     1      33.339 -23.514 -15.531  0.00  0.00    +0.288 C 
ATOM      7  C   UNL     1      31.983 -23.516 -15.275  0.00  0.00    +0.215 C 
ATOM      8  C   UNL     1      31.501 -23.818 -14.009  0.00  0.00    +0.196 C 
ATOM      9  C   UNL     1      33.619 -24.096 -13.312  0.00  0.00    +0.207 C 
ATOM     10  C   UNL     1      29.781 -23.432 -15.201  0.00  0.00    +0.164 C 
ATOM     11  H   UNL     1      30.844 -23.028 -16.976  0.00  0.00    +0.126 HD
ATOM     12  H   UNL     1      29.540 -23.931 -13.207  0.00  0.00    +0.150 HD
ATOM     13  H   UNL     1      34.098 -24.605 -11.414  0.00  0.00    +0.166 HD
ENDROOT
BRANCH   5  15
ATOM     14 CL   UNL     1      38.799 -26.993 -13.461  0.00  0.00    -0.082 Cl
ATOM     15  C   UNL     1      35.934 -24.479 -12.235  0.00  0.00    +0.059 C 
ATOM     16  C   UNL     1      36.595 -25.572 -12.802  0.00  0.00    +0.027 C 
ATOM     17  C   UNL     1      36.674 -23.462 -11.628  0.00  0.00    +0.015 C 
ATOM     18  C   UNL     1      37.987 -25.645 -12.762  0.00  0.00    +0.059 C 
ATOM     19  C   UNL     1      38.066 -23.535 -11.588  0.00  0.00    +0.002 C 
ATOM     20  C   UNL     1      38.723 -24.628 -12.156  0.00  0.00    +0.011 C 
ENDBRANCH   5  15
BRANCH   6  21
ATOM     21  O   UNL     1      33.871 -23.223 -16.764  0.00  0.00    -0.453 OA
BRANCH  21  22
ATOM     22  C   UNL     1      33.032 -22.549 -17.683  0.00  0.00    +0.208 C 
BRANCH  22  23
ATOM     23  C   UNL     1      33.887 -22.058 -18.849  0.00  0.00    +0.044 C 
ATOM     24  C   UNL     1      33.283 -20.789 -19.467  0.00  0.00    +0.004 C 
ATOM     25  C   UNL     1      35.332 -21.810 -18.395  0.00  0.00    +0.004 C 
ATOM     26  C   UNL     1      34.150 -20.247 -20.602  0.00  0.00    +0.000 C 
ATOM     27  C   UNL     1      36.194 -21.266 -19.531  0.00  0.00    +0.000 C 
ATOM     28  C   UNL     1      35.586 -20.010 -20.149  0.00  0.00    +0.000 C 
ENDBRANCH  22  23
ENDBRANCH  21  22
ENDBRANCH   6  21
TORSDOF 4
ENDMDL
MODEL 4
REMARK VINA RESULT:     -10.1      3.126      6.808
REMARK  Name = 4565
REMARK  4 active torsions:
REMARK  status: ('A' for Active; 'I' for Inactive)
REMARK    1  A    between atoms: N_5  and  C_15
REMARK    2  A    between atoms: C_6  and  O_21
REMARK    3  A    between atoms: O_21  and  C_22
REMARK    4  A    between atoms: C_22  and  C_23
REMARK                            x       y       z     vdW  Elec       q    Type
REMARK                         _______ _______ _______ _____ _____    ______ ____
ROOT
ATOM      1  N   UNL     1      34.425 -23.496 -14.173  0.00  0.00    -0.293 NA
ATOM      2  N   UNL     1      35.271 -24.735 -10.816  0.00  0.00    -0.266 NA
ATOM      3  N   UNL     1      36.822 -23.682 -13.752  0.00  0.00    -0.316 NA
ATOM      4  N   UNL     1      37.369 -24.501 -11.530  0.00  0.00    -0.296 N 
ATOM      5  N   UNL     1      36.001 -22.920 -15.807  0.00  0.00    -0.238 N 
ATOM      6  C   UNL     1      34.130 -23.945 -12.934  0.00  0.00    +0.288 C 
ATOM      7  C   UNL     1      35.177 -24.266 -12.095  0.00  0.00    +0.215 C 
ATOM      8  C   UNL     1      36.492 -24.129 -12.517  0.00  0.00    +0.196 C 
ATOM      9  C   UNL     1      35.736 -23.394 -14.502  0.00  0.00    +0.207 C 
ATOM     10  C   UNL     1      36.603 -24.860 -10.522  0.00  0.00    +0.164 C 
ATOM     11  H   UNL     1      34.520 -24.945 -10.214  0.00  0.00    +0.126 HD
ATOM     12  H   UNL     1      38.353 -24.500 -11.568  0.00  0.00    +0.150 HD
ATOM     13  H   UNL     1      36.961 -22.856 -16.018  0.00  0.00    +0.166 HD
ENDROOT
BRANCH   5  15
ATOM     14 CL   UNL     1      35.484 -20.465 -20.282  0.00  0.00    -0.082 Cl
ATOM     15  C   UNL     1      35.162 -22.522 -16.863  0.00  0.00    +0.059 C 
ATOM     16  C   UNL     1      35.678 -21.776 -17.927  0.00  0.00    +0.027 C 
ATOM     17  C   UNL     1      33.809 -22.869 -16.854  0.00  0.00    +0.015 C 
ATOM     18  C   UNL     1      34.845 -21.382 -18.974  0.00  0.00    +0.059 C 
ATOM     19  C   UNL     1      32.977 -22.476 -17.902  0.00  0.00    +0.002 C 
ATOM     20  C   UNL     1      33.495 -21.732 -18.962  0.00  0.00    +0.011 C 
ENDBRANCH   5  15
BRANCH   6  21
ATOM     21  O   UNL     1      32.811 -24.061 -12.569  0.00  0.00    -0.453 OA
BRANCH  21  22
ATOM     22  C   UNL     1      32.036 -25.026 -13.256  0.00  0.00    +0.208 C 
BRANCH  22  23
ATOM     23  C   UNL     1      30.697 -24.393 -13.632  0.00  0.00    +0.044 C 
ATOM     24  C   UNL     1      30.909 -23.001 -14.245  0.00  0.00    +0.004 C 
ATOM     25  C   UNL     1      29.920 -25.301 -14.594  0.00  0.00    +0.004 C 
ATOM     26  C   UNL     1      29.588 -22.369 -14.678  0.00  0.00    +0.000 C 
ATOM     27  C   UNL     1      28.601 -24.664 -15.027  0.00  0.00    +0.000 C 
ATOM     28  C   UNL     1      28.815 -23.278 -15.627  0.00  0.00    +0.000 C 
ENDBRANCH  22  23
ENDBRANCH  21  22
ENDBRANCH   6  21
TORSDOF 4
ENDMDL
MODEL 5
REMARK VINA RESULT:     -10.1      2.372      6.343
REMARK  Name = 4565
REMARK  4 active torsions:
REMARK  status: ('A' for Active; 'I' for Inactive)
REMARK    1  A    between atoms: N_5  and  C_15
REMARK    2  A    between atoms: C_6  and  O_21
REMARK    3  A    between atoms: O_21  and  C_22
REMARK    4  A    between atoms: C_22  and  C_23
REMARK                            x       y       z     vdW  Elec       q    Type
REMARK                         _______ _______ _______ _____ _____    ______ ____
ROOT
ATOM      1  N   UNL     1      33.583 -22.845 -15.944  0.00  0.00    -0.293 NA
ATOM      2  N   UNL     1      32.515 -24.665 -12.932  0.00  0.00    -0.266 NA
ATOM      3  N   UNL     1      31.237 -23.516 -15.963  0.00  0.00    -0.316 NA
ATOM      4  N   UNL     1      30.542 -24.719 -13.968  0.00  0.00    -0.296 N 
ATOM      5  N   UNL     1      32.183 -22.344 -17.753  0.00  0.00    -0.238 N 
ATOM      6  C   UNL     1      33.775 -23.399 -14.727  0.00  0.00    +0.288 C 
ATOM      7  C   UNL     1      32.702 -24.016 -14.119  0.00  0.00    +0.215 C 
ATOM      8  C   UNL     1      31.463 -24.062 -14.744  0.00  0.00    +0.196 C 
ATOM      9  C   UNL     1      32.342 -22.936 -16.480  0.00  0.00    +0.207 C 
ATOM     10  C   UNL     1      31.206 -25.068 -12.887  0.00  0.00    +0.164 C 
ATOM     11  H   UNL     1      33.195 -24.816 -12.236  0.00  0.00    +0.126 HD
ATOM     12  H   UNL     1      29.595 -24.891 -14.174  0.00  0.00    +0.150 HD
ATOM     13  H   UNL     1      31.272 -22.425 -18.118  0.00  0.00    +0.166 HD
ENDROOT
BRANCH   5  15
ATOM     14 CL   UNL     1      37.031 -21.392 -19.138  0.00  0.00    -0.082 Cl
ATOM     15  C   UNL     1      33.073 -21.661 -18.602  0.00  0.00    +0.059 C 
ATOM     16  C   UNL     1      34.452 -21.843 -18.466  0.00  0.00    +0.027 C 
ATOM     17  C   UNL     1      32.582 -20.798 -19.585  0.00  0.00    +0.015 C 
ATOM     18  C   UNL     1      35.333 -21.166 -19.308  0.00  0.00    +0.059 C 
ATOM     19  C   UNL     1      33.464 -20.122 -20.428  0.00  0.00    +0.002 C 
ATOM     20  C   UNL     1      34.840 -20.306 -20.289  0.00  0.00    +0.011 C 
ENDBRANCH   5  15
BRANCH   6  21
ATOM     21  O   UNL     1      35.022 -23.324 -14.155  0.00  0.00    -0.453 OA
BRANCH  21  22
ATOM     22  C   UNL     1      36.110 -23.811 -14.918  0.00  0.00    +0.208 C 
BRANCH  22  23
ATOM     23  C   UNL     1      36.862 -24.847 -14.084  0.00  0.00    +0.044 C 
ATOM     24  C   UNL     1      36.542 -26.268 -14.568  0.00  0.00    +0.004 C 
ATOM     25  C   UNL     1      38.373 -24.583 -14.125  0.00  0.00    +0.004 C 
ATOM     26  C   UNL     1      37.323 -27.320 -13.784  0.00  0.00    +0.000 C 
ATOM     27  C   UNL     1      39.150 -25.638 -13.342  0.00  0.00    +0.000 C 
ATOM     28  C   UNL     1      38.823 -27.049 -13.820  0.00  0.00    +0.000 C 
ENDBRANCH  22  23
ENDBRANCH  21  22
ENDBRANCH   6  21
TORSDOF 4
ENDMDL
MODEL 6
REMARK VINA RESULT:     -10.1      3.294      7.215
REMARK  Name = 4565
REMARK  4 active torsions:
REMARK  status: ('A' for Active; 'I' for Inactive)
REMARK    1  A    between atoms: N_5  and  C_15
REMARK    2  A    between atoms: C_6  and  O_21
REMARK    3  A    between atoms: O_21  and  C_22
REMARK    4  A    between atoms: C_22  and  C_23
REMARK                            x       y       z     vdW  Elec       q    Type
REMARK                         _______ _______ _______ _____ _____    ______ ____
ROOT
ATOM      1  N   UNL     1      34.690 -22.811 -16.486  0.00  0.00    -0.293 NA
ATOM      2  N   UNL     1      35.716 -24.653 -13.473  0.00  0.00    -0.266 NA
ATOM      3  N   UNL     1      37.092 -22.770 -16.061  0.00  0.00    -0.316 NA
ATOM      4  N   UNL     1      37.759 -23.989 -14.067  0.00  0.00    -0.296 N 
ATOM      5  N   UNL     1      36.164 -21.679 -17.911  0.00  0.00    -0.238 N 
ATOM      6  C   UNL     1      34.466 -23.563 -15.387  0.00  0.00    +0.288 C 
ATOM      7  C   UNL     1      35.551 -23.924 -14.616  0.00  0.00    +0.215 C 
ATOM      8  C   UNL     1      36.834 -23.523 -14.965  0.00  0.00    +0.196 C 
ATOM      9  C   UNL     1      35.973 -22.465 -16.752  0.00  0.00    +0.207 C 
ATOM     10  C   UNL     1      37.055 -24.664 -13.184  0.00  0.00    +0.164 C 
ATOM     11  H   UNL     1      35.004 -25.090 -12.952  0.00  0.00    +0.126 HD
ATOM     12  H   UNL     1      38.734 -23.850 -14.080  0.00  0.00    +0.150 HD
ATOM     13  H   UNL     1      37.105 -21.442 -18.080  0.00  0.00    +0.166 HD
ENDROOT
BRANCH   5  15
ATOM     14 CL   UNL     1      35.452 -18.888 -22.157  0.00  0.00    -0.082 Cl
ATOM     15  C   UNL     1      35.272 -21.166 -18.870  0.00  0.00    +0.059 C 
ATOM     16  C   UNL     1      35.747 -20.372 -19.917  0.00  0.00    +0.027 C 
ATOM     17  C   UNL     1      33.906 -21.449 -18.781  0.00  0.00    +0.015 C 
ATOM     18  C   UNL     1      34.862 -19.866 -20.868  0.00  0.00    +0.059 C 
ATOM     19  C   UNL     1      33.022 -20.942 -19.733  0.00  0.00    +0.002 C 
ATOM     20  C   UNL     1      33.500 -20.150 -20.777  0.00  0.00    +0.011 C 
ENDBRANCH   5  15
BRANCH   6  21
ATOM     21  O   UNL     1      33.176 -23.931 -15.088  0.00  0.00    -0.453 OA
BRANCH  21  22
ATOM     22  C   UNL     1      32.504 -23.174 -14.099  0.00  0.00    +0.208 C 
BRANCH  22  23
ATOM     23  C   UNL     1      31.001 -23.278 -14.348  0.00  0.00    +0.044 C 
ATOM     24  C   UNL     1      30.652 -22.804 -15.766  0.00  0.00    +0.004 C 
ATOM     25  C   UNL     1      30.511 -24.714 -14.116  0.00  0.00    +0.004 C 
ATOM     26  C   UNL     1      29.160 -22.949 -16.057  0.00  0.00    +0.000 C 
ATOM     27  C   UNL     1      29.020 -24.855 -14.411  0.00  0.00    +0.000 C 
ATOM     28  C   UNL     1      28.676 -24.375 -15.818  0.00  0.00    +0.000 C 
ENDBRANCH  22  23
ENDBRANCH  21  22
ENDBRANCH   6  21
TORSDOF 4
ENDMDL
MODEL 7
REMARK VINA RESULT:     -10.1      2.698      5.723
REMARK  Name = 4565
REMARK  4 active torsions:
REMARK  status: ('A' for Active; 'I' for Inactive)
REMARK    1  A    between atoms: N_5  and  C_15
REMARK    2  A    between atoms: C_6  and  O_21
REMARK    3  A    between atoms: O_21  and  C_22
REMARK    4  A    between atoms: C_22  and  C_23
REMARK                            x       y       z     vdW  Elec       q    Type
REMARK                         _______ _______ _______ _____ _____    ______ ____
ROOT
ATOM      1  N   UNL     1      35.074 -22.963 -16.511  0.00  0.00    -0.293 NA
ATOM      2  N   UNL     1      34.247 -21.260 -19.663  0.00  0.00    -0.266 NA
ATOM      3  N   UNL     1      36.876 -21.579 -17.400  0.00  0.00    -0.316 NA
ATOM      4  N   UNL     1      36.319 -20.459 -19.484  0.00  0.00    -0.296 N 
ATOM      5  N   UNL     1      37.130 -22.776 -15.406  0.00  0.00    -0.238 N 
ATOM      6  C   UNL     1      34.263 -22.645 -17.543  0.00  0.00    +0.288 C 
ATOM      7  C   UNL     1      34.752 -21.792 -18.512  0.00  0.00    +0.215 C 
ATOM      8  C   UNL     1      36.039 -21.280 -18.422  0.00  0.00    +0.196 C 
ATOM      9  C   UNL     1      36.314 -22.417 -16.503  0.00  0.00    +0.207 C 
ATOM     10  C   UNL     1      35.222 -20.468 -20.210  0.00  0.00    +0.164 C 
ATOM     11  H   UNL     1      33.348 -21.415 -20.034  0.00  0.00    +0.126 HD
ATOM     12  H   UNL     1      37.155 -19.970 -19.663  0.00  0.00    +0.150 HD
ATOM     13  H   UNL     1      38.025 -22.365 -15.426  0.00  0.00    +0.166 HD
ENDROOT
BRANCH   5  15
ATOM     14 CL   UNL     1      38.032 -27.243 -13.048  0.00  0.00    -0.082 Cl
ATOM     15  C   UNL     1      36.914 -23.605 -14.290  0.00  0.00    +0.059 C 
ATOM     16  C   UNL     1      37.510 -24.867 -14.228  0.00  0.00    +0.027 C 
ATOM     17  C   UNL     1      36.102 -23.171 -13.240  0.00  0.00    +0.015 C 
ATOM     18  C   UNL     1      37.295 -25.689 -13.122  0.00  0.00    +0.059 C 
ATOM     19  C   UNL     1      35.888 -23.992 -12.133  0.00  0.00    +0.002 C 
ATOM     20  C   UNL     1      36.485 -25.252 -12.074  0.00  0.00    +0.011 C 
ENDBRANCH   5  15
BRANCH   6  21
ATOM     21  O   UNL     1      32.999 -23.180 -17.582  0.00  0.00    -0.453 OA
BRANCH  21  22
ATOM     22  C   UNL     1      32.052 -22.660 -16.668  0.00  0.00    +0.208 C 
BRANCH  22  23
ATOM     23  C   UNL     1      31.787 -23.713 -15.594  0.00  0.00    +0.044 C 
ATOM     24  C   UNL     1      32.483 -23.334 -14.279  0.00  0.00    +0.004 C 
ATOM     25  C   UNL     1      30.279 -23.901 -15.379  0.00  0.00    +0.004 C 
ATOM     26  C   UNL     1      32.189 -24.345 -13.174  0.00  0.00    +0.000 C 
ATOM     27  C   UNL     1      29.989 -24.911 -14.270  0.00  0.00    +0.000 C 
ATOM     28  C   UNL     1      30.690 -24.535 -12.968  0.00  0.00    +0.000 C 
ENDBRANCH  22  23
ENDBRANCH  21  22
ENDBRANCH   6  21
TORSDOF 4
ENDMDL
MODEL 8
REMARK VINA RESULT:     -10.0      2.936      5.301
REMARK  Name = 4565
REMARK  4 active torsions:
REMARK  status: ('A' for Active; 'I' for Inactive)
REMARK    1  A    between atoms: N_5  and  C_15
REMARK    2  A    between atoms: C_6  and  O_21
REMARK    3  A    between atoms: O_21  and  C_22
REMARK    4  A    between atoms: C_22  and  C_23
REMARK                            x       y       z     vdW  Elec       q    Type
REMARK                         _______ _______ _______ _____ _____    ______ ____
ROOT
ATOM      1  N   UNL     1      33.486 -23.278 -16.049  0.00  0.00    -0.293 NA
ATOM      2  N   UNL     1      36.994 -22.372 -16.678  0.00  0.00    -0.266 NA
ATOM      3  N   UNL     1      34.858 -23.139 -14.035  0.00  0.00    -0.316 NA
ATOM      4  N   UNL     1      37.174 -22.542 -14.462  0.00  0.00    -0.296 N 
ATOM      5  N   UNL     1      32.587 -23.697 -13.927  0.00  0.00    -0.238 N 
ATOM      6  C   UNL     1      34.534 -22.950 -16.836  0.00  0.00    +0.288 C 
ATOM      7  C   UNL     1      35.751 -22.715 -16.230  0.00  0.00    +0.215 C 
ATOM      8  C   UNL     1      35.888 -22.814 -14.852  0.00  0.00    +0.196 C 
ATOM      9  C   UNL     1      33.710 -23.351 -14.714  0.00  0.00    +0.207 C 
ATOM     10  C   UNL     1      37.813 -22.280 -15.583  0.00  0.00    +0.164 C 
ATOM     11  H   UNL     1      37.256 -22.220 -17.615  0.00  0.00    +0.126 HD
ATOM     12  H   UNL     1      37.539 -22.541 -13.548  0.00  0.00    +0.150 HD
ATOM     13  H   UNL     1      32.779 -23.742 -12.962  0.00  0.00    +0.166 HD
ENDROOT
BRANCH   5  15
ATOM     14 CL   UNL     1      28.221 -22.217 -16.179  0.00  0.00    -0.082 Cl
ATOM     15  C   UNL     1      31.251 -23.988 -14.253  0.00  0.00    +0.059 C 
ATOM     16  C   UNL     1      30.486 -23.065 -14.971  0.00  0.00    +0.027 C 
ATOM     17  C   UNL     1      30.682 -25.202 -13.859  0.00  0.00    +0.015 C 
ATOM     18  C   UNL     1      29.161 -23.356 -15.294  0.00  0.00    +0.059 C 
ATOM     19  C   UNL     1      29.356 -25.492 -14.183  0.00  0.00    +0.002 C 
ATOM     20  C   UNL     1      28.596 -24.569 -14.901  0.00  0.00    +0.011 C 
ENDBRANCH   5  15
BRANCH   6  21
ATOM     21  O   UNL     1      34.342 -22.867 -18.193  0.00  0.00    -0.453 OA
BRANCH  21  22
ATOM     22  C   UNL     1      33.647 -21.732 -18.676  0.00  0.00    +0.208 C 
BRANCH  22  23
ATOM     23  C   UNL     1      34.445 -21.131 -19.831  0.00  0.00    +0.044 C 
ATOM     24  C   UNL     1      33.627 -20.047 -20.548  0.00  0.00    +0.004 C 
ATOM     25  C   UNL     1      35.781 -20.565 -19.331  0.00  0.00    +0.004 C 
ATOM     26  C   UNL     1      34.424 -19.393 -21.675  0.00  0.00    +0.000 C 
ATOM     27  C   UNL     1      36.573 -19.910 -20.459  0.00  0.00    +0.000 C 
ATOM     28  C   UNL     1      35.755 -18.840 -21.175  0.00  0.00    +0.000 C 
ENDBRANCH  22  23
ENDBRANCH  21  22
ENDBRANCH   6  21
TORSDOF 4
ENDMDL
MODEL 9
REMARK VINA RESULT:     -10.0      2.427      5.245
REMARK  Name = 4565
REMARK  4 active torsions:
REMARK  status: ('A' for Active; 'I' for Inactive)
REMARK    1  A    between atoms: N_5  and  C_15
REMARK    2  A    between atoms: C_6  and  O_21
REMARK    3  A    between atoms: O_21  and  C_22
REMARK    4  A    between atoms: C_22  and  C_23
REMARK                            x       y       z     vdW  Elec       q    Type
REMARK                         _______ _______ _______ _____ _____    ______ ____
ROOT
ATOM      1  N   UNL     1      35.067 -23.203 -16.013  0.00  0.00    -0.293 NA
ATOM      2  N   UNL     1      32.901 -22.018 -18.739  0.00  0.00    -0.266 NA
ATOM      3  N   UNL     1      36.217 -21.847 -17.685  0.00  0.00    -0.316 NA
ATOM      4  N   UNL     1      34.777 -21.070 -19.481  0.00  0.00    -0.296 N 
ATOM      5  N   UNL     1      37.355 -22.732 -15.841  0.00  0.00    -0.238 N 
ATOM      6  C   UNL     1      33.891 -23.086 -16.667  0.00  0.00    +0.288 C 
ATOM      7  C   UNL     1      33.868 -22.350 -17.833  0.00  0.00    +0.215 C 
ATOM      8  C   UNL     1      35.023 -21.750 -18.316  0.00  0.00    +0.196 C 
ATOM      9  C   UNL     1      36.144 -22.585 -16.556  0.00  0.00    +0.207 C 
ATOM     10  C   UNL     1      33.493 -21.251 -19.707  0.00  0.00    +0.164 C 
ATOM     11  H   UNL     1      31.952 -22.281 -18.703  0.00  0.00    +0.126 HD
ATOM     12  H   UNL     1      35.418 -20.560 -20.027  0.00  0.00    +0.150 HD
ATOM     13  H   UNL     1      38.120 -22.273 -16.258  0.00  0.00    +0.166 HD
ENDROOT
BRANCH   5  15
ATOM     14 CL   UNL     1      36.875 -23.074 -10.744  0.00  0.00    -0.082 Cl
ATOM     15  C   UNL     1      37.681 -23.408 -14.652  0.00  0.00    +0.059 C 
ATOM     16  C   UNL     1      37.176 -22.959 -13.428  0.00  0.00    +0.027 C 
ATOM     17  C   UNL     1      38.510 -24.532 -14.687  0.00  0.00    +0.015 C 
ATOM     18  C   UNL     1      37.499 -23.630 -12.250  0.00  0.00    +0.059 C 
ATOM     19  C   UNL     1      38.833 -25.202 -13.508  0.00  0.00    +0.002 C 
ATOM     20  C   UNL     1      38.327 -24.751 -12.288  0.00  0.00    +0.011 C 
ENDBRANCH   5  15
BRANCH   6  21
ATOM     21  O   UNL     1      32.779 -23.701 -16.144  0.00  0.00    -0.453 OA
BRANCH  21  22
ATOM     22  C   UNL     1      32.378 -23.309 -14.844  0.00  0.00    +0.208 C 
BRANCH  22  23
ATOM     23  C   UNL     1      30.852 -23.323 -14.783  0.00  0.00    +0.044 C 
ATOM     24  C   UNL     1      30.253 -22.674 -16.039  0.00  0.00    +0.004 C 
ATOM     25  C   UNL     1      30.330 -24.755 -14.607  0.00  0.00    +0.004 C 
ATOM     26  C   UNL     1      28.727 -22.723 -16.025  0.00  0.00    +0.000 C 
ATOM     27  C   UNL     1      28.803 -24.800 -14.597  0.00  0.00    +0.000 C 
ATOM     28  C   UNL     1      28.212 -24.146 -15.842  0.00  0.00    +0.000 C 
ENDBRANCH  22  23
ENDBRANCH  21  22
ENDBRANCH   6  21
TORSDOF 4
ENDMDL
