MODEL 1
REMARK VINA RESULT:     -12.4      0.000      0.000
REMARK  Name = 16040279
REMARK  5 active torsions:
REMARK  status: ('A' for Active; 'I' for Inactive)
REMARK    1  A    between atoms: N_2  and  C_21
REMARK    2  A    between atoms: C_3  and  C_11
REMARK    3  A    between atoms: C_4  and  N_17
REMARK    4  A    between atoms: C_21  and  C_22
REMARK    5  A    between atoms: C_22  and  C_25
REMARK                            x       y       z     vdW  Elec       q    Type
REMARK                         _______ _______ _______ _____ _____    ______ ____
ROOT
ATOM      1  O   UNL     1      34.171 -17.086 -25.070  0.00  0.00    -0.275 OA
ATOM      2  N   UNL     1      34.882 -16.940 -22.866  0.00  0.00    -0.281 N 
ATOM      3  C   UNL     1      33.629 -14.361 -22.674  0.00  0.00    +0.015 C 
ATOM      4  C   UNL     1      34.750 -14.728 -21.685  0.00  0.00    -0.041 C 
ATOM      5  C   UNL     1      34.825 -16.249 -21.579  0.00  0.00    +0.072 C 
ATOM      6  C   UNL     1      33.975 -14.956 -24.042  0.00  0.00    +0.088 C 
ATOM      7  C   UNL     1      34.320 -16.433 -24.034  0.00  0.00    +0.226 C 
ENDROOT
BRANCH   3  11
ATOM      8  F   UNL     1      31.779 -12.957 -21.042  0.00  0.00    -0.204 F 
ATOM      9  F   UNL     1      34.480 -10.048 -24.805  0.00  0.00    -0.202 F 
ATOM     10  F   UNL     1      32.667  -8.822 -23.165  0.00  0.00    -0.202 F 
ATOM     11  C   UNL     1      33.368 -12.869 -22.804  0.00  0.00    +0.006 C 
ATOM     12  C   UNL     1      32.444 -12.250 -21.967  0.00  0.00    +0.138 C 
ATOM     13  C   UNL     1      34.056 -12.132 -23.763  0.00  0.00    +0.030 C 
ATOM     14  C   UNL     1      33.820 -10.762 -23.885  0.00  0.00    +0.167 C 
ATOM     15  C   UNL     1      32.207 -10.881 -22.090  0.00  0.00    +0.061 C 
ATOM     16  C   UNL     1      32.895 -10.137 -23.048  0.00  0.00    +0.170 C 
ENDBRANCH   3  11
BRANCH   4  17
ATOM     17  N   UNL     1      34.503 -14.183 -20.348  0.00  0.00    +0.383 N 
ATOM     18  H   UNL     1      35.256 -13.542 -20.098  0.00  0.00    -0.089 HD
ATOM     19  H   UNL     1      34.468 -14.947 -19.671  0.00  0.00    -0.089 HD
ATOM     20  H   UNL     1      33.614 -13.683 -20.342  0.00  0.00    -0.089 HD
ENDBRANCH   4  17
BRANCH   2  21
ATOM     21  C   UNL     1      35.323 -18.328 -22.823  0.00  0.00    +0.098 C 
BRANCH  21  22
ATOM     22  C   UNL     1      35.897 -18.719 -21.462  0.00  0.00    +0.048 C 
BRANCH  22  25
ATOM     23  O   UNL     1      35.067 -22.311 -18.178  0.00  0.00    -0.435 OA
ATOM     24  O   UNL     1      32.687 -22.259 -18.549  0.00  0.00    -0.435 OA
ATOM     25  C   UNL     1      35.002 -19.659 -20.694  0.00  0.00    -0.017 C 
ATOM     26  C   UNL     1      35.569 -20.540 -19.783  0.00  0.00    +0.036 C 
ATOM     27  C   UNL     1      33.623 -19.619 -20.920  0.00  0.00    -0.001 C 
ATOM     28  C   UNL     1      34.709 -21.381 -19.104  0.00  0.00    +0.176 C 
ATOM     29  C   UNL     1      33.350 -21.352 -19.317  0.00  0.00    +0.176 C 
ATOM     30  C   UNL     1      32.775 -20.481 -20.219  0.00  0.00    +0.040 C 
ATOM     31  C   UNL     1      33.781 -22.863 -17.830  0.00  0.00    +0.429 C 
ENDBRANCH  22  25
ENDBRANCH  21  22
ENDBRANCH   2  21
TORSDOF 5
ENDMDL
MODEL 2
REMARK VINA RESULT:     -12.1      0.692      1.343
REMARK  Name = 16040279
REMARK  5 active torsions:
REMARK  status: ('A' for Active; 'I' for Inactive)
REMARK    1  A    between atoms: N_2  and  C_21
REMARK    2  A    between atoms: C_3  and  C_11
REMARK    3  A    between atoms: C_4  and  N_17
REMARK    4  A    between atoms: C_21  and  C_22
REMARK    5  A    between atoms: C_22  and  C_25
REMARK                            x       y       z     vdW  Elec       q    Type
REMARK                         _______ _______ _______ _____ _____    ______ ____
ROOT
ATOM      1  O   UNL     1      34.065 -16.660 -25.096  0.00  0.00    -0.275 OA
ATOM      2  N   UNL     1      34.783 -16.579 -22.890  0.00  0.00    -0.281 N 
ATOM      3  C   UNL     1      33.511 -14.018 -22.612  0.00  0.00    +0.015 C 
ATOM      4  C   UNL     1      34.638 -14.407 -21.639  0.00  0.00    -0.041 C 
ATOM      5  C   UNL     1      34.725 -15.930 -21.582  0.00  0.00    +0.072 C 
ATOM      6  C   UNL     1      33.857 -14.565 -23.999  0.00  0.00    +0.088 C 
ATOM      7  C   UNL     1      34.212 -16.039 -24.040  0.00  0.00    +0.226 C 
ENDROOT
BRANCH   3  11
ATOM      8  F   UNL     1      31.541 -12.707 -21.044  0.00  0.00    -0.204 F 
ATOM      9  F   UNL     1      34.438  -9.604 -24.493  0.00  0.00    -0.202 F 
ATOM     10  F   UNL     1      32.507  -8.472 -22.922  0.00  0.00    -0.202 F 
ATOM     11  C   UNL     1      33.238 -12.524 -22.694  0.00  0.00    +0.006 C 
ATOM     12  C   UNL     1      32.255 -11.953 -21.892  0.00  0.00    +0.138 C 
ATOM     13  C   UNL     1      33.977 -11.737 -23.572  0.00  0.00    +0.030 C 
ATOM     14  C   UNL     1      33.730 -10.366 -23.650  0.00  0.00    +0.167 C 
ATOM     15  C   UNL     1      32.006 -10.582 -21.969  0.00  0.00    +0.061 C 
ATOM     16  C   UNL     1      32.745  -9.789 -22.848  0.00  0.00    +0.170 C 
ENDBRANCH   3  11
BRANCH   4  17
ATOM     17  N   UNL     1      34.393 -13.907 -20.284  0.00  0.00    +0.383 N 
ATOM     18  H   UNL     1      34.945 -13.064 -20.127  0.00  0.00    -0.089 HD
ATOM     19  H   UNL     1      34.661 -14.621 -19.605  0.00  0.00    -0.089 HD
ATOM     20  H   UNL     1      33.402 -13.690 -20.175  0.00  0.00    -0.089 HD
ENDBRANCH   4  17
BRANCH   2  21
ATOM     21  C   UNL     1      35.234 -17.965 -22.893  0.00  0.00    +0.098 C 
BRANCH  21  22
ATOM     22  C   UNL     1      36.261 -18.249 -21.799  0.00  0.00    +0.048 C 
BRANCH  22  25
ATOM     23  O   UNL     1      32.865 -21.055 -19.569  0.00  0.00    -0.435 OA
ATOM     24  O   UNL     1      34.527 -22.284 -18.331  0.00  0.00    -0.435 OA
ATOM     25  C   UNL     1      35.829 -19.344 -20.856  0.00  0.00    -0.017 C 
ATOM     26  C   UNL     1      34.476 -19.624 -20.718  0.00  0.00    +0.036 C 
ATOM     27  C   UNL     1      36.803 -20.048 -20.143  0.00  0.00    -0.001 C 
ATOM     28  C   UNL     1      34.130 -20.633 -19.843  0.00  0.00    +0.176 C 
ATOM     29  C   UNL     1      35.079 -21.335 -19.135  0.00  0.00    +0.176 C 
ATOM     30  C   UNL     1      36.426 -21.066 -19.263  0.00  0.00    +0.040 C 
ATOM     31  C   UNL     1      33.125 -22.101 -18.611  0.00  0.00    +0.429 C 
ENDBRANCH  22  25
ENDBRANCH  21  22
ENDBRANCH   2  21
TORSDOF 5
ENDMDL
MODEL 3
REMARK VINA RESULT:     -11.7      1.493      2.707
REMARK  Name = 16040279
REMARK  5 active torsions:
REMARK  status: ('A' for Active; 'I' for Inactive)
REMARK    1  A    between atoms: N_2  and  C_21
REMARK    2  A    between atoms: C_3  and  C_11
REMARK    3  A    between atoms: C_4  and  N_17
REMARK    4  A    between atoms: C_21  and  C_22
REMARK    5  A    between atoms: C_22  and  C_25
REMARK                            x       y       z     vdW  Elec       q    Type
REMARK                         _______ _______ _______ _____ _____    ______ ____
ROOT
ATOM      1  O   UNL     1      35.296 -16.200 -20.624  0.00  0.00    -0.275 OA
ATOM      2  N   UNL     1      34.713 -16.369 -22.864  0.00  0.00    -0.281 N 
ATOM      3  C   UNL     1      34.060 -13.570 -22.864  0.00  0.00    +0.015 C 
ATOM      4  C   UNL     1      33.450 -14.484 -23.941  0.00  0.00    -0.041 C 
ATOM      5  C   UNL     1      34.356 -15.701 -24.115  0.00  0.00    +0.072 C 
ATOM      6  C   UNL     1      34.130 -14.351 -21.548  0.00  0.00    +0.088 C 
ATOM      7  C   UNL     1      34.797 -15.710 -21.640  0.00  0.00    +0.226 C 
ENDROOT
BRANCH   3  11
ATOM      8  F   UNL     1      34.696 -11.179 -24.254  0.00  0.00    -0.204 F 
ATOM      9  F   UNL     1      30.570 -10.945 -20.672  0.00  0.00    -0.202 F 
ATOM     10  F   UNL     1      31.291  -8.715 -22.081  0.00  0.00    -0.202 F 
ATOM     11  C   UNL     1      33.316 -12.261 -22.654  0.00  0.00    +0.006 C 
ATOM     12  C   UNL     1      33.686 -11.129 -23.374  0.00  0.00    +0.138 C 
ATOM     13  C   UNL     1      32.267 -12.204 -21.742  0.00  0.00    +0.030 C 
ATOM     14  C   UNL     1      31.581 -11.004 -21.548  0.00  0.00    +0.167 C 
ATOM     15  C   UNL     1      33.002  -9.929 -23.180  0.00  0.00    +0.061 C 
ATOM     16  C   UNL     1      31.948  -9.867 -22.267  0.00  0.00    +0.170 C 
ENDBRANCH   3  11
BRANCH   4  17
ATOM     17  N   UNL     1      33.334 -13.808 -25.235  0.00  0.00    +0.383 N 
ATOM     18  H   UNL     1      33.224 -12.805 -25.085  0.00  0.00    -0.089 HD
ATOM     19  H   UNL     1      32.520 -14.168 -25.735  0.00  0.00    -0.089 HD
ATOM     20  H   UNL     1      34.175 -13.979 -25.786  0.00  0.00    -0.089 HD
ENDBRANCH   4  17
BRANCH   2  21
ATOM     21  C   UNL     1      35.250 -17.717 -22.994  0.00  0.00    +0.098 C 
BRANCH  21  22
ATOM     22  C   UNL     1      34.179 -18.793 -22.824  0.00  0.00    +0.048 C 
BRANCH  22  25
ATOM     23  O   UNL     1      32.507 -21.562 -19.094  0.00  0.00    -0.435 OA
ATOM     24  O   UNL     1      34.713 -21.848 -18.166  0.00  0.00    -0.435 OA
ATOM     25  C   UNL     1      34.360 -19.611 -21.570  0.00  0.00    -0.017 C 
ATOM     26  C   UNL     1      33.247 -20.186 -20.971  0.00  0.00    +0.036 C 
ATOM     27  C   UNL     1      35.644 -19.768 -21.042  0.00  0.00    -0.001 C 
ATOM     28  C   UNL     1      33.462 -20.924 -19.825  0.00  0.00    +0.176 C 
ATOM     29  C   UNL     1      34.722 -21.088 -19.294  0.00  0.00    +0.176 C 
ATOM     30  C   UNL     1      35.835 -20.521 -19.881  0.00  0.00    +0.040 C 
ATOM     31  C   UNL     1      33.307 -22.145 -18.045  0.00  0.00    +0.429 C 
ENDBRANCH  22  25
ENDBRANCH  21  22
ENDBRANCH   2  21
TORSDOF 5
ENDMDL
MODEL 4
REMARK VINA RESULT:     -11.4      1.073      2.175
REMARK  Name = 16040279
REMARK  5 active torsions:
REMARK  status: ('A' for Active; 'I' for Inactive)
REMARK    1  A    between atoms: N_2  and  C_21
REMARK    2  A    between atoms: C_3  and  C_11
REMARK    3  A    between atoms: C_4  and  N_17
REMARK    4  A    between atoms: C_21  and  C_22
REMARK    5  A    between atoms: C_22  and  C_25
REMARK                            x       y       z     vdW  Elec       q    Type
REMARK                         _______ _______ _______ _____ _____    ______ ____
ROOT
ATOM      1  O   UNL     1      33.854 -16.419 -25.144  0.00  0.00    -0.275 OA
ATOM      2  N   UNL     1      34.745 -16.399 -23.000  0.00  0.00    -0.281 N 
ATOM      3  C   UNL     1      33.320 -13.959 -22.474  0.00  0.00    +0.015 C 
ATOM      4  C   UNL     1      34.549 -14.312 -21.617  0.00  0.00    -0.041 C 
ATOM      5  C   UNL     1      34.750 -15.825 -21.656  0.00  0.00    +0.072 C 
ATOM      6  C   UNL     1      33.588 -14.406 -23.914  0.00  0.00    +0.088 C 
ATOM      7  C   UNL     1      34.044 -15.845 -24.068  0.00  0.00    +0.226 C 
ENDROOT
BRANCH   3  11
ATOM      8  F   UNL     1      34.519 -12.006 -24.148  0.00  0.00    -0.204 F 
ATOM      9  F   UNL     1      30.644 -10.277 -20.697  0.00  0.00    -0.202 F 
ATOM     10  F   UNL     1      31.884  -8.503 -22.367  0.00  0.00    -0.202 F 
ATOM     11  C   UNL     1      32.935 -12.489 -22.447  0.00  0.00    +0.006 C 
ATOM     12  C   UNL     1      33.569 -11.590 -23.299  0.00  0.00    +0.138 C 
ATOM     13  C   UNL     1      31.949 -12.052 -21.568  0.00  0.00    +0.030 C 
ATOM     14  C   UNL     1      31.593 -10.703 -21.540  0.00  0.00    +0.167 C 
ATOM     15  C   UNL     1      33.214 -10.240 -23.272  0.00  0.00    +0.061 C 
ATOM     16  C   UNL     1      32.225  -9.798 -22.392  0.00  0.00    +0.170 C 
ENDBRANCH   3  11
BRANCH   4  17
ATOM     17  N   UNL     1      34.381 -13.904 -20.221  0.00  0.00    +0.383 N 
ATOM     18  H   UNL     1      33.400 -13.994 -19.956  0.00  0.00    -0.089 HD
ATOM     19  H   UNL     1      34.675 -12.932 -20.112  0.00  0.00    -0.089 HD
ATOM     20  H   UNL     1      34.951 -14.501 -19.620  0.00  0.00    -0.089 HD
ENDBRANCH   4  17
BRANCH   2  21
ATOM     21  C   UNL     1      35.293 -17.744 -23.120  0.00  0.00    +0.098 C 
BRANCH  21  22
ATOM     22  C   UNL     1      36.301 -18.065 -22.019  0.00  0.00    +0.048 C 
BRANCH  22  25
ATOM     23  O   UNL     1      32.779 -20.769 -19.859  0.00  0.00    -0.435 OA
ATOM     24  O   UNL     1      34.374 -22.000 -18.536  0.00  0.00    -0.435 OA
ATOM     25  C   UNL     1      35.816 -19.133 -21.070  0.00  0.00    -0.017 C 
ATOM     26  C   UNL     1      34.455 -19.389 -20.976  0.00  0.00    +0.036 C 
ATOM     27  C   UNL     1      36.752 -19.838 -20.308  0.00  0.00    -0.001 C 
ATOM     28  C   UNL     1      34.060 -20.374 -20.094  0.00  0.00    +0.176 C 
ATOM     29  C   UNL     1      34.971 -21.077 -19.338  0.00  0.00    +0.176 C 
ATOM     30  C   UNL     1      36.326 -20.832 -19.423  0.00  0.00    +0.040 C 
ATOM     31  C   UNL     1      32.986 -21.800 -18.871  0.00  0.00    +0.429 C 
ENDBRANCH  22  25
ENDBRANCH  21  22
ENDBRANCH   2  21
TORSDOF 5
ENDMDL
MODEL 5
REMARK VINA RESULT:     -11.0      5.400     11.292
REMARK  Name = 16040279
REMARK  5 active torsions:
REMARK  status: ('A' for Active; 'I' for Inactive)
REMARK    1  A    between atoms: N_2  and  C_21
REMARK    2  A    between atoms: C_3  and  C_11
REMARK    3  A    between atoms: C_4  and  N_17
REMARK    4  A    between atoms: C_21  and  C_22
REMARK    5  A    between atoms: C_22  and  C_25
REMARK                            x       y       z     vdW  Elec       q    Type
REMARK                         _______ _______ _______ _____ _____    ______ ____
ROOT
ATOM      1  O   UNL     1      30.809 -10.758 -20.506  0.00  0.00    -0.275 OA
ATOM      2  N   UNL     1      32.262  -9.747 -22.007  0.00  0.00    -0.281 N 
ATOM      3  C   UNL     1      32.967 -12.345 -23.012  0.00  0.00    +0.015 C 
ATOM      4  C   UNL     1      33.933 -11.167 -23.232  0.00  0.00    -0.041 C 
ATOM      5  C   UNL     1      33.133  -9.867 -23.175  0.00  0.00    +0.072 C 
ATOM      6  C   UNL     1      32.327 -12.196 -21.629  0.00  0.00    +0.088 C 
ATOM      7  C   UNL     1      31.705 -10.841 -21.350  0.00  0.00    +0.226 C 
ENDROOT
BRANCH   3  11
ATOM      8  F   UNL     1      33.052 -13.796 -25.450  0.00  0.00    -0.204 F 
ATOM      9  F   UNL     1      35.345 -16.152 -21.079  0.00  0.00    -0.202 F 
ATOM     10  F   UNL     1      35.353 -17.437 -23.492  0.00  0.00    -0.202 F 
ATOM     11  C   UNL     1      33.609 -13.717 -23.144  0.00  0.00    +0.006 C 
ATOM     12  C   UNL     1      33.611 -14.367 -24.375  0.00  0.00    +0.138 C 
ATOM     13  C   UNL     1      34.192 -14.315 -22.030  0.00  0.00    +0.030 C 
ATOM     14  C   UNL     1      34.782 -15.574 -22.148  0.00  0.00    +0.167 C 
ATOM     15  C   UNL     1      34.201 -15.627 -24.493  0.00  0.00    +0.061 C 
ATOM     16  C   UNL     1      34.787 -16.229 -23.379  0.00  0.00    +0.170 C 
ENDBRANCH   3  11
BRANCH   4  17
ATOM     17  N   UNL     1      34.603 -11.240 -24.532  0.00  0.00    +0.383 N 
ATOM     18  H   UNL     1      34.445 -10.373 -25.045  0.00  0.00    -0.089 HD
ATOM     19  H   UNL     1      34.225 -12.025 -25.066  0.00  0.00    -0.089 HD
ATOM     20  H   UNL     1      35.604 -11.375 -24.392  0.00  0.00    -0.089 HD
ENDBRANCH   4  17
BRANCH   2  21
ATOM     21  C   UNL     1      31.774  -8.406 -21.713  0.00  0.00    +0.098 C 
BRANCH  21  22
ATOM     22  C   UNL     1      32.907  -7.404 -21.500  0.00  0.00    +0.048 C 
BRANCH  22  25
ATOM     23  O   UNL     1      30.931  -3.656 -24.035  0.00  0.00    -0.435 OA
ATOM     24  O   UNL     1      32.914  -3.364 -25.374  0.00  0.00    -0.435 OA
ATOM     25  C   UNL     1      32.944  -6.324 -22.553  0.00  0.00    -0.017 C 
ATOM     26  C   UNL     1      31.830  -5.515 -22.732  0.00  0.00    +0.036 C 
ATOM     27  C   UNL     1      34.099  -6.167 -23.323  0.00  0.00    -0.001 C 
ATOM     28  C   UNL     1      31.910  -4.542 -23.708  0.00  0.00    +0.176 C 
ATOM     29  C   UNL     1      33.043  -4.376 -24.473  0.00  0.00    +0.176 C 
ATOM     30  C   UNL     1      34.155  -5.174 -24.304  0.00  0.00    +0.040 C 
ATOM     31  C   UNL     1      31.574  -2.913 -25.091  0.00  0.00    +0.429 C 
ENDBRANCH  22  25
ENDBRANCH  21  22
ENDBRANCH   2  21
TORSDOF 5
ENDMDL
MODEL 6
REMARK VINA RESULT:     -11.0      4.388      7.270
REMARK  Name = 16040279
REMARK  5 active torsions:
REMARK  status: ('A' for Active; 'I' for Inactive)
REMARK    1  A    between atoms: N_2  and  C_21
REMARK    2  A    between atoms: C_3  and  C_11
REMARK    3  A    between atoms: C_4  and  N_17
REMARK    4  A    between atoms: C_21  and  C_22
REMARK    5  A    between atoms: C_22  and  C_25
REMARK                            x       y       z     vdW  Elec       q    Type
REMARK                         _______ _______ _______ _____ _____    ______ ____
ROOT
ATOM      1  O   UNL     1      32.298 -21.969 -18.409  0.00  0.00    -0.275 OA
ATOM      2  N   UNL     1      34.610 -21.957 -18.202  0.00  0.00    -0.281 N 
ATOM      3  C   UNL     1      34.725 -19.769 -20.062  0.00  0.00    +0.015 C 
ATOM      4  C   UNL     1      35.975 -20.641 -19.848  0.00  0.00    -0.041 C 
ATOM      5  C   UNL     1      35.884 -21.291 -18.470  0.00  0.00    +0.072 C 
ATOM      6  C   UNL     1      33.489 -20.671 -20.000  0.00  0.00    +0.088 C 
ATOM      7  C   UNL     1      33.404 -21.565 -18.777  0.00  0.00    +0.226 C 
ENDROOT
BRANCH   3  11
ATOM      8  F   UNL     1      35.574 -17.066 -20.228  0.00  0.00    -0.204 F 
ATOM      9  F   UNL     1      33.880 -19.426 -24.862  0.00  0.00    -0.202 F 
ATOM     10  F   UNL     1      34.726 -16.826 -24.877  0.00  0.00    -0.202 F 
ATOM     11  C   UNL     1      34.726 -18.974 -21.358  0.00  0.00    +0.006 C 
ATOM     12  C   UNL     1      35.157 -17.651 -21.360  0.00  0.00    +0.138 C 
ATOM     13  C   UNL     1      34.294 -19.577 -22.535  0.00  0.00    +0.030 C 
ATOM     14  C   UNL     1      34.294 -18.850 -23.727  0.00  0.00    +0.167 C 
ATOM     15  C   UNL     1      35.157 -16.924 -22.551  0.00  0.00    +0.061 C 
ATOM     16  C   UNL     1      34.726 -17.524 -23.734  0.00  0.00    +0.170 C 
ENDBRANCH   3  11
BRANCH   4  17
ATOM     17  N   UNL     1      37.210 -19.855 -19.907  0.00  0.00    +0.383 N 
ATOM     18  H   UNL     1      38.007 -20.458 -19.703  0.00  0.00    -0.089 HD
ATOM     19  H   UNL     1      37.167 -19.103 -19.218  0.00  0.00    -0.089 HD
ATOM     20  H   UNL     1      37.316 -19.456 -20.840  0.00  0.00    -0.089 HD
ENDBRANCH   4  17
BRANCH   2  21
ATOM     21  C   UNL     1      34.604 -22.890 -17.083  0.00  0.00    +0.098 C 
BRANCH  21  22
ATOM     22  C   UNL     1      35.742 -22.632 -16.098  0.00  0.00    +0.048 C 
BRANCH  22  25
ATOM     23  O   UNL     1      37.004 -23.683 -11.442  0.00  0.00    -0.435 OA
ATOM     24  O   UNL     1      34.870 -24.696 -10.969  0.00  0.00    -0.435 OA
ATOM     25  C   UNL     1      35.472 -23.198 -14.726  0.00  0.00    -0.017 C 
ATOM     26  C   UNL     1      36.464 -23.124 -13.756  0.00  0.00    +0.036 C 
ATOM     27  C   UNL     1      34.230 -23.783 -14.466  0.00  0.00    -0.001 C 
ATOM     28  C   UNL     1      36.171 -23.656 -12.517  0.00  0.00    +0.176 C 
ATOM     29  C   UNL     1      34.951 -24.235 -12.247  0.00  0.00    +0.176 C 
ATOM     30  C   UNL     1      33.959 -24.314 -13.202  0.00  0.00    +0.040 C 
ATOM     31  C   UNL     1      36.173 -24.343 -10.465  0.00  0.00    +0.429 C 
ENDBRANCH  22  25
ENDBRANCH  21  22
ENDBRANCH   2  21
TORSDOF 5
ENDMDL
MODEL 7
REMARK VINA RESULT:     -10.9      3.591      5.791
REMARK  Name = 16040279
REMARK  5 active torsions:
REMARK  status: ('A' for Active; 'I' for Inactive)
REMARK    1  A    between atoms: N_2  and  C_21
REMARK    2  A    between atoms: C_3  and  C_11
REMARK    3  A    between atoms: C_4  and  N_17
REMARK    4  A    between atoms: C_21  and  C_22
REMARK    5  A    between atoms: C_22  and  C_25
REMARK                            x       y       z     vdW  Elec       q    Type
REMARK                         _______ _______ _______ _____ _____    ______ ____
ROOT
ATOM      1  O   UNL     1      33.247 -21.044 -19.341  0.00  0.00    -0.275 OA
ATOM      2  N   UNL     1      35.553 -20.904 -19.562  0.00  0.00    -0.281 N 
ATOM      3  C   UNL     1      35.222 -18.470 -21.053  0.00  0.00    +0.015 C 
ATOM      4  C   UNL     1      36.524 -19.276 -21.209  0.00  0.00    -0.041 C 
ATOM      5  C   UNL     1      36.724 -20.122 -19.953  0.00  0.00    +0.072 C 
ATOM      6  C   UNL     1      34.058 -19.454 -20.905  0.00  0.00    +0.088 C 
ATOM      7  C   UNL     1      34.245 -20.517 -19.840  0.00  0.00    +0.226 C 
ENDROOT
BRANCH   3  11
ATOM      8  F   UNL     1      34.584 -19.303 -23.690  0.00  0.00    -0.204 F 
ATOM      9  F   UNL     1      34.793 -13.916 -22.771  0.00  0.00    -0.202 F 
ATOM     10  F   UNL     1      34.190 -14.859 -25.265  0.00  0.00    -0.202 F 
ATOM     11  C   UNL     1      34.944 -17.499 -22.190  0.00  0.00    +0.006 C 
ATOM     12  C   UNL     1      34.638 -17.984 -23.458  0.00  0.00    +0.138 C 
ATOM     13  C   UNL     1      34.998 -16.129 -21.953  0.00  0.00    +0.030 C 
ATOM     14  C   UNL     1      34.743 -15.235 -22.994  0.00  0.00    +0.167 C 
ATOM     15  C   UNL     1      34.383 -17.091 -24.499  0.00  0.00    +0.061 C 
ATOM     16  C   UNL     1      34.435 -15.716 -24.266  0.00  0.00    +0.170 C 
ENDBRANCH   3  11
BRANCH   4  17
ATOM     17  N   UNL     1      37.693 -18.408 -21.371  0.00  0.00    +0.383 N 
ATOM     18  H   UNL     1      37.578 -17.573 -20.797  0.00  0.00    -0.089 HD
ATOM     19  H   UNL     1      37.782 -18.138 -22.352  0.00  0.00    -0.089 HD
ATOM     20  H   UNL     1      38.533 -18.909 -21.079  0.00  0.00    -0.089 HD
ENDBRANCH   4  17
BRANCH   2  21
ATOM     21  C   UNL     1      35.798 -21.987 -18.618  0.00  0.00    +0.098 C 
BRANCH  21  22
ATOM     22  C   UNL     1      36.775 -21.591 -17.513  0.00  0.00    +0.048 C 
BRANCH  22  25
ATOM     23  O   UNL     1      37.863 -22.979 -12.901  0.00  0.00    -0.435 OA
ATOM     24  O   UNL     1      35.655 -23.865 -12.523  0.00  0.00    -0.435 OA
ATOM     25  C   UNL     1      36.438 -22.211 -16.179  0.00  0.00    -0.017 C 
ATOM     26  C   UNL     1      37.411 -22.259 -15.190  0.00  0.00    +0.036 C 
ATOM     27  C   UNL     1      35.154 -22.722 -15.974  0.00  0.00    -0.001 C 
ATOM     28  C   UNL     1      37.057 -22.836 -13.988  0.00  0.00    +0.176 C 
ATOM     29  C   UNL     1      35.795 -23.343 -13.772  0.00  0.00    +0.176 C 
ATOM     30  C   UNL     1      34.820 -23.301 -14.747  0.00  0.00    +0.040 C 
ATOM     31  C   UNL     1      36.968 -23.631 -11.978  0.00  0.00    +0.429 C 
ENDBRANCH  22  25
ENDBRANCH  21  22
ENDBRANCH   2  21
TORSDOF 5
ENDMDL
MODEL 8
REMARK VINA RESULT:     -10.9      4.155      6.877
REMARK  Name = 16040279
REMARK  5 active torsions:
REMARK  status: ('A' for Active; 'I' for Inactive)
REMARK    1  A    between atoms: N_2  and  C_21
REMARK    2  A    between atoms: C_3  and  C_11
REMARK    3  A    between atoms: C_4  and  N_17
REMARK    4  A    between atoms: C_21  and  C_22
REMARK    5  A    between atoms: C_22  and  C_25
REMARK                            x       y       z     vdW  Elec       q    Type
REMARK                         _______ _______ _______ _____ _____    ______ ____
ROOT
ATOM      1  O   UNL     1      36.699 -22.035 -18.070  0.00  0.00    -0.275 OA
ATOM      2  N   UNL     1      34.402 -22.122 -18.395  0.00  0.00    -0.281 N 
ATOM      3  C   UNL     1      34.682 -20.280 -20.583  0.00  0.00    +0.015 C 
ATOM      4  C   UNL     1      33.316 -20.420 -19.888  0.00  0.00    -0.041 C 
ATOM      5  C   UNL     1      33.246 -21.795 -19.227  0.00  0.00    +0.072 C 
ATOM      6  C   UNL     1      35.780 -20.397 -19.521  0.00  0.00    +0.088 C 
ATOM      7  C   UNL     1      35.678 -21.614 -18.621  0.00  0.00    +0.226 C 
ENDROOT
BRANCH   3  11
ATOM      8  F   UNL     1      34.926 -20.212 -23.409  0.00  0.00    -0.204 F 
ATOM      9  F   UNL     1      35.105 -15.416 -20.787  0.00  0.00    -0.202 F 
ATOM     10  F   UNL     1      35.328 -15.499 -23.510  0.00  0.00    -0.202 F 
ATOM     11  C   UNL     1      34.856 -18.993 -21.374  0.00  0.00    +0.006 C 
ATOM     12  C   UNL     1      34.970 -19.041 -22.760  0.00  0.00    +0.138 C 
ATOM     13  C   UNL     1      34.902 -17.774 -20.704  0.00  0.00    +0.030 C 
ATOM     14  C   UNL     1      35.061 -16.591 -21.427  0.00  0.00    +0.167 C 
ATOM     15  C   UNL     1      35.130 -17.858 -23.483  0.00  0.00    +0.061 C 
ATOM     16  C   UNL     1      35.175 -16.634 -22.816  0.00  0.00    +0.170 C 
ENDBRANCH   3  11
BRANCH   4  17
ATOM     17  N   UNL     1      32.203 -20.305 -20.834  0.00  0.00    +0.383 N 
ATOM     18  H   UNL     1      31.328 -20.517 -20.356  0.00  0.00    -0.089 HD
ATOM     19  H   UNL     1      32.340 -20.965 -21.601  0.00  0.00    -0.089 HD
ATOM     20  H   UNL     1      32.168 -19.355 -21.204  0.00  0.00    -0.089 HD
ENDBRANCH   4  17
BRANCH   2  21
ATOM     21  C   UNL     1      34.224 -23.231 -17.466  0.00  0.00    +0.098 C 
BRANCH  21  22
ATOM     22  C   UNL     1      33.870 -22.762 -16.056  0.00  0.00    +0.048 C 
BRANCH  22  25
ATOM     23  O   UNL     1      28.980 -22.651 -16.731  0.00  0.00    -0.435 OA
ATOM     24  O   UNL     1      28.557 -23.909 -14.720  0.00  0.00    -0.435 OA
ATOM     25  C   UNL     1      32.450 -23.089 -15.666  0.00  0.00    -0.017 C 
ATOM     26  C   UNL     1      31.408 -22.658 -16.477  0.00  0.00    +0.036 C 
ATOM     27  C   UNL     1      32.219 -23.818 -14.496  0.00  0.00    -0.001 C 
ATOM     28  C   UNL     1      30.127 -22.981 -16.078  0.00  0.00    +0.176 C 
ATOM     29  C   UNL     1      29.885 -23.699 -14.929  0.00  0.00    +0.176 C 
ATOM     30  C   UNL     1      30.912 -24.133 -14.115  0.00  0.00    +0.040 C 
ATOM     31  C   UNL     1      27.990 -23.242 -15.865  0.00  0.00    +0.429 C 
ENDBRANCH  22  25
ENDBRANCH  21  22
ENDBRANCH   2  21
TORSDOF 5
ENDMDL
MODEL 9
REMARK VINA RESULT:     -10.9      3.439      5.690
REMARK  Name = 16040279
REMARK  5 active torsions:
REMARK  status: ('A' for Active; 'I' for Inactive)
REMARK    1  A    between atoms: N_2  and  C_21
REMARK    2  A    between atoms: C_3  and  C_11
REMARK    3  A    between atoms: C_4  and  N_17
REMARK    4  A    between atoms: C_21  and  C_22
REMARK    5  A    between atoms: C_22  and  C_25
REMARK                            x       y       z     vdW  Elec       q    Type
REMARK                         _______ _______ _______ _____ _____    ______ ____
ROOT
ATOM      1  O   UNL     1      31.213 -11.910 -20.703  0.00  0.00    -0.275 OA
ATOM      2  N   UNL     1      32.778 -11.814 -22.415  0.00  0.00    -0.281 N 
ATOM      3  C   UNL     1      32.840  -8.954 -22.144  0.00  0.00    +0.015 C 
ATOM      4  C   UNL     1      33.303  -9.595 -23.465  0.00  0.00    -0.041 C 
ATOM      5  C   UNL     1      33.744 -11.029 -23.180  0.00  0.00    +0.072 C 
ATOM      6  C   UNL     1      31.655  -9.759 -21.604  0.00  0.00    +0.088 C 
ATOM      7  C   UNL     1      31.882 -11.255 -21.507  0.00  0.00    +0.226 C 
ENDROOT
BRANCH   3  11
ATOM      8  F   UNL     1      33.435  -7.041 -20.133  0.00  0.00    -0.204 F 
ATOM      9  F   UNL     1      30.814  -5.235 -24.581  0.00  0.00    -0.202 F 
ATOM     10  F   UNL     1      31.449  -3.501 -22.565  0.00  0.00    -0.202 F 
ATOM     11  C   UNL     1      32.466  -7.484 -22.255  0.00  0.00    +0.006 C 
ATOM     12  C   UNL     1      32.792  -6.606 -21.226  0.00  0.00    +0.138 C 
ATOM     13  C   UNL     1      31.799  -7.028 -23.387  0.00  0.00    +0.030 C 
ATOM     14  C   UNL     1      31.455  -5.679 -23.493  0.00  0.00    +0.167 C 
ATOM     15  C   UNL     1      32.447  -5.258 -21.330  0.00  0.00    +0.061 C 
ATOM     16  C   UNL     1      31.779  -4.795 -22.464  0.00  0.00    +0.170 C 
ENDBRANCH   3  11
BRANCH   4  17
ATOM     17  N   UNL     1      34.432  -8.875 -24.059  0.00  0.00    +0.383 N 
ATOM     18  H   UNL     1      35.210  -9.519 -24.201  0.00  0.00    -0.089 HD
ATOM     19  H   UNL     1      34.722  -8.122 -23.434  0.00  0.00    -0.089 HD
ATOM     20  H   UNL     1      34.149  -8.480 -24.957  0.00  0.00    -0.089 HD
ENDBRANCH   4  17
BRANCH   2  21
ATOM     21  C   UNL     1      32.972 -13.258 -22.437  0.00  0.00    +0.098 C 
BRANCH  21  22
ATOM     22  C   UNL     1      34.244 -13.667 -23.177  0.00  0.00    +0.048 C 
BRANCH  22  25
ATOM     23  O   UNL     1      35.586 -17.644 -20.577  0.00  0.00    -0.435 OA
ATOM     24  O   UNL     1      35.461 -19.087 -22.502  0.00  0.00    -0.435 OA
ATOM     25  C   UNL     1      34.565 -15.133 -23.031  0.00  0.00    -0.017 C 
ATOM     26  C   UNL     1      34.928 -15.626 -21.785  0.00  0.00    +0.036 C 
ATOM     27  C   UNL     1      34.490 -15.959 -24.156  0.00  0.00    -0.001 C 
ATOM     28  C   UNL     1      35.213 -16.974 -21.701  0.00  0.00    +0.176 C 
ATOM     29  C   UNL     1      35.142 -17.799 -22.801  0.00  0.00    +0.176 C 
ATOM     30  C   UNL     1      34.783 -17.320 -24.044  0.00  0.00    +0.040 C 
ATOM     31  C   UNL     1      35.741 -18.982 -21.092  0.00  0.00    +0.429 C 
ENDBRANCH  22  25
ENDBRANCH  21  22
ENDBRANCH   2  21
TORSDOF 5
ENDMDL
