MODEL 1
REMARK VINA RESULT:     -11.7      0.000      0.000
REMARK  Name = 15985904
REMARK  7 active torsions:
REMARK  status: ('A' for Active; 'I' for Inactive)
REMARK    1  A    between atoms: N_1  and  S_6
REMARK    2  A    between atoms: C_4  and  C_21
REMARK    3  A    between atoms: S_6  and  C_9
REMARK    4  A    between atoms: C_10  and  C_17
REMARK    5  A    between atoms: C_22  and  C_25
REMARK    6  A    between atoms: N_24  and  C_27
REMARK    7  A    between atoms: C_28  and  N_33
REMARK                            x       y       z     vdW  Elec       q    Type
REMARK                         _______ _______ _______ _____ _____    ______ ____
ROOT
ATOM      1  N   UNL     1      35.091 -17.028 -21.955  0.00  0.00    -0.167 N 
ATOM      2  C   UNL     1      34.882 -16.051 -22.839  0.00  0.00    +0.089 C 
ATOM      3  C   UNL     1      34.975 -16.649 -20.682  0.00  0.00    +0.089 C 
ATOM      4  C   UNL     1      34.603 -14.930 -22.089  0.00  0.00    +0.018 C 
ATOM      5  C   UNL     1      34.662 -15.308 -20.724  0.00  0.00    +0.019 C 
ENDROOT
BRANCH   1   6
ATOM      6  S   UNL     1      35.481 -18.646 -22.420  0.00  0.00    +0.080 S 
ATOM      7  O   UNL     1      36.931 -18.626 -22.481  0.00  0.00    -0.149 OA
ATOM      8  O   UNL     1      34.657 -18.935 -23.580  0.00  0.00    -0.149 OA
BRANCH   6   9
ATOM      9  C   UNL     1      34.942 -19.656 -21.102  0.00  0.00    +0.126 C 
ATOM     10  C   UNL     1      34.080 -21.269 -18.995  0.00  0.00    +0.003 C 
ATOM     11  C   UNL     1      33.578 -19.871 -20.900  0.00  0.00    +0.020 C 
ATOM     12  C   UNL     1      35.874 -20.249 -20.251  0.00  0.00    +0.020 C 
ATOM     13  C   UNL     1      33.148 -20.676 -19.847  0.00  0.00    +0.001 C 
ATOM     14  C   UNL     1      35.444 -21.055 -19.197  0.00  0.00    +0.001 C 
BRANCH  10  17
ATOM     15  N   UNL     1      32.328 -23.125 -16.503  0.00  0.00    -0.208 N 
ATOM     16  N   UNL     1      33.559 -23.512 -16.125  0.00  0.00    -0.176 NA
ATOM     17  C   UNL     1      33.637 -22.099 -17.910  0.00  0.00    +0.037 C 
ATOM     18  C   UNL     1      32.320 -22.277 -17.571  0.00  0.00    +0.086 C 
ATOM     19  C   UNL     1      34.354 -22.879 -16.991  0.00  0.00    +0.119 C 
ATOM     20  C   UNL     1      31.173 -23.613 -15.788  0.00  0.00    +0.140 C 
ENDBRANCH  10  17
ENDBRANCH   6   9
ENDBRANCH   1   6
BRANCH   4  21
ATOM     21  C   UNL     1      34.314 -13.654 -22.616  0.00  0.00    +0.006 C 
ATOM     22  C   UNL     1      34.123 -13.300 -23.919  0.00  0.00    +0.058 C 
BRANCH  22  25
ATOM     23  O   UNL     1      33.471 -11.600 -25.448  0.00  0.00    -0.270 OA
ATOM     24  N   UNL     1      33.995 -11.026 -23.233  0.00  0.00    -0.279 N 
ATOM     25  C   UNL     1      33.821 -11.886 -24.309  0.00  0.00    +0.250 C 
ATOM     26  H   UNL     1      34.283 -11.438 -22.386  0.00  0.00    +0.155 HD
BRANCH  24  27
ATOM     27  C   UNL     1      33.806  -9.622 -23.217  0.00  0.00    +0.064 C 
ATOM     28  C   UNL     1      32.655  -9.077 -22.671  0.00  0.00    +0.055 C 
ATOM     29  C   UNL     1      34.798  -8.819 -23.757  0.00  0.00    +0.016 C 
ATOM     30  C   UNL     1      32.491  -7.692 -22.666  0.00  0.00    +0.015 C 
ATOM     31  C   UNL     1      34.634  -7.434 -23.752  0.00  0.00    +0.001 C 
ATOM     32  C   UNL     1      33.480  -6.870 -23.207  0.00  0.00    +0.001 C 
BRANCH  28  33
ATOM     33  N   UNL     1      31.641  -9.889 -22.116  0.00  0.00    -0.356 N 
ATOM     34  H   UNL     1      30.703  -9.755 -22.384  0.00  0.00    +0.142 HD
ATOM     35  H   UNL     1      31.872 -10.588 -21.464  0.00  0.00    +0.142 HD
ENDBRANCH  28  33
ENDBRANCH  24  27
ENDBRANCH  22  25
ENDBRANCH   4  21
TORSDOF 7
ENDMDL
MODEL 2
REMARK VINA RESULT:     -11.2      2.295     11.812
REMARK  Name = 15985904
REMARK  7 active torsions:
REMARK  status: ('A' for Active; 'I' for Inactive)
REMARK    1  A    between atoms: N_1  and  S_6
REMARK    2  A    between atoms: C_4  and  C_21
REMARK    3  A    between atoms: S_6  and  C_9
REMARK    4  A    between atoms: C_10  and  C_17
REMARK    5  A    between atoms: C_22  and  C_25
REMARK    6  A    between atoms: N_24  and  C_27
REMARK    7  A    between atoms: C_28  and  N_33
REMARK                            x       y       z     vdW  Elec       q    Type
REMARK                         _______ _______ _______ _____ _____    ______ ____
ROOT
ATOM      1  N   UNL     1      34.929 -19.338 -21.305  0.00  0.00    -0.167 N 
ATOM      2  C   UNL     1      35.277 -20.077 -20.251  0.00  0.00    +0.089 C 
ATOM      3  C   UNL     1      33.641 -19.426 -21.636  0.00  0.00    +0.089 C 
ATOM      4  C   UNL     1      34.120 -20.709 -19.848  0.00  0.00    +0.018 C 
ATOM      5  C   UNL     1      33.086 -20.296 -20.724  0.00  0.00    +0.019 C 
ENDROOT
BRANCH   1   6
ATOM      6  S   UNL     1      36.054 -18.350 -22.169  0.00  0.00    +0.080 S 
ATOM      7  O   UNL     1      36.087 -18.969 -23.482  0.00  0.00    -0.149 OA
ATOM      8  O   UNL     1      37.230 -18.255 -21.324  0.00  0.00    -0.149 OA
BRANCH   6   9
ATOM      9  C   UNL     1      35.318 -16.769 -22.260  0.00  0.00    +0.126 C 
ATOM     10  C   UNL     1      34.144 -14.243 -22.405  0.00  0.00    +0.003 C 
ATOM     11  C   UNL     1      35.007 -16.215 -23.501  0.00  0.00    +0.020 C 
ATOM     12  C   UNL     1      35.042 -16.060 -21.091  0.00  0.00    +0.020 C 
ATOM     13  C   UNL     1      34.420 -14.952 -23.574  0.00  0.00    +0.001 C 
ATOM     14  C   UNL     1      34.455 -14.797 -21.163  0.00  0.00    +0.001 C 
BRANCH  10  17
ATOM     15  N   UNL     1      32.228 -11.253 -22.065  0.00  0.00    -0.208 N 
ATOM     16  N   UNL     1      33.014 -10.802 -23.058  0.00  0.00    -0.176 NA
ATOM     17  C   UNL     1      33.539 -12.943 -22.480  0.00  0.00    +0.037 C 
ATOM     18  C   UNL     1      32.503 -12.532 -21.681  0.00  0.00    +0.086 C 
ATOM     19  C   UNL     1      33.814 -11.842 -23.306  0.00  0.00    +0.119 C 
ATOM     20  C   UNL     1      31.210 -10.392 -21.511  0.00  0.00    +0.140 C 
ENDBRANCH  10  17
ENDBRANCH   6   9
ENDBRANCH   1   6
BRANCH   4  21
ATOM     21  C   UNL     1      34.021 -21.597 -18.757  0.00  0.00    +0.006 C 
ATOM     22  C   UNL     1      32.895 -22.116 -18.189  0.00  0.00    +0.058 C 
BRANCH  22  25
ATOM     23  O   UNL     1      33.927 -23.805 -16.870  0.00  0.00    -0.270 OA
ATOM     24  N   UNL     1      31.846 -22.935 -16.217  0.00  0.00    -0.279 N 
ATOM     25  C   UNL     1      32.969 -23.055 -17.025  0.00  0.00    +0.250 C 
ATOM     26  H   UNL     1      31.173 -22.274 -16.501  0.00  0.00    +0.155 HD
BRANCH  24  27
ATOM     27  C   UNL     1      31.560 -23.655 -15.031  0.00  0.00    +0.064 C 
ATOM     28  C   UNL     1      32.420 -23.589 -13.947  0.00  0.00    +0.055 C 
ATOM     29  C   UNL     1      30.405 -24.419 -14.989  0.00  0.00    +0.016 C 
ATOM     30  C   UNL     1      32.117 -24.306 -12.790  0.00  0.00    +0.015 C 
ATOM     31  C   UNL     1      30.102 -25.136 -13.832  0.00  0.00    +0.001 C 
ATOM     32  C   UNL     1      30.958 -25.081 -12.733  0.00  0.00    +0.001 C 
BRANCH  28  33
ATOM     33  N   UNL     1      33.598 -22.811 -13.982  0.00  0.00    -0.356 N 
ATOM     34  H   UNL     1      34.266 -22.897 -13.263  0.00  0.00    +0.142 HD
ATOM     35  H   UNL     1      33.753 -22.183 -14.724  0.00  0.00    +0.142 HD
ENDBRANCH  28  33
ENDBRANCH  24  27
ENDBRANCH  22  25
ENDBRANCH   4  21
TORSDOF 7
ENDMDL
MODEL 3
REMARK VINA RESULT:     -10.8      3.472      5.651
REMARK  Name = 15985904
REMARK  7 active torsions:
REMARK  status: ('A' for Active; 'I' for Inactive)
REMARK    1  A    between atoms: N_1  and  S_6
REMARK    2  A    between atoms: C_4  and  C_21
REMARK    3  A    between atoms: S_6  and  C_9
REMARK    4  A    between atoms: C_10  and  C_17
REMARK    5  A    between atoms: C_22  and  C_25
REMARK    6  A    between atoms: N_24  and  C_27
REMARK    7  A    between atoms: C_28  and  N_33
REMARK                            x       y       z     vdW  Elec       q    Type
REMARK                         _______ _______ _______ _____ _____    ______ ____
ROOT
ATOM      1  N   UNL     1      34.512 -21.375 -19.387  0.00  0.00    -0.167 N 
ATOM      2  C   UNL     1      33.975 -20.452 -20.184  0.00  0.00    +0.089 C 
ATOM      3  C   UNL     1      35.836 -21.285 -19.258  0.00  0.00    +0.089 C 
ATOM      4  C   UNL     1      35.032 -19.683 -20.620  0.00  0.00    +0.018 C 
ATOM      5  C   UNL     1      36.209 -20.211 -20.034  0.00  0.00    +0.019 C 
ENDROOT
BRANCH   1   6
ATOM      6  S   UNL     1      33.572 -22.588 -18.590  0.00  0.00    +0.080 S 
ATOM      7  O   UNL     1      33.822 -23.771 -19.393  0.00  0.00    -0.149 OA
ATOM      8  O   UNL     1      32.246 -22.021 -18.431  0.00  0.00    -0.149 OA
BRANCH   6   9
ATOM      9  C   UNL     1      34.284 -22.767 -17.005  0.00  0.00    +0.126 C 
ATOM     10  C   UNL     1      35.420 -23.054 -14.474  0.00  0.00    +0.003 C 
ATOM     11  C   UNL     1      35.615 -22.410 -16.794  0.00  0.00    +0.020 C 
ATOM     12  C   UNL     1      33.520 -23.266 -15.950  0.00  0.00    +0.020 C 
ATOM     13  C   UNL     1      36.184 -22.554 -15.529  0.00  0.00    +0.001 C 
ATOM     14  C   UNL     1      34.088 -23.410 -14.685  0.00  0.00    +0.001 C 
BRANCH  10  17
ATOM     15  N   UNL     1      36.268 -23.759 -11.081  0.00  0.00    -0.208 N 
ATOM     16  N   UNL     1      37.414 -23.123 -11.382  0.00  0.00    -0.176 NA
ATOM     17  C   UNL     1      36.006 -23.202 -13.171  0.00  0.00    +0.037 C 
ATOM     18  C   UNL     1      35.390 -23.834 -12.121  0.00  0.00    +0.086 C 
ATOM     19  C   UNL     1      37.245 -22.786 -12.662  0.00  0.00    +0.119 C 
ATOM     20  C   UNL     1      36.069 -24.286  -9.752  0.00  0.00    +0.140 C 
ENDBRANCH  10  17
ENDBRANCH   6   9
ENDBRANCH   1   6
BRANCH   4  21
ATOM     21  C   UNL     1      34.925 -18.578 -21.491  0.00  0.00    +0.006 C 
ATOM     22  C   UNL     1      34.803 -18.580 -22.849  0.00  0.00    +0.058 C 
BRANCH  22  25
ATOM     23  O   UNL     1      34.944 -17.267 -24.827  0.00  0.00    -0.270 OA
ATOM     24  N   UNL     1      34.309 -16.253 -22.807  0.00  0.00    -0.279 N 
ATOM     25  C   UNL     1      34.700 -17.304 -23.626  0.00  0.00    +0.250 C 
ATOM     26  H   UNL     1      34.156 -16.472 -21.859  0.00  0.00    +0.155 HD
BRANCH  24  27
ATOM     27  C   UNL     1      34.105 -14.902 -23.181  0.00  0.00    +0.064 C 
ATOM     28  C   UNL     1      34.194 -13.893 -22.236  0.00  0.00    +0.055 C 
ATOM     29  C   UNL     1      33.819 -14.624 -24.508  0.00  0.00    +0.016 C 
ATOM     30  C   UNL     1      33.990 -12.570 -22.628  0.00  0.00    +0.015 C 
ATOM     31  C   UNL     1      33.615 -13.301 -24.900  0.00  0.00    +0.001 C 
ATOM     32  C   UNL     1      33.700 -12.274 -23.960  0.00  0.00    +0.001 C 
BRANCH  28  33
ATOM     33  N   UNL     1      34.488 -14.169 -20.882  0.00  0.00    -0.356 N 
ATOM     34  H   UNL     1      33.884 -14.740 -20.355  0.00  0.00    +0.142 HD
ATOM     35  H   UNL     1      35.296 -13.791 -20.467  0.00  0.00    +0.142 HD
ENDBRANCH  28  33
ENDBRANCH  24  27
ENDBRANCH  22  25
ENDBRANCH   4  21
TORSDOF 7
ENDMDL
MODEL 4
REMARK VINA RESULT:     -10.7      1.939     11.482
REMARK  Name = 15985904
REMARK  7 active torsions:
REMARK  status: ('A' for Active; 'I' for Inactive)
REMARK    1  A    between atoms: N_1  and  S_6
REMARK    2  A    between atoms: C_4  and  C_21
REMARK    3  A    between atoms: S_6  and  C_9
REMARK    4  A    between atoms: C_10  and  C_17
REMARK    5  A    between atoms: C_22  and  C_25
REMARK    6  A    between atoms: N_24  and  C_27
REMARK    7  A    between atoms: C_28  and  N_33
REMARK                            x       y       z     vdW  Elec       q    Type
REMARK                         _______ _______ _______ _____ _____    ______ ____
ROOT
ATOM      1  N   UNL     1      34.729 -18.024 -22.719  0.00  0.00    -0.167 N 
ATOM      2  C   UNL     1      34.184 -19.127 -22.208  0.00  0.00    +0.089 C 
ATOM      3  C   UNL     1      35.696 -17.493 -21.971  0.00  0.00    +0.089 C 
ATOM      4  C   UNL     1      34.845 -19.348 -21.019  0.00  0.00    +0.018 C 
ATOM      5  C   UNL     1      35.802 -18.313 -20.870  0.00  0.00    +0.019 C 
ENDROOT
BRANCH   1   6
ATOM      6  S   UNL     1      34.225 -17.339 -24.224  0.00  0.00    +0.080 S 
ATOM      7  O   UNL     1      32.945 -17.982 -24.459  0.00  0.00    -0.149 OA
ATOM      8  O   UNL     1      35.350 -17.493 -25.127  0.00  0.00    -0.149 OA
BRANCH   6   9
ATOM      9  C   UNL     1      34.002 -15.635 -23.914  0.00  0.00    +0.126 C 
ATOM     10  C   UNL     1      33.645 -12.913 -23.419  0.00  0.00    +0.003 C 
ATOM     11  C   UNL     1      34.239 -15.122 -22.639  0.00  0.00    +0.020 C 
ATOM     12  C   UNL     1      33.588 -14.787 -24.942  0.00  0.00    +0.020 C 
ATOM     13  C   UNL     1      34.060 -13.761 -22.392  0.00  0.00    +0.001 C 
ATOM     14  C   UNL     1      33.409 -13.427 -24.694  0.00  0.00    +0.001 C 
BRANCH  10  17
ATOM     15  N   UNL     1      32.686  -9.654 -22.332  0.00  0.00    -0.208 N 
ATOM     16  N   UNL     1      33.638  -9.241 -23.186  0.00  0.00    -0.176 NA
ATOM     17  C   UNL     1      33.461 -11.512 -23.163  0.00  0.00    +0.037 C 
ATOM     18  C   UNL     1      32.541 -11.009 -22.281  0.00  0.00    +0.086 C 
ATOM     19  C   UNL     1      34.108 -10.384 -23.691  0.00  0.00    +0.119 C 
ATOM     20  C   UNL     1      31.933  -8.682 -21.576  0.00  0.00    +0.140 C 
ENDBRANCH  10  17
ENDBRANCH   6   9
ENDBRANCH   1   6
BRANCH   4  21
ATOM     21  C   UNL     1      34.591 -20.419 -20.137  0.00  0.00    +0.006 C 
ATOM     22  C   UNL     1      33.404 -21.034 -19.874  0.00  0.00    +0.058 C 
BRANCH  22  25
ATOM     23  O   UNL     1      33.838 -23.250 -19.128  0.00  0.00    -0.270 OA
ATOM     24  N   UNL     1      32.574 -21.803 -17.781  0.00  0.00    -0.279 N 
ATOM     25  C   UNL     1      33.310 -22.168 -18.900  0.00  0.00    +0.250 C 
ATOM     26  H   UNL     1      32.223 -20.882 -17.770  0.00  0.00    +0.155 HD
BRANCH  24  27
ATOM     27  C   UNL     1      32.272 -22.603 -16.652  0.00  0.00    +0.064 C 
ATOM     28  C   UNL     1      33.289 -23.103 -15.855  0.00  0.00    +0.055 C 
ATOM     29  C   UNL     1      30.941 -22.869 -16.372  0.00  0.00    +0.016 C 
ATOM     30  C   UNL     1      32.967 -23.889 -14.749  0.00  0.00    +0.015 C 
ATOM     31  C   UNL     1      30.619 -23.655 -15.266  0.00  0.00    +0.001 C 
ATOM     32  C   UNL     1      31.632 -24.166 -14.455  0.00  0.00    +0.001 C 
BRANCH  28  33
ATOM     33  N   UNL     1      34.648 -22.835 -16.133  0.00  0.00    -0.356 N 
ATOM     34  H   UNL     1      34.898 -22.021 -16.627  0.00  0.00    +0.142 HD
ATOM     35  H   UNL     1      35.345 -23.461 -15.832  0.00  0.00    +0.142 HD
ENDBRANCH  28  33
ENDBRANCH  24  27
ENDBRANCH  22  25
ENDBRANCH   4  21
TORSDOF 7
ENDMDL
MODEL 5
REMARK VINA RESULT:     -10.6      3.344     12.056
REMARK  Name = 15985904
REMARK  7 active torsions:
REMARK  status: ('A' for Active; 'I' for Inactive)
REMARK    1  A    between atoms: N_1  and  S_6
REMARK    2  A    between atoms: C_4  and  C_21
REMARK    3  A    between atoms: S_6  and  C_9
REMARK    4  A    between atoms: C_10  and  C_17
REMARK    5  A    between atoms: C_22  and  C_25
REMARK    6  A    between atoms: N_24  and  C_27
REMARK    7  A    between atoms: C_28  and  N_33
REMARK                            x       y       z     vdW  Elec       q    Type
REMARK                         _______ _______ _______ _____ _____    ______ ____
ROOT
ATOM      1  N   UNL     1      35.349 -19.828 -20.767  0.00  0.00    -0.167 N 
ATOM      2  C   UNL     1      35.907 -20.518 -19.772  0.00  0.00    +0.089 C 
ATOM      3  C   UNL     1      34.020 -19.912 -20.814  0.00  0.00    +0.089 C 
ATOM      4  C   UNL     1      34.859 -21.110 -19.102  0.00  0.00    +0.018 C 
ATOM      5  C   UNL     1      33.665 -20.726 -19.761  0.00  0.00    +0.019 C 
ENDROOT
BRANCH   1   6
ATOM      6  S   UNL     1      36.271 -18.904 -21.900  0.00  0.00    +0.080 S 
ATOM      7  O   UNL     1      36.070 -19.624 -23.145  0.00  0.00    -0.149 OA
ATOM      8  O   UNL     1      37.582 -18.736 -21.301  0.00  0.00    -0.149 OA
BRANCH   6   9
ATOM      9  C   UNL     1      35.498 -17.340 -21.970  0.00  0.00    +0.126 C 
ATOM     10  C   UNL     1      34.261 -14.842 -22.082  0.00  0.00    +0.003 C 
ATOM     11  C   UNL     1      35.214 -16.649 -20.792  0.00  0.00    +0.020 C 
ATOM     12  C   UNL     1      35.164 -16.781 -23.204  0.00  0.00    +0.020 C 
ATOM     13  C   UNL     1      34.595 -15.401 -20.848  0.00  0.00    +0.001 C 
ATOM     14  C   UNL     1      34.545 -15.533 -23.260  0.00  0.00    +0.001 C 
BRANCH  10  17
ATOM     15  N   UNL     1      32.295 -11.893 -21.678  0.00  0.00    -0.208 N 
ATOM     16  N   UNL     1      33.024 -11.434 -22.710  0.00  0.00    -0.176 NA
ATOM     17  C   UNL     1      33.624 -13.556 -22.139  0.00  0.00    +0.037 C 
ATOM     18  C   UNL     1      32.617 -13.162 -21.297  0.00  0.00    +0.086 C 
ATOM     19  C   UNL     1      33.835 -12.457 -22.986  0.00  0.00    +0.119 C 
ATOM     20  C   UNL     1      31.284 -11.051 -21.085  0.00  0.00    +0.140 C 
ENDBRANCH  10  17
ENDBRANCH   6   9
ENDBRANCH   1   6
BRANCH   4  21
ATOM     21  C   UNL     1      34.987 -21.940 -17.968  0.00  0.00    +0.006 C 
ATOM     22  C   UNL     1      35.991 -21.963 -17.046  0.00  0.00    +0.058 C 
BRANCH  22  25
ATOM     23  O   UNL     1      35.150 -23.825 -15.830  0.00  0.00    -0.270 OA
ATOM     24  N   UNL     1      36.968 -22.611 -14.976  0.00  0.00    -0.279 N 
ATOM     25  C   UNL     1      35.970 -22.917 -15.892  0.00  0.00    +0.250 C 
ATOM     26  H   UNL     1      37.539 -21.837 -15.194  0.00  0.00    +0.155 HD
BRANCH  24  27
ATOM     27  C   UNL     1      37.258 -23.285 -13.765  0.00  0.00    +0.064 C 
ATOM     28  C   UNL     1      37.734 -24.586 -13.784  0.00  0.00    +0.055 C 
ATOM     29  C   UNL     1      37.055 -22.609 -12.572  0.00  0.00    +0.016 C 
ATOM     30  C   UNL     1      38.012 -25.229 -12.578  0.00  0.00    +0.015 C 
ATOM     31  C   UNL     1      37.334 -23.252 -11.366  0.00  0.00    +0.001 C 
ATOM     32  C   UNL     1      37.812 -24.563 -11.369  0.00  0.00    +0.001 C 
BRANCH  28  33
ATOM     33  N   UNL     1      37.945 -25.281 -14.995  0.00  0.00    -0.356 N 
ATOM     34  H   UNL     1      38.089 -26.255 -14.985  0.00  0.00    +0.142 HD
ATOM     35  H   UNL     1      37.949 -24.791 -15.849  0.00  0.00    +0.142 HD
ENDBRANCH  28  33
ENDBRANCH  24  27
ENDBRANCH  22  25
ENDBRANCH   4  21
TORSDOF 7
ENDMDL
MODEL 6
REMARK VINA RESULT:     -10.6      2.260     11.672
REMARK  Name = 15985904
REMARK  7 active torsions:
REMARK  status: ('A' for Active; 'I' for Inactive)
REMARK    1  A    between atoms: N_1  and  S_6
REMARK    2  A    between atoms: C_4  and  C_21
REMARK    3  A    between atoms: S_6  and  C_9
REMARK    4  A    between atoms: C_10  and  C_17
REMARK    5  A    between atoms: C_22  and  C_25
REMARK    6  A    between atoms: N_24  and  C_27
REMARK    7  A    between atoms: C_28  and  N_33
REMARK                            x       y       z     vdW  Elec       q    Type
REMARK                         _______ _______ _______ _____ _____    ______ ____
ROOT
ATOM      1  N   UNL     1      34.853 -17.901 -22.755  0.00  0.00    -0.167 N 
ATOM      2  C   UNL     1      34.284 -18.966 -22.189  0.00  0.00    +0.089 C 
ATOM      3  C   UNL     1      35.886 -17.405 -22.074  0.00  0.00    +0.089 C 
ATOM      4  C   UNL     1      35.001 -19.196 -21.035  0.00  0.00    +0.018 C 
ATOM      5  C   UNL     1      36.014 -18.208 -20.963  0.00  0.00    +0.019 C 
ENDROOT
BRANCH   1   6
ATOM      6  S   UNL     1      34.298 -17.222 -24.245  0.00  0.00    +0.080 S 
ATOM      7  O   UNL     1      33.021 -17.882 -24.446  0.00  0.00    -0.149 OA
ATOM      8  O   UNL     1      35.400 -17.359 -25.179  0.00  0.00    -0.149 OA
BRANCH   6   9
ATOM      9  C   UNL     1      34.061 -15.522 -23.926  0.00  0.00    +0.126 C 
ATOM     10  C   UNL     1      33.683 -12.805 -23.417  0.00  0.00    +0.003 C 
ATOM     11  C   UNL     1      33.581 -14.684 -24.932  0.00  0.00    +0.020 C 
ATOM     12  C   UNL     1      34.351 -15.001 -22.665  0.00  0.00    +0.020 C 
ATOM     13  C   UNL     1      33.393 -13.326 -24.678  0.00  0.00    +0.001 C 
ATOM     14  C   UNL     1      34.163 -13.643 -22.410  0.00  0.00    +0.001 C 
BRANCH  10  17
ATOM     15  N   UNL     1      32.681  -9.556 -22.337  0.00  0.00    -0.208 N 
ATOM     16  N   UNL     1      33.665  -9.135 -23.150  0.00  0.00    -0.176 NA
ATOM     17  C   UNL     1      33.489 -11.407 -23.155  0.00  0.00    +0.037 C 
ATOM     18  C   UNL     1      32.535 -10.912 -22.304  0.00  0.00    +0.086 C 
ATOM     19  C   UNL     1      34.155 -10.273 -23.647  0.00  0.00    +0.119 C 
ATOM     20  C   UNL     1      31.899  -8.592 -21.600  0.00  0.00    +0.140 C 
ENDBRANCH  10  17
ENDBRANCH   6   9
ENDBRANCH   1   6
BRANCH   4  21
ATOM     21  C   UNL     1      34.746 -20.236 -20.117  0.00  0.00    +0.006 C 
ATOM     22  C   UNL     1      35.644 -20.988 -19.419  0.00  0.00    +0.058 C 
BRANCH  22  25
ATOM     23  O   UNL     1      34.414 -22.935 -18.827  0.00  0.00    -0.270 OA
ATOM     24  N   UNL     1      35.786 -21.902 -17.227  0.00  0.00    -0.279 N 
ATOM     25  C   UNL     1      35.198 -22.061 -18.475  0.00  0.00    +0.250 C 
ATOM     26  H   UNL     1      36.396 -21.134 -17.127  0.00  0.00    +0.155 HD
BRANCH  24  27
ATOM     27  C   UNL     1      35.608 -22.717 -16.083  0.00  0.00    +0.064 C 
ATOM     28  C   UNL     1      36.705 -23.176 -15.373  0.00  0.00    +0.055 C 
ATOM     29  C   UNL     1      34.316 -23.037 -15.699  0.00  0.00    +0.016 C 
ATOM     30  C   UNL     1      36.505 -23.978 -14.249  0.00  0.00    +0.015 C 
ATOM     31  C   UNL     1      34.115 -23.838 -14.576  0.00  0.00    +0.001 C 
ATOM     32  C   UNL     1      35.209 -24.309 -13.851  0.00  0.00    +0.001 C 
BRANCH  28  33
ATOM     33  N   UNL     1      38.025 -22.853 -15.756  0.00  0.00    -0.356 N 
ATOM     34  H   UNL     1      38.522 -22.156 -15.269  0.00  0.00    +0.142 HD
ATOM     35  H   UNL     1      38.449 -23.323 -16.510  0.00  0.00    +0.142 HD
ENDBRANCH  28  33
ENDBRANCH  24  27
ENDBRANCH  22  25
ENDBRANCH   4  21
TORSDOF 7
ENDMDL
MODEL 7
REMARK VINA RESULT:     -10.5      5.330      8.406
REMARK  Name = 15985904
REMARK  7 active torsions:
REMARK  status: ('A' for Active; 'I' for Inactive)
REMARK    1  A    between atoms: N_1  and  S_6
REMARK    2  A    between atoms: C_4  and  C_21
REMARK    3  A    between atoms: S_6  and  C_9
REMARK    4  A    between atoms: C_10  and  C_17
REMARK    5  A    between atoms: C_22  and  C_25
REMARK    6  A    between atoms: N_24  and  C_27
REMARK    7  A    between atoms: C_28  and  N_33
REMARK                            x       y       z     vdW  Elec       q    Type
REMARK                         _______ _______ _______ _____ _____    ______ ____
ROOT
ATOM      1  N   UNL     1      36.333 -23.153 -15.391  0.00  0.00    -0.167 N 
ATOM      2  C   UNL     1      35.963 -22.601 -16.547  0.00  0.00    +0.089 C 
ATOM      3  C   UNL     1      37.482 -22.686 -14.903  0.00  0.00    +0.089 C 
ATOM      4  C   UNL     1      36.951 -21.690 -16.852  0.00  0.00    +0.018 C 
ATOM      5  C   UNL     1      37.912 -21.744 -15.812  0.00  0.00    +0.019 C 
ENDROOT
BRANCH   1   6
ATOM      6  S   UNL     1      35.401 -24.371 -14.593  0.00  0.00    +0.080 S 
ATOM      7  O   UNL     1      35.790 -24.217 -13.202  0.00  0.00    -0.149 OA
ATOM      8  O   UNL     1      35.634 -25.597 -15.333  0.00  0.00    -0.149 OA
BRANCH   6   9
ATOM      9  C   UNL     1      33.733 -23.907 -14.814  0.00  0.00    +0.126 C 
ATOM     10  C   UNL     1      31.067 -23.166 -15.168  0.00  0.00    +0.003 C 
ATOM     11  C   UNL     1      32.861 -23.901 -13.726  0.00  0.00    +0.020 C 
ATOM     12  C   UNL     1      33.272 -23.542 -16.079  0.00  0.00    +0.020 C 
ATOM     13  C   UNL     1      31.528 -23.532 -13.903  0.00  0.00    +0.001 C 
ATOM     14  C   UNL     1      31.939 -23.172 -16.256  0.00  0.00    +0.001 C 
BRANCH  10  17
ATOM     15  N   UNL     1      27.779 -22.374 -16.302  0.00  0.00    -0.208 N 
ATOM     16  N   UNL     1      27.553 -22.086 -15.009  0.00  0.00    -0.176 NA
ATOM     17  C   UNL     1      29.694 -22.785 -15.349  0.00  0.00    +0.037 C 
ATOM     18  C   UNL     1      29.049 -22.799 -16.559  0.00  0.00    +0.086 C 
ATOM     19  C   UNL     1      28.730 -22.340 -14.432  0.00  0.00    +0.119 C 
ATOM     20  C   UNL     1      26.716 -22.221 -17.267  0.00  0.00    +0.140 C 
ENDBRANCH  10  17
ENDBRANCH   6   9
ENDBRANCH   1   6
BRANCH   4  21
ATOM     21  C   UNL     1      36.969 -20.869 -17.998  0.00  0.00    +0.006 C 
ATOM     22  C   UNL     1      36.172 -20.939 -19.102  0.00  0.00    +0.058 C 
BRANCH  22  25
ATOM     23  O   UNL     1      37.410 -19.468 -20.501  0.00  0.00    -0.270 OA
ATOM     24  N   UNL     1      35.118 -19.785 -20.896  0.00  0.00    -0.279 N 
ATOM     25  C   UNL     1      36.326 -19.979 -20.240  0.00  0.00    +0.250 C 
ATOM     26  H   UNL     1      34.345 -20.284 -20.542  0.00  0.00    +0.155 HD
BRANCH  24  27
ATOM     27  C   UNL     1      34.871 -18.952 -22.014  0.00  0.00    +0.064 C 
ATOM     28  C   UNL     1      35.068 -17.583 -21.925  0.00  0.00    +0.055 C 
ATOM     29  C   UNL     1      34.431 -19.542 -23.188  0.00  0.00    +0.016 C 
ATOM     30  C   UNL     1      34.818 -16.783 -23.040  0.00  0.00    +0.015 C 
ATOM     31  C   UNL     1      34.180 -18.742 -24.303  0.00  0.00    +0.001 C 
ATOM     32  C   UNL     1      34.374 -17.362 -24.229  0.00  0.00    +0.001 C 
BRANCH  28  33
ATOM     33  N   UNL     1      35.518 -16.975 -20.733  0.00  0.00    -0.356 N 
ATOM     34  H   UNL     1      35.220 -16.066 -20.501  0.00  0.00    +0.142 HD
ATOM     35  H   UNL     1      36.130 -17.460 -20.133  0.00  0.00    +0.142 HD
ENDBRANCH  28  33
ENDBRANCH  24  27
ENDBRANCH  22  25
ENDBRANCH   4  21
TORSDOF 7
ENDMDL
MODEL 8
REMARK VINA RESULT:     -10.3      2.217      3.209
REMARK  Name = 15985904
REMARK  7 active torsions:
REMARK  status: ('A' for Active; 'I' for Inactive)
REMARK    1  A    between atoms: N_1  and  S_6
REMARK    2  A    between atoms: C_4  and  C_21
REMARK    3  A    between atoms: S_6  and  C_9
REMARK    4  A    between atoms: C_10  and  C_17
REMARK    5  A    between atoms: C_22  and  C_25
REMARK    6  A    between atoms: N_24  and  C_27
REMARK    7  A    between atoms: C_28  and  N_33
REMARK                            x       y       z     vdW  Elec       q    Type
REMARK                         _______ _______ _______ _____ _____    ______ ____
ROOT
ATOM      1  N   UNL     1      34.189 -14.579 -23.289  0.00  0.00    -0.167 N 
ATOM      2  C   UNL     1      34.157 -13.366 -23.839  0.00  0.00    +0.089 C 
ATOM      3  C   UNL     1      33.803 -14.613 -22.013  0.00  0.00    +0.089 C 
ATOM      4  C   UNL     1      33.711 -12.523 -22.845  0.00  0.00    +0.018 C 
ATOM      5  C   UNL     1      33.487 -13.312 -21.689  0.00  0.00    +0.019 C 
ENDROOT
BRANCH   1   6
ATOM      6  S   UNL     1      34.689 -15.989 -24.155  0.00  0.00    +0.080 S 
ATOM      7  O   UNL     1      36.015 -15.628 -24.623  0.00  0.00    -0.149 OA
ATOM      8  O   UNL     1      33.602 -16.304 -25.063  0.00  0.00    -0.149 OA
BRANCH   6   9
ATOM      9  C   UNL     1      34.791 -17.261 -22.963  0.00  0.00    +0.126 C 
ATOM     10  C   UNL     1      34.952 -19.293 -21.058  0.00  0.00    +0.003 C 
ATOM     11  C   UNL     1      34.158 -18.483 -23.191  0.00  0.00    +0.020 C 
ATOM     12  C   UNL     1      35.504 -17.055 -21.782  0.00  0.00    +0.020 C 
ATOM     13  C   UNL     1      34.239 -19.499 -22.239  0.00  0.00    +0.001 C 
ATOM     14  C   UNL     1      35.584 -18.071 -20.829  0.00  0.00    +0.001 C 
BRANCH  10  17
ATOM     15  N   UNL     1      34.447 -21.876 -18.650  0.00  0.00    -0.208 N 
ATOM     16  N   UNL     1      35.790 -21.901 -18.601  0.00  0.00    -0.176 NA
ATOM     17  C   UNL     1      35.034 -20.339 -20.077  0.00  0.00    +0.037 C 
ATOM     18  C   UNL     1      33.943 -20.956 -19.522  0.00  0.00    +0.086 C 
ATOM     19  C   UNL     1      36.142 -20.957 -19.477  0.00  0.00    +0.119 C 
ATOM     20  C   UNL     1      33.683 -22.779 -17.822  0.00  0.00    +0.140 C 
ENDBRANCH  10  17
ENDBRANCH   6   9
ENDBRANCH   1   6
BRANCH   4  21
ATOM     21  C   UNL     1      33.523 -11.132 -22.986  0.00  0.00    +0.006 C 
ATOM     22  C   UNL     1      34.397 -10.205 -23.472  0.00  0.00    +0.058 C 
BRANCH  22  25
ATOM     23  O   UNL     1      34.596  -7.999 -24.338  0.00  0.00    -0.270 OA
ATOM     24  N   UNL     1      33.022  -8.444 -22.654  0.00  0.00    -0.279 N 
ATOM     25  C   UNL     1      34.032  -8.755 -23.554  0.00  0.00    +0.250 C 
ATOM     26  H   UNL     1      32.687  -9.186 -22.099  0.00  0.00    +0.155 HD
BRANCH  24  27
ATOM     27  C   UNL     1      32.418  -7.180 -22.443  0.00  0.00    +0.064 C 
ATOM     28  C   UNL     1      32.445  -6.591 -21.189  0.00  0.00    +0.055 C 
ATOM     29  C   UNL     1      31.806  -6.557 -23.519  0.00  0.00    +0.016 C 
ATOM     30  C   UNL     1      31.843  -5.347 -21.006  0.00  0.00    +0.015 C 
ATOM     31  C   UNL     1      31.204  -5.312 -23.336  0.00  0.00    +0.001 C 
ATOM     32  C   UNL     1      31.222  -4.707 -22.079  0.00  0.00    +0.001 C 
BRANCH  28  33
ATOM     33  N   UNL     1      33.068  -7.220 -20.089  0.00  0.00    -0.356 N 
ATOM     34  H   UNL     1      33.631  -6.693 -19.476  0.00  0.00    +0.142 HD
ATOM     35  H   UNL     1      32.940  -8.183 -19.933  0.00  0.00    +0.142 HD
ENDBRANCH  28  33
ENDBRANCH  24  27
ENDBRANCH  22  25
ENDBRANCH   4  21
TORSDOF 7
ENDMDL
MODEL 9
REMARK VINA RESULT:     -10.1      6.401     10.601
REMARK  Name = 15985904
REMARK  7 active torsions:
REMARK  status: ('A' for Active; 'I' for Inactive)
REMARK    1  A    between atoms: N_1  and  S_6
REMARK    2  A    between atoms: C_4  and  C_21
REMARK    3  A    between atoms: S_6  and  C_9
REMARK    4  A    between atoms: C_10  and  C_17
REMARK    5  A    between atoms: C_22  and  C_25
REMARK    6  A    between atoms: N_24  and  C_27
REMARK    7  A    between atoms: C_28  and  N_33
REMARK                            x       y       z     vdW  Elec       q    Type
REMARK                         _______ _______ _______ _____ _____    ______ ____
ROOT
ATOM      1  N   UNL     1      34.639 -23.887 -13.863  0.00  0.00    -0.167 N 
ATOM      2  C   UNL     1      34.958 -23.267 -14.999  0.00  0.00    +0.089 C 
ATOM      3  C   UNL     1      33.346 -24.186 -13.746  0.00  0.00    +0.089 C 
ATOM      4  C   UNL     1      33.775 -23.145 -15.695  0.00  0.00    +0.018 C 
ATOM      5  C   UNL     1      32.755 -23.726 -14.902  0.00  0.00    +0.019 C 
ENDROOT
BRANCH   1   6
ATOM      6  S   UNL     1      35.805 -24.270 -12.645  0.00  0.00    +0.080 S 
ATOM      7  O   UNL     1      35.006 -24.931 -11.629  0.00  0.00    -0.149 OA
ATOM      8  O   UNL     1      36.528 -23.039 -12.387  0.00  0.00    -0.149 OA
BRANCH   6   9
ATOM      9  C   UNL     1      36.905 -25.405 -13.387  0.00  0.00    +0.126 C 
ATOM     10  C   UNL     1      38.662 -27.217 -14.575  0.00  0.00    +0.003 C 
ATOM     11  C   UNL     1      38.224 -25.489 -12.944  0.00  0.00    +0.020 C 
ATOM     12  C   UNL     1      36.464 -26.227 -14.424  0.00  0.00    +0.020 C 
ATOM     13  C   UNL     1      39.103 -26.394 -13.538  0.00  0.00    +0.001 C 
ATOM     14  C   UNL     1      37.343 -27.133 -15.018  0.00  0.00    +0.001 C 
BRANCH  10  17
ATOM     15  N   UNL     1      41.365 -29.310 -15.593  0.00  0.00    -0.208 N 
ATOM     16  N   UNL     1      40.502 -29.730 -16.535  0.00  0.00    -0.176 NA
ATOM     17  C   UNL     1      39.567 -28.149 -15.186  0.00  0.00    +0.037 C 
ATOM     18  C   UNL     1      40.852 -28.362 -14.758  0.00  0.00    +0.086 C 
ATOM     19  C   UNL     1      39.404 -29.014 -16.278  0.00  0.00    +0.119 C 
ATOM     20  C   UNL     1      42.695 -29.868 -15.542  0.00  0.00    +0.140 C 
ENDBRANCH  10  17
ENDBRANCH   6   9
ENDBRANCH   1   6
BRANCH   4  21
ATOM     21  C   UNL     1      33.641 -22.545 -16.965  0.00  0.00    +0.006 C 
ATOM     22  C   UNL     1      34.622 -22.077 -17.788  0.00  0.00    +0.058 C 
BRANCH  22  25
ATOM     23  O   UNL     1      33.313 -21.804 -19.754  0.00  0.00    -0.270 OA
ATOM     24  N   UNL     1      35.253 -20.514 -19.467  0.00  0.00    -0.279 N 
ATOM     25  C   UNL     1      34.302 -21.463 -19.116  0.00  0.00    +0.250 C 
ATOM     26  H   UNL     1      35.986 -20.372 -18.824  0.00  0.00    +0.155 HD
BRANCH  24  27
ATOM     27  C   UNL     1      35.288 -19.729 -20.645  0.00  0.00    +0.064 C 
ATOM     28  C   UNL     1      36.330 -18.842 -20.864  0.00  0.00    +0.055 C 
ATOM     29  C   UNL     1      34.260 -19.873 -21.562  0.00  0.00    +0.016 C 
ATOM     30  C   UNL     1      36.343 -18.078 -22.032  0.00  0.00    +0.015 C 
ATOM     31  C   UNL     1      34.273 -19.110 -22.730  0.00  0.00    +0.001 C 
ATOM     32  C   UNL     1      35.314 -18.212 -22.964  0.00  0.00    +0.001 C 
BRANCH  28  33
ATOM     33  N   UNL     1      37.383 -18.690 -19.935  0.00  0.00    -0.356 N 
ATOM     34  H   UNL     1      37.197 -18.737 -18.969  0.00  0.00    +0.142 HD
ATOM     35  H   UNL     1      38.302 -18.538 -20.252  0.00  0.00    +0.142 HD
ENDBRANCH  28  33
ENDBRANCH  24  27
ENDBRANCH  22  25
ENDBRANCH   4  21
TORSDOF 7
ENDMDL
