MODEL 1
REMARK VINA RESULT:     -11.7      0.000      0.000
REMARK  Name = 6918151
REMARK  4 active torsions:
REMARK  status: ('A' for Active; 'I' for Inactive)
REMARK    1  A    between atoms: C_2  and  C_11
REMARK    2  A    between atoms: C_7  and  C_18
REMARK    3  A    between atoms: C_11  and  C_12
REMARK    4  A    between atoms: C_18  and  C_23
REMARK                            x       y       z     vdW  Elec       q    Type
REMARK                         _______ _______ _______ _____ _____    ______ ____
ROOT
ATOM      1  O   UNL     1      35.768 -20.023 -20.114  0.00  0.00    -0.479 OA
ATOM      2  C   UNL     1      35.007 -19.032 -20.822  0.00  0.00    +0.171 C 
ATOM      3  C   UNL     1      33.783 -19.649 -21.497  0.00  0.00    +0.049 C 
ATOM      4  C   UNL     1      32.857 -20.218 -20.428  0.00  0.00    +0.033 C 
ATOM      5  C   UNL     1      33.642 -21.003 -19.418  0.00  0.00    +0.012 C 
ATOM      6  C   UNL     1      35.031 -20.855 -19.311  0.00  0.00    +0.134 C 
ATOM      7  C   UNL     1      33.698 -22.617 -17.605  0.00  0.00    -0.021 C 
ATOM      8  C   UNL     1      32.980 -21.880 -18.548  0.00  0.00    -0.006 C 
ATOM      9  C   UNL     1      35.750 -21.603 -18.375  0.00  0.00    +0.036 C 
ATOM     10  C   UNL     1      35.082 -22.481 -17.521  0.00  0.00    -0.001 C 
ENDROOT
BRANCH   2  11
ATOM     11  C   UNL     1      35.935 -18.404 -21.854  0.00  0.00    +0.070 C 
BRANCH  11  12
ATOM     12  C   UNL     1      35.306 -17.204 -22.511  0.00  0.00    -0.019 C 
ATOM     13  C   UNL     1      35.114 -16.043 -21.774  0.00  0.00    -0.004 C 
ATOM     14  C   UNL     1      34.927 -17.275 -23.845  0.00  0.00    -0.004 C 
ATOM     15  C   UNL     1      34.531 -14.932 -22.383  0.00  0.00    -0.000 C 
ATOM     16  C   UNL     1      34.345 -16.163 -24.453  0.00  0.00    -0.000 C 
ATOM     17  C   UNL     1      34.146 -14.992 -23.722  0.00  0.00    -0.000 C 
ENDBRANCH  11  12
ENDBRANCH   2  11
BRANCH   7  18
ATOM     18  C   UNL     1      32.984 -23.551 -16.688  0.00  0.00    +0.047 C 
BRANCH  18  23
ATOM     19  S   UNL     1      32.755 -23.554 -13.938  0.00  0.00    -0.048 S 
ATOM     20  O   UNL     1      30.139 -22.583 -16.604  0.00  0.00    -0.274 OA
ATOM     21  O   UNL     1      30.790 -24.386 -12.402  0.00  0.00    -0.263 OA
ATOM     22  N   UNL     1      30.260 -23.495 -14.482  0.00  0.00    -0.246 N 
ATOM     23  C   UNL     1      32.295 -22.822 -15.537  0.00  0.00    +0.137 C 
ATOM     24  C   UNL     1      30.791 -22.941 -15.628  0.00  0.00    +0.239 C 
ATOM     25  C   UNL     1      31.101 -23.883 -13.471  0.00  0.00    +0.279 C 
ATOM     26  H   UNL     1      29.287 -23.610 -14.391  0.00  0.00    +0.158 HD
ENDBRANCH  18  23
ENDBRANCH   7  18
TORSDOF 4
ENDMDL
MODEL 2
REMARK VINA RESULT:     -10.8      0.991      1.900
REMARK  Name = 6918151
REMARK  4 active torsions:
REMARK  status: ('A' for Active; 'I' for Inactive)
REMARK    1  A    between atoms: C_2  and  C_11
REMARK    2  A    between atoms: C_7  and  C_18
REMARK    3  A    between atoms: C_11  and  C_12
REMARK    4  A    between atoms: C_18  and  C_23
REMARK                            x       y       z     vdW  Elec       q    Type
REMARK                         _______ _______ _______ _____ _____    ______ ____
ROOT
ATOM      1  O   UNL     1      34.745 -19.672 -20.434  0.00  0.00    -0.479 OA
ATOM      2  C   UNL     1      36.127 -19.814 -20.797  0.00  0.00    +0.171 C 
ATOM      3  C   UNL     1      37.005 -20.028 -19.565  0.00  0.00    +0.049 C 
ATOM      4  C   UNL     1      36.604 -21.333 -18.887  0.00  0.00    +0.033 C 
ATOM      5  C   UNL     1      35.110 -21.430 -18.778  0.00  0.00    +0.012 C 
ATOM      6  C   UNL     1      34.276 -20.615 -19.555  0.00  0.00    +0.134 C 
ATOM      7  C   UNL     1      33.145 -22.464 -17.798  0.00  0.00    -0.021 C 
ATOM      8  C   UNL     1      34.532 -22.365 -17.909  0.00  0.00    -0.006 C 
ATOM      9  C   UNL     1      32.888 -20.707 -19.434  0.00  0.00    +0.036 C 
ATOM     10  C   UNL     1      32.323 -21.633 -18.558  0.00  0.00    -0.001 C 
ENDROOT
BRANCH   2  11
ATOM     11  C   UNL     1      36.532 -18.544 -21.536  0.00  0.00    +0.070 C 
BRANCH  11  12
ATOM     12  C   UNL     1      35.552 -18.197 -22.624  0.00  0.00    -0.019 C 
ATOM     13  C   UNL     1      35.332 -16.864 -22.946  0.00  0.00    -0.004 C 
ATOM     14  C   UNL     1      34.882 -19.213 -23.292  0.00  0.00    -0.004 C 
ATOM     15  C   UNL     1      34.424 -16.541 -23.954  0.00  0.00    -0.000 C 
ATOM     16  C   UNL     1      33.975 -18.890 -24.301  0.00  0.00    -0.000 C 
ATOM     17  C   UNL     1      33.745 -17.555 -24.631  0.00  0.00    -0.000 C 
ENDBRANCH  11  12
ENDBRANCH   2  11
BRANCH   7  18
ATOM     18  C   UNL     1      32.541 -23.458 -16.865  0.00  0.00    +0.047 C 
BRANCH  18  23
ATOM     19  S   UNL     1      32.557 -23.561 -14.107  0.00  0.00    -0.048 S 
ATOM     20  O   UNL     1      29.675 -22.625 -16.499  0.00  0.00    -0.274 OA
ATOM     21  O   UNL     1      30.772 -24.532 -12.438  0.00  0.00    -0.263 OA
ATOM     22  N   UNL     1      30.022 -23.599 -14.430  0.00  0.00    -0.246 N 
ATOM     23  C   UNL     1      31.926 -22.799 -15.633  0.00  0.00    +0.137 C 
ATOM     24  C   UNL     1      30.426 -22.984 -15.597  0.00  0.00    +0.239 C 
ATOM     25  C   UNL     1      30.965 -23.980 -13.511  0.00  0.00    +0.279 C 
ATOM     26  H   UNL     1      29.067 -23.762 -14.259  0.00  0.00    +0.158 HD
ENDBRANCH  18  23
ENDBRANCH   7  18
TORSDOF 4
ENDMDL
MODEL 3
REMARK VINA RESULT:     -10.8      3.495      9.196
REMARK  Name = 6918151
REMARK  4 active torsions:
REMARK  status: ('A' for Active; 'I' for Inactive)
REMARK    1  A    between atoms: C_2  and  C_11
REMARK    2  A    between atoms: C_7  and  C_18
REMARK    3  A    between atoms: C_11  and  C_12
REMARK    4  A    between atoms: C_18  and  C_23
REMARK                            x       y       z     vdW  Elec       q    Type
REMARK                         _______ _______ _______ _____ _____    ______ ____
ROOT
ATOM      1  O   UNL     1      32.988 -23.242 -15.969  0.00  0.00    -0.479 OA
ATOM      2  C   UNL     1      33.588 -23.259 -14.665  0.00  0.00    +0.171 C 
ATOM      3  C   UNL     1      35.028 -23.764 -14.722  0.00  0.00    +0.049 C 
ATOM      4  C   UNL     1      35.860 -22.804 -15.564  0.00  0.00    +0.033 C 
ATOM      5  C   UNL     1      35.132 -22.446 -16.827  0.00  0.00    +0.012 C 
ATOM      6  C   UNL     1      33.755 -22.670 -16.953  0.00  0.00    +0.134 C 
ATOM      7  C   UNL     1      35.161 -21.519 -19.070  0.00  0.00    -0.021 C 
ATOM      8  C   UNL     1      35.827 -21.855 -17.891  0.00  0.00    -0.006 C 
ATOM      9  C   UNL     1      33.092 -22.345 -18.139  0.00  0.00    +0.036 C 
ATOM     10  C   UNL     1      33.796 -21.767 -19.195  0.00  0.00    -0.001 C 
ENDROOT
BRANCH   2  11
ATOM     11  C   UNL     1      32.732 -24.164 -13.787  0.00  0.00    +0.070 C 
BRANCH  11  12
ATOM     12  C   UNL     1      31.272 -24.063 -14.140  0.00  0.00    -0.019 C 
ATOM     13  C   UNL     1      30.508 -25.220 -14.227  0.00  0.00    -0.004 C 
ATOM     14  C   UNL     1      30.709 -22.816 -14.373  0.00  0.00    -0.004 C 
ATOM     15  C   UNL     1      29.156 -25.127 -14.553  0.00  0.00    -0.000 C 
ATOM     16  C   UNL     1      29.355 -22.724 -14.699  0.00  0.00    -0.000 C 
ATOM     17  C   UNL     1      28.579 -23.879 -14.790  0.00  0.00    -0.000 C 
ENDBRANCH  11  12
ENDBRANCH   2  11
BRANCH   7  18
ATOM     18  C   UNL     1      35.912 -20.895 -20.198  0.00  0.00    +0.047 C 
BRANCH  18  23
ATOM     19  S   UNL     1      34.396 -19.370 -21.928  0.00  0.00    -0.048 S 
ATOM     20  O   UNL     1      37.605 -18.418 -20.005  0.00  0.00    -0.274 OA
ATOM     21  O   UNL     1      35.146 -17.748 -23.857  0.00  0.00    -0.263 OA
ATOM     22  N   UNL     1      36.514 -17.941 -21.988  0.00  0.00    -0.246 N 
ATOM     23  C   UNL     1      35.471 -19.458 -20.464  0.00  0.00    +0.137 C 
ATOM     24  C   UNL     1      36.652 -18.564 -20.765  0.00  0.00    +0.239 C 
ATOM     25  C   UNL     1      35.413 -18.212 -22.759  0.00  0.00    +0.279 C 
ATOM     26  H   UNL     1      37.199 -17.309 -22.305  0.00  0.00    +0.158 HD
ENDBRANCH  18  23
ENDBRANCH   7  18
TORSDOF 4
ENDMDL
MODEL 4
REMARK VINA RESULT:     -10.4      4.378      7.641
REMARK  Name = 6918151
REMARK  4 active torsions:
REMARK  status: ('A' for Active; 'I' for Inactive)
REMARK    1  A    between atoms: C_2  and  C_11
REMARK    2  A    between atoms: C_7  and  C_18
REMARK    3  A    between atoms: C_11  and  C_12
REMARK    4  A    between atoms: C_18  and  C_23
REMARK                            x       y       z     vdW  Elec       q    Type
REMARK                         _______ _______ _______ _____ _____    ______ ____
ROOT
ATOM      1  O   UNL     1      33.606 -13.664 -24.412  0.00  0.00    -0.479 OA
ATOM      2  C   UNL     1      33.874 -12.487 -23.634  0.00  0.00    +0.171 C 
ATOM      3  C   UNL     1      33.526 -12.703 -22.162  0.00  0.00    +0.049 C 
ATOM      4  C   UNL     1      34.416 -13.802 -21.595  0.00  0.00    +0.033 C 
ATOM      5  C   UNL     1      34.475 -14.969 -22.538  0.00  0.00    +0.012 C 
ATOM      6  C   UNL     1      34.084 -14.833 -23.877  0.00  0.00    +0.134 C 
ATOM      7  C   UNL     1      35.010 -17.299 -22.956  0.00  0.00    -0.021 C 
ATOM      8  C   UNL     1      34.952 -16.207 -22.089  0.00  0.00    -0.006 C 
ATOM      9  C   UNL     1      34.132 -15.930 -24.741  0.00  0.00    +0.036 C 
ATOM     10  C   UNL     1      34.597 -17.161 -24.280  0.00  0.00    -0.001 C 
ENDROOT
BRANCH   2  11
ATOM     11  C   UNL     1      33.041 -11.356 -24.227  0.00  0.00    +0.070 C 
BRANCH  11  12
ATOM     12  C   UNL     1      33.392 -10.027 -23.615  0.00  0.00    -0.019 C 
ATOM     13  C   UNL     1      32.518  -9.438 -22.710  0.00  0.00    -0.004 C 
ATOM     14  C   UNL     1      34.585  -9.407 -23.963  0.00  0.00    -0.004 C 
ATOM     15  C   UNL     1      32.844  -8.206 -22.143  0.00  0.00    -0.000 C 
ATOM     16  C   UNL     1      34.910  -8.175 -23.395  0.00  0.00    -0.000 C 
ATOM     17  C   UNL     1      34.039  -7.574 -22.486  0.00  0.00    -0.000 C 
ENDBRANCH  11  12
ENDBRANCH   2  11
BRANCH   7  18
ATOM     18  C   UNL     1      35.513 -18.614 -22.465  0.00  0.00    +0.047 C 
BRANCH  18  23
ATOM     19  S   UNL     1      36.827 -19.365 -20.157  0.00  0.00    -0.048 S 
ATOM     20  O   UNL     1      33.112 -19.809 -21.106  0.00  0.00    -0.274 OA
ATOM     21  O   UNL     1      36.674 -21.593 -18.769  0.00  0.00    -0.263 OA
ATOM     22  N   UNL     1      34.766 -20.848 -19.868  0.00  0.00    -0.246 N 
ATOM     23  C   UNL     1      35.301 -18.793 -20.964  0.00  0.00    +0.137 C 
ATOM     24  C   UNL     1      34.259 -19.850 -20.674  0.00  0.00    +0.239 C 
ATOM     25  C   UNL     1      36.079 -20.793 -19.475  0.00  0.00    +0.279 C 
ATOM     26  H   UNL     1      34.191 -21.592 -19.578  0.00  0.00    +0.158 HD
ENDBRANCH  18  23
ENDBRANCH   7  18
TORSDOF 4
ENDMDL
MODEL 5
REMARK VINA RESULT:     -10.4      4.683      9.672
REMARK  Name = 6918151
REMARK  4 active torsions:
REMARK  status: ('A' for Active; 'I' for Inactive)
REMARK    1  A    between atoms: C_2  and  C_11
REMARK    2  A    between atoms: C_7  and  C_18
REMARK    3  A    between atoms: C_11  and  C_12
REMARK    4  A    between atoms: C_18  and  C_23
REMARK                            x       y       z     vdW  Elec       q    Type
REMARK                         _______ _______ _______ _____ _____    ______ ____
ROOT
ATOM      1  O   UNL     1      34.533 -22.910 -16.444  0.00  0.00    -0.479 OA
ATOM      2  C   UNL     1      35.374 -22.817 -15.285  0.00  0.00    +0.171 C 
ATOM      3  C   UNL     1      36.846 -23.006 -15.649  0.00  0.00    +0.049 C 
ATOM      4  C   UNL     1      37.277 -21.881 -16.582  0.00  0.00    +0.033 C 
ATOM      5  C   UNL     1      36.251 -21.669 -17.658  0.00  0.00    +0.012 C 
ATOM      6  C   UNL     1      34.953 -22.177 -17.525  0.00  0.00    +0.134 C 
ATOM      7  C   UNL     1      35.637 -20.727 -19.809  0.00  0.00    -0.021 C 
ATOM      8  C   UNL     1      36.582 -20.930 -18.802  0.00  0.00    -0.006 C 
ATOM      9  C   UNL     1      34.012 -21.984 -18.540  0.00  0.00    +0.036 C 
ATOM     10  C   UNL     1      34.354 -21.257 -19.680  0.00  0.00    -0.001 C 
ENDROOT
BRANCH   2  11
ATOM     11  C   UNL     1      34.916 -23.894 -14.308  0.00  0.00    +0.070 C 
BRANCH  11  12
ATOM     12  C   UNL     1      35.965 -24.185 -13.269  0.00  0.00    -0.019 C 
ATOM     13  C   UNL     1      36.287 -23.213 -12.330  0.00  0.00    -0.004 C 
ATOM     14  C   UNL     1      36.597 -25.421 -13.262  0.00  0.00    -0.004 C 
ATOM     15  C   UNL     1      37.259 -23.483 -11.367  0.00  0.00    -0.000 C 
ATOM     16  C   UNL     1      37.569 -25.691 -12.299  0.00  0.00    -0.000 C 
ATOM     17  C   UNL     1      37.900 -24.722 -11.352  0.00  0.00    -0.000 C 
ENDBRANCH  11  12
ENDBRANCH   2  11
BRANCH   7  18
ATOM     18  C   UNL     1      36.001 -19.945 -21.026  0.00  0.00    +0.047 C 
BRANCH  18  23
ATOM     19  S   UNL     1      34.578 -19.229 -23.280  0.00  0.00    -0.048 S 
ATOM     20  O   UNL     1      35.494 -17.101 -20.193  0.00  0.00    -0.274 OA
ATOM     21  O   UNL     1      34.709 -17.049 -24.743  0.00  0.00    -0.263 OA
ATOM     22  N   UNL     1      35.124 -16.870 -22.464  0.00  0.00    -0.246 N 
ATOM     23  C   UNL     1      34.865 -19.039 -21.494  0.00  0.00    +0.137 C 
ATOM     24  C   UNL     1      35.199 -17.580 -21.283  0.00  0.00    +0.239 C 
ATOM     25  C   UNL     1      34.812 -17.529 -23.625  0.00  0.00    +0.279 C 
ATOM     26  H   UNL     1      35.293 -15.901 -22.473  0.00  0.00    +0.158 HD
ENDBRANCH  18  23
ENDBRANCH   7  18
TORSDOF 4
ENDMDL
MODEL 6
REMARK VINA RESULT:     -10.2      7.274     11.609
REMARK  Name = 6918151
REMARK  4 active torsions:
REMARK  status: ('A' for Active; 'I' for Inactive)
REMARK    1  A    between atoms: C_2  and  C_11
REMARK    2  A    between atoms: C_7  and  C_18
REMARK    3  A    between atoms: C_11  and  C_12
REMARK    4  A    between atoms: C_18  and  C_23
REMARK                            x       y       z     vdW  Elec       q    Type
REMARK                         _______ _______ _______ _____ _____    ______ ____
ROOT
ATOM      1  O   UNL     1      34.175 -15.468 -24.762  0.00  0.00    -0.479 OA
ATOM      2  C   UNL     1      34.133 -16.264 -23.568  0.00  0.00    +0.171 C 
ATOM      3  C   UNL     1      34.950 -15.626 -22.446  0.00  0.00    +0.049 C 
ATOM      4  C   UNL     1      34.335 -14.279 -22.085  0.00  0.00    +0.033 C 
ATOM      5  C   UNL     1      34.013 -13.498 -23.326  0.00  0.00    +0.012 C 
ATOM      6  C   UNL     1      33.941 -14.129 -24.575  0.00  0.00    +0.134 C 
ATOM      7  C   UNL     1      33.457 -11.387 -24.387  0.00  0.00    -0.021 C 
ATOM      8  C   UNL     1      33.756 -12.124 -23.240  0.00  0.00    -0.006 C 
ATOM      9  C   UNL     1      33.654 -13.388 -25.724  0.00  0.00    +0.036 C 
ATOM     10  C   UNL     1      33.410 -12.018 -25.628  0.00  0.00    -0.001 C 
ENDROOT
BRANCH   2  11
ATOM     11  C   UNL     1      34.684 -17.639 -23.924  0.00  0.00    +0.070 C 
BRANCH  11  12
ATOM     12  C   UNL     1      35.093 -18.410 -22.697  0.00  0.00    -0.019 C 
ATOM     13  C   UNL     1      36.399 -18.318 -22.236  0.00  0.00    -0.004 C 
ATOM     14  C   UNL     1      34.158 -19.201 -22.044  0.00  0.00    -0.004 C 
ATOM     15  C   UNL     1      36.778 -19.032 -21.099  0.00  0.00    -0.000 C 
ATOM     16  C   UNL     1      34.537 -19.915 -20.907  0.00  0.00    -0.000 C 
ATOM     17  C   UNL     1      35.846 -19.831 -20.435  0.00  0.00    -0.000 C 
ENDBRANCH  11  12
ENDBRANCH   2  11
BRANCH   7  18
ATOM     18  C   UNL     1      33.191  -9.924 -24.284  0.00  0.00    +0.047 C 
BRANCH  18  23
ATOM     19  S   UNL     1      31.653  -8.981 -22.195  0.00  0.00    -0.048 S 
ATOM     20  O   UNL     1      35.274  -8.065 -23.167  0.00  0.00    -0.274 OA
ATOM     21  O   UNL     1      31.342  -6.532 -21.290  0.00  0.00    -0.263 OA
ATOM     22  N   UNL     1      33.403  -7.120 -22.188  0.00  0.00    -0.246 N 
ATOM     23  C   UNL     1      33.293  -9.415 -22.848  0.00  0.00    +0.137 C 
ATOM     24  C   UNL     1      34.117  -8.149 -22.768  0.00  0.00    +0.239 C 
ATOM     25  C   UNL     1      32.103  -7.334 -21.810  0.00  0.00    +0.279 C 
ATOM     26  H   UNL     1      33.823  -6.241 -22.049  0.00  0.00    +0.158 HD
ENDBRANCH  18  23
ENDBRANCH   7  18
TORSDOF 4
ENDMDL
MODEL 7
REMARK VINA RESULT:     -10.2      4.283      9.263
REMARK  Name = 6918151
REMARK  4 active torsions:
REMARK  status: ('A' for Active; 'I' for Inactive)
REMARK    1  A    between atoms: C_2  and  C_11
REMARK    2  A    between atoms: C_7  and  C_18
REMARK    3  A    between atoms: C_11  and  C_12
REMARK    4  A    between atoms: C_18  and  C_23
REMARK                            x       y       z     vdW  Elec       q    Type
REMARK                         _______ _______ _______ _____ _____    ______ ____
ROOT
ATOM      1  O   UNL     1      35.180 -22.667 -16.333  0.00  0.00    -0.479 OA
ATOM      2  C   UNL     1      33.982 -23.441 -16.170  0.00  0.00    +0.171 C 
ATOM      3  C   UNL     1      32.748 -22.656 -16.614  0.00  0.00    +0.049 C 
ATOM      4  C   UNL     1      32.862 -22.349 -18.102  0.00  0.00    +0.033 C 
ATOM      5  C   UNL     1      34.237 -21.847 -18.432  0.00  0.00    +0.012 C 
ATOM      6  C   UNL     1      35.306 -22.042 -17.548  0.00  0.00    +0.134 C 
ATOM      7  C   UNL     1      35.745 -20.726 -19.969  0.00  0.00    -0.021 C 
ATOM      8  C   UNL     1      34.470 -21.197 -19.651  0.00  0.00    -0.006 C 
ATOM      9  C   UNL     1      36.579 -21.559 -17.861  0.00  0.00    +0.036 C 
ATOM     10  C   UNL     1      36.798 -20.903 -19.073  0.00  0.00    -0.001 C 
ENDROOT
BRANCH   2  11
ATOM     11  C   UNL     1      33.883 -23.816 -14.696  0.00  0.00    +0.070 C 
BRANCH  11  12
ATOM     12  C   UNL     1      35.205 -24.288 -14.152  0.00  0.00    -0.019 C 
ATOM     13  C   UNL     1      35.760 -25.466 -14.634  0.00  0.00    -0.004 C 
ATOM     14  C   UNL     1      35.850 -23.541 -13.177  0.00  0.00    -0.004 C 
ATOM     15  C   UNL     1      36.985 -25.905 -14.130  0.00  0.00    -0.000 C 
ATOM     16  C   UNL     1      37.075 -23.979 -12.674  0.00  0.00    -0.000 C 
ATOM     17  C   UNL     1      37.642 -25.161 -13.150  0.00  0.00    -0.000 C 
ENDBRANCH  11  12
ENDBRANCH   2  11
BRANCH   7  18
ATOM     18  C   UNL     1      35.980 -20.030 -21.266  0.00  0.00    +0.047 C 
BRANCH  18  23
ATOM     19  S   UNL     1      34.471 -19.153 -23.404  0.00  0.00    -0.048 S 
ATOM     20  O   UNL     1      35.582 -17.230 -20.247  0.00  0.00    -0.274 OA
ATOM     21  O   UNL     1      34.584 -16.894 -24.744  0.00  0.00    -0.263 OA
ATOM     22  N   UNL     1      35.110 -16.858 -22.481  0.00  0.00    -0.246 N 
ATOM     23  C   UNL     1      34.846 -19.074 -21.626  0.00  0.00    +0.137 C 
ATOM     24  C   UNL     1      35.224 -17.637 -21.348  0.00  0.00    +0.239 C 
ATOM     25  C   UNL     1      34.728 -17.441 -23.661  0.00  0.00    +0.279 C 
ATOM     26  H   UNL     1      35.302 -15.893 -22.442  0.00  0.00    +0.158 HD
ENDBRANCH  18  23
ENDBRANCH   7  18
TORSDOF 4
ENDMDL
MODEL 8
REMARK VINA RESULT:     -10.2      5.914     10.471
REMARK  Name = 6918151
REMARK  4 active torsions:
REMARK  status: ('A' for Active; 'I' for Inactive)
REMARK    1  A    between atoms: C_2  and  C_11
REMARK    2  A    between atoms: C_7  and  C_18
REMARK    3  A    between atoms: C_11  and  C_12
REMARK    4  A    between atoms: C_18  and  C_23
REMARK                            x       y       z     vdW  Elec       q    Type
REMARK                         _______ _______ _______ _____ _____    ______ ____
ROOT
ATOM      1  O   UNL     1      34.969 -17.918 -22.866  0.00  0.00    -0.479 OA
ATOM      2  C   UNL     1      34.920 -18.268 -21.475  0.00  0.00    +0.171 C 
ATOM      3  C   UNL     1      35.612 -17.215 -20.612  0.00  0.00    +0.049 C 
ATOM      4  C   UNL     1      34.869 -15.891 -20.747  0.00  0.00    +0.033 C 
ATOM      5  C   UNL     1      34.561 -15.607 -22.189  0.00  0.00    +0.012 C 
ATOM      6  C   UNL     1      34.616 -16.624 -23.151  0.00  0.00    +0.134 C 
ATOM      7  C   UNL     1      33.901 -14.038 -23.919  0.00  0.00    -0.021 C 
ATOM      8  C   UNL     1      34.188 -14.314 -22.582  0.00  0.00    -0.006 C 
ATOM      9  C   UNL     1      34.340 -16.342 -24.491  0.00  0.00    +0.036 C 
ATOM     10  C   UNL     1      33.980 -15.050 -24.873  0.00  0.00    -0.001 C 
ENDROOT
BRANCH   2  11
ATOM     11  C   UNL     1      35.602 -19.623 -21.326  0.00  0.00    +0.070 C 
BRANCH  11  12
ATOM     12  C   UNL     1      34.965 -20.451 -20.242  0.00  0.00    -0.019 C 
ATOM     13  C   UNL     1      33.585 -20.432 -20.089  0.00  0.00    -0.004 C 
ATOM     14  C   UNL     1      35.765 -21.222 -19.411  0.00  0.00    -0.004 C 
ATOM     15  C   UNL     1      32.994 -21.199 -19.085  0.00  0.00    -0.000 C 
ATOM     16  C   UNL     1      35.174 -21.990 -18.407  0.00  0.00    -0.000 C 
ATOM     17  C   UNL     1      33.789 -21.978 -18.244  0.00  0.00    -0.000 C 
ENDBRANCH  11  12
ENDBRANCH   2  11
BRANCH   7  18
ATOM     18  C   UNL     1      33.510 -12.658 -24.327  0.00  0.00    +0.047 C 
BRANCH  18  23
ATOM     19  S   UNL     1      32.369 -11.332 -22.191  0.00  0.00    -0.048 S 
ATOM     20  O   UNL     1      35.080 -10.114 -24.655  0.00  0.00    -0.274 OA
ATOM     21  O   UNL     1      31.522  -8.851 -21.995  0.00  0.00    -0.263 OA
ATOM     22  N   UNL     1      33.338  -9.287 -23.377  0.00  0.00    -0.246 N 
ATOM     23  C   UNL     1      33.821 -11.624 -23.247  0.00  0.00    +0.137 C 
ATOM     24  C   UNL     1      34.169 -10.282 -23.850  0.00  0.00    +0.239 C 
ATOM     25  C   UNL     1      32.335  -9.609 -22.500  0.00  0.00    +0.279 C 
ATOM     26  H   UNL     1      33.465  -8.355 -23.666  0.00  0.00    +0.158 HD
ENDBRANCH  18  23
ENDBRANCH   7  18
TORSDOF 4
ENDMDL
MODEL 9
REMARK VINA RESULT:     -10.1      3.973      8.999
REMARK  Name = 6918151
REMARK  4 active torsions:
REMARK  status: ('A' for Active; 'I' for Inactive)
REMARK    1  A    between atoms: C_2  and  C_11
REMARK    2  A    between atoms: C_7  and  C_18
REMARK    3  A    between atoms: C_11  and  C_12
REMARK    4  A    between atoms: C_18  and  C_23
REMARK                            x       y       z     vdW  Elec       q    Type
REMARK                         _______ _______ _______ _____ _____    ______ ____
ROOT
ATOM      1  O   UNL     1      35.063 -22.327 -17.528  0.00  0.00    -0.479 OA
ATOM      2  C   UNL     1      33.782 -22.961 -17.396  0.00  0.00    +0.171 C 
ATOM      3  C   UNL     1      32.644 -21.958 -17.575  0.00  0.00    +0.049 C 
ATOM      4  C   UNL     1      32.698 -21.390 -18.989  0.00  0.00    +0.033 C 
ATOM      5  C   UNL     1      34.106 -21.012 -19.350  0.00  0.00    +0.012 C 
ATOM      6  C   UNL     1      35.194 -21.504 -18.617  0.00  0.00    +0.134 C 
ATOM      7  C   UNL     1      35.648 -19.818 -20.794  0.00  0.00    -0.021 C 
ATOM      8  C   UNL     1      34.344 -20.177 -20.450  0.00  0.00    -0.006 C 
ATOM      9  C   UNL     1      36.498 -21.134 -18.956  0.00  0.00    +0.036 C 
ATOM     10  C   UNL     1      36.723 -20.293 -20.046  0.00  0.00    -0.001 C 
ENDROOT
BRANCH   2  11
ATOM     11  C   UNL     1      33.733 -23.593 -16.010  0.00  0.00    +0.070 C 
BRANCH  11  12
ATOM     12  C   UNL     1      32.387 -23.409 -15.362  0.00  0.00    -0.019 C 
ATOM     13  C   UNL     1      32.316 -23.093 -14.011  0.00  0.00    -0.004 C 
ATOM     14  C   UNL     1      31.235 -23.558 -16.122  0.00  0.00    -0.004 C 
ATOM     15  C   UNL     1      31.069 -22.922 -13.411  0.00  0.00    -0.000 C 
ATOM     16  C   UNL     1      29.988 -23.386 -15.521  0.00  0.00    -0.000 C 
ATOM     17  C   UNL     1      29.905 -23.069 -14.166  0.00  0.00    -0.000 C 
ENDBRANCH  11  12
ENDBRANCH   2  11
BRANCH   7  18
ATOM     18  C   UNL     1      35.890 -18.924 -21.963  0.00  0.00    +0.047 C 
BRANCH  18  23
ATOM     19  S   UNL     1      34.363 -18.032 -24.082  0.00  0.00    -0.048 S 
ATOM     20  O   UNL     1      35.188 -16.263 -20.752  0.00  0.00    -0.274 OA
ATOM     21  O   UNL     1      34.291 -15.676 -25.244  0.00  0.00    -0.263 OA
ATOM     22  N   UNL     1      34.746 -15.766 -22.967  0.00  0.00    -0.246 N 
ATOM     23  C   UNL     1      34.677 -18.057 -22.291  0.00  0.00    +0.137 C 
ATOM     24  C   UNL     1      34.904 -16.616 -21.892  0.00  0.00    +0.239 C 
ATOM     25  C   UNL     1      34.457 -16.289 -24.201  0.00  0.00    +0.279 C 
ATOM     26  H   UNL     1      34.840 -14.793 -22.849  0.00  0.00    +0.158 HD
ENDBRANCH  18  23
ENDBRANCH   7  18
TORSDOF 4
ENDMDL
