MODEL 1
REMARK VINA RESULT:     -11.9      0.000      0.000
REMARK  Name = 118161062
REMARK  4 active torsions:
REMARK  status: ('A' for Active; 'I' for Inactive)
REMARK    1  A    between atoms: N_1  and  C_26
REMARK    2  A    between atoms: C_7  and  C_15
REMARK    3  A    between atoms: C_21  and  N_28
REMARK    4  A    between atoms: N_27  and  C_35
REMARK                            x       y       z     vdW  Elec       q    Type
REMARK                         _______ _______ _______ _____ _____    ______ ____
ROOT
ATOM      1  N   UNL     1      36.142 -23.154 -15.737  0.00  0.00    -0.286 N 
ATOM      2  N   UNL     1      34.619 -23.999 -12.472  0.00  0.00    -0.260 N 
ATOM      3  N   UNL     1      33.926 -23.556 -15.115  0.00  0.00    -0.384 NA
ATOM      4  N   UNL     1      36.782 -23.650 -12.886  0.00  0.00    -0.224 NA
ATOM      5  C   UNL     1      35.200 -23.463 -14.785  0.00  0.00    +0.216 C 
ATOM      6  C   UNL     1      35.577 -23.696 -13.403  0.00  0.00    +0.180 C 
ATOM      7  C   UNL     1      32.980 -23.873 -14.142  0.00  0.00    +0.162 C 
ATOM      8  C   UNL     1      33.294 -24.087 -12.844  0.00  0.00    +0.159 C 
ATOM      9  C   UNL     1      35.256 -24.156 -11.273  0.00  0.00    +0.088 C 
ATOM     10  C   UNL     1      36.589 -23.937 -11.555  0.00  0.00    +0.117 C 
ATOM     11  H   UNL     1      37.042 -23.524 -15.593  0.00  0.00    +0.155 HD
ENDROOT
BRANCH   7  15
ATOM     12  N   UNL     1      30.825 -24.952 -14.066  0.00  0.00    -0.386 NA
ATOM     13  N   UNL     1      29.758 -23.083 -15.865  0.00  0.00    -0.257 NA
ATOM     14  N   UNL     1      28.694 -26.026 -13.986  0.00  0.00    -0.335 N 
ATOM     15  C   UNL     1      31.565 -23.948 -14.575  0.00  0.00    +0.178 C 
ATOM     16  C   UNL     1      31.042 -23.030 -15.458  0.00  0.00    +0.128 C 
ATOM     17  C   UNL     1      29.541 -25.005 -14.472  0.00  0.00    +0.179 C 
ATOM     18  C   UNL     1      29.017 -24.087 -15.356  0.00  0.00    +0.199 C 
ATOM     19  H   UNL     1      29.042 -26.695 -13.354  0.00  0.00    +0.144 HD
ATOM     20  H   UNL     1      27.755 -26.068 -14.281  0.00  0.00    +0.144 HD
ENDBRANCH   7  15
BRANCH   1  26
ATOM     21  C   UNL     1      35.628 -20.810 -19.185  0.00  0.00    +0.048 C 
ATOM     22  C   UNL     1      36.840 -20.778 -18.493  0.00  0.00    +0.016 C 
ATOM     23  C   UNL     1      34.588 -21.620 -18.730  0.00  0.00    +0.016 C 
ATOM     24  C   UNL     1      37.011 -21.557 -17.349  0.00  0.00    +0.016 C 
ATOM     25  C   UNL     1      34.759 -22.399 -17.586  0.00  0.00    +0.016 C 
ATOM     26  C   UNL     1      35.970 -22.368 -16.895  0.00  0.00    +0.050 C 
BRANCH  21  28
ATOM     27  N   UNL     1      35.061 -18.229 -22.511  0.00  0.00    +0.394 N 
ATOM     28  N   UNL     1      35.457 -20.028 -20.332  0.00  0.00    -0.312 N 
ATOM     29  C   UNL     1      36.420 -18.574 -22.074  0.00  0.00    -0.055 C 
ATOM     30  C   UNL     1      34.171 -19.381 -22.331  0.00  0.00    -0.055 C 
ATOM     31  C   UNL     1      36.433 -18.963 -20.594  0.00  0.00    +0.068 C 
ATOM     32  C   UNL     1      34.108 -19.798 -20.860  0.00  0.00    +0.068 C 
ATOM     33  H   UNL     1      34.717 -17.449 -21.952  0.00  0.00    -0.079 HD
BRANCH  27  35
ATOM     34  O   UNL     1      33.523 -16.738 -24.866  0.00  0.00    -0.358 OA
ATOM     35  C   UNL     1      35.088 -17.851 -23.934  0.00  0.00    +0.002 C 
ATOM     36  C   UNL     1      33.722 -18.141 -24.556  0.00  0.00    +0.124 C 
ATOM     37  C   UNL     1      34.680 -16.383 -24.066  0.00  0.00    +0.124 C 
ENDBRANCH  27  35
ENDBRANCH  21  28
ENDBRANCH   1  26
TORSDOF 4
ENDMDL
MODEL 2
REMARK VINA RESULT:     -10.0      1.201      1.579
REMARK  Name = 118161062
REMARK  4 active torsions:
REMARK  status: ('A' for Active; 'I' for Inactive)
REMARK    1  A    between atoms: N_1  and  C_26
REMARK    2  A    between atoms: C_7  and  C_15
REMARK    3  A    between atoms: C_21  and  N_28
REMARK    4  A    between atoms: N_27  and  C_35
REMARK                            x       y       z     vdW  Elec       q    Type
REMARK                         _______ _______ _______ _____ _____    ______ ____
ROOT
ATOM      1  N   UNL     1      36.455 -22.557 -16.871  0.00  0.00    -0.286 N 
ATOM      2  N   UNL     1      35.296 -23.638 -13.527  0.00  0.00    -0.260 N 
ATOM      3  N   UNL     1      34.322 -23.033 -16.046  0.00  0.00    -0.384 NA
ATOM      4  N   UNL     1      37.400 -23.230 -14.144  0.00  0.00    -0.224 NA
ATOM      5  C   UNL     1      35.622 -22.943 -15.847  0.00  0.00    +0.216 C 
ATOM      6  C   UNL     1      36.147 -23.260 -14.532  0.00  0.00    +0.180 C 
ATOM      7  C   UNL     1      33.487 -23.427 -15.001  0.00  0.00    +0.162 C 
ATOM      8  C   UNL     1      33.940 -23.721 -13.762  0.00  0.00    +0.159 C 
ATOM      9  C   UNL     1      36.059 -23.864 -12.416  0.00  0.00    +0.088 C 
ATOM     10  C   UNL     1      37.353 -23.607 -12.822  0.00  0.00    +0.117 C 
ATOM     11  H   UNL     1      37.368 -22.922 -16.849  0.00  0.00    +0.155 HD
ENDROOT
BRANCH   7  15
ATOM     12  N   UNL     1      31.304 -24.333 -14.526  0.00  0.00    -0.386 NA
ATOM     13  N   UNL     1      30.151 -22.782 -16.558  0.00  0.00    -0.257 NA
ATOM     14  N   UNL     1      29.145 -25.236 -14.050  0.00  0.00    -0.335 N 
ATOM     15  C   UNL     1      32.035 -23.495 -15.286  0.00  0.00    +0.178 C 
ATOM     16  C   UNL     1      31.469 -22.732 -16.284  0.00  0.00    +0.128 C 
ATOM     17  C   UNL     1      29.985 -24.382 -14.800  0.00  0.00    +0.179 C 
ATOM     18  C   UNL     1      29.419 -23.620 -15.798  0.00  0.00    +0.199 C 
ATOM     19  H   UNL     1      29.524 -25.791 -13.331  0.00  0.00    +0.144 HD
ATOM     20  H   UNL     1      28.181 -25.274 -14.247  0.00  0.00    +0.144 HD
ENDBRANCH   7  15
BRANCH   1  26
ATOM     21  C   UNL     1      35.557 -19.999 -20.080  0.00  0.00    +0.048 C 
ATOM     22  C   UNL     1      36.806 -19.932 -19.463  0.00  0.00    +0.016 C 
ATOM     23  C   UNL     1      34.605 -20.915 -19.630  0.00  0.00    +0.016 C 
ATOM     24  C   UNL     1      37.105 -20.782 -18.398  0.00  0.00    +0.016 C 
ATOM     25  C   UNL     1      34.905 -21.765 -18.566  0.00  0.00    +0.016 C 
ATOM     26  C   UNL     1      36.154 -21.699 -17.949  0.00  0.00    +0.050 C 
BRANCH  21  28
ATOM     27  N   UNL     1      34.857 -17.506 -23.448  0.00  0.00    +0.394 N 
ATOM     28  N   UNL     1      35.257 -19.146 -21.147  0.00  0.00    -0.312 N 
ATOM     29  C   UNL     1      34.075 -18.737 -23.271  0.00  0.00    -0.055 C 
ATOM     30  C   UNL     1      35.129 -16.896 -22.142  0.00  0.00    -0.055 C 
ATOM     31  C   UNL     1      34.842 -19.751 -22.419  0.00  0.00    +0.068 C 
ATOM     32  C   UNL     1      35.930 -17.847 -21.251  0.00  0.00    +0.068 C 
ATOM     33  H   UNL     1      35.741 -17.733 -23.903  0.00  0.00    -0.079 HD
BRANCH  27  35
ATOM     34  O   UNL     1      34.407 -14.450 -24.214  0.00  0.00    -0.358 OA
ATOM     35  C   UNL     1      34.094 -16.560 -24.280  0.00  0.00    +0.002 C 
ATOM     36  C   UNL     1      33.639 -15.385 -23.414  0.00  0.00    +0.124 C 
ATOM     37  C   UNL     1      35.062 -15.549 -24.897  0.00  0.00    +0.124 C 
ENDBRANCH  27  35
ENDBRANCH  21  28
ENDBRANCH   1  26
TORSDOF 4
ENDMDL
