MODEL 1
REMARK VINA RESULT:     -11.0      0.000      0.000
REMARK  Name = 25052630
REMARK  6 active torsions:
REMARK  status: ('A' for Active; 'I' for Inactive)
REMARK    1  A    between atoms: N_2  and  C_11
REMARK    2  A    between atoms: C_4  and  C_20
REMARK    3  A    between atoms: C_20  and  C_21
REMARK    4  A    between atoms: C_21  and  N_22
REMARK    5  A    between atoms: N_22  and  C_25
REMARK    6  A    between atoms: C_25  and  C_26
REMARK                            x       y       z     vdW  Elec       q    Type
REMARK                         _______ _______ _______ _____ _____    ______ ____
ROOT
ATOM      1  S   UNL     1      37.163 -27.150 -13.649  0.00  0.00    -0.018 S 
ATOM      2  N   UNL     1      36.499 -24.575 -14.525  0.00  0.00    -0.270 N 
ATOM      3  N   UNL     1      38.678 -25.121 -14.662  0.00  0.00    -0.294 N 
ATOM      4  C   UNL     1      37.219 -23.502 -15.048  0.00  0.00    +0.043 C 
ATOM      5  C   UNL     1      37.420 -25.632 -14.268  0.00  0.00    +0.142 C 
ATOM      6  C   UNL     1      38.516 -23.842 -15.124  0.00  0.00    +0.074 C 
ATOM      7  H   UNL     1      39.533 -25.606 -14.612  0.00  0.00    +0.154 HD
ENDROOT
BRANCH   2  11
ATOM      8  F   UNL     1      30.746 -23.649 -12.071  0.00  0.00    -0.201 F 
ATOM      9  F   UNL     1      29.786 -22.503 -16.557  0.00  0.00    -0.204 F 
ATOM     10  O   UNL     1      33.327 -24.073 -12.654  0.00  0.00    -0.472 OA
ATOM     11  C   UNL     1      35.076 -24.562 -14.303  0.00  0.00    +0.127 C 
ATOM     12  C   UNL     1      34.355 -23.765 -15.387  0.00  0.00    +0.054 C 
ATOM     13  C   UNL     1      34.726 -23.970 -12.942  0.00  0.00    +0.226 C 
ATOM     14  C   UNL     1      32.922 -23.527 -15.000  0.00  0.00    +0.018 C 
ATOM     15  C   UNL     1      32.499 -23.682 -13.673  0.00  0.00    +0.162 C 
ATOM     16  C   UNL     1      31.997 -23.118 -15.969  0.00  0.00    +0.029 C 
ATOM     17  C   UNL     1      31.161 -23.468 -13.332  0.00  0.00    +0.176 C 
ATOM     18  C   UNL     1      30.663 -22.894 -15.623  0.00  0.00    +0.142 C 
ATOM     19  C   UNL     1      30.246 -23.073 -14.306  0.00  0.00    +0.062 C 
ENDBRANCH   2  11
BRANCH   4  20
ATOM     20  C   UNL     1      36.586 -22.219 -15.437  0.00  0.00    +0.019 C 
BRANCH  20  21
ATOM     21  C   UNL     1      37.610 -21.238 -16.009  0.00  0.00    -0.075 C 
BRANCH  21  22
ATOM     22  N   UNL     1      37.137 -20.683 -17.272  0.00  0.00    +0.387 N 
ATOM     23  H   UNL     1      37.913 -20.219 -17.744  0.00  0.00    -0.084 HD
ATOM     24  H   UNL     1      36.390 -20.018 -17.076  0.00  0.00    -0.084 HD
BRANCH  22  25
ATOM     25  C   UNL     1      36.612 -21.732 -18.135  0.00  0.00    -0.054 C 
BRANCH  25  26
ATOM     26  C   UNL     1      35.376 -21.287 -18.870  0.00  0.00    -0.044 C 
ATOM     27  C   UNL     1      34.125 -21.775 -18.490  0.00  0.00    -0.006 C 
ATOM     28  C   UNL     1      35.481 -20.386 -19.929  0.00  0.00    -0.006 C 
ATOM     29  C   UNL     1      32.980 -21.362 -19.170  0.00  0.00    -0.000 C 
ATOM     30  C   UNL     1      34.334 -19.974 -20.609  0.00  0.00    -0.000 C 
ATOM     31  C   UNL     1      33.084 -20.462 -20.229  0.00  0.00    -0.000 C 
ENDBRANCH  25  26
ENDBRANCH  22  25
ENDBRANCH  21  22
ENDBRANCH  20  21
ENDBRANCH   4  20
TORSDOF 6
ENDMDL
MODEL 2
REMARK VINA RESULT:      -9.9      3.709      5.815
REMARK  Name = 25052630
REMARK  6 active torsions:
REMARK  status: ('A' for Active; 'I' for Inactive)
REMARK    1  A    between atoms: N_2  and  C_11
REMARK    2  A    between atoms: C_4  and  C_20
REMARK    3  A    between atoms: C_20  and  C_21
REMARK    4  A    between atoms: C_21  and  N_22
REMARK    5  A    between atoms: N_22  and  C_25
REMARK    6  A    between atoms: C_25  and  C_26
REMARK                            x       y       z     vdW  Elec       q    Type
REMARK                         _______ _______ _______ _____ _____    ______ ____
ROOT
ATOM      1  S   UNL     1      34.926 -24.289 -11.291  0.00  0.00    -0.018 S 
ATOM      2  N   UNL     1      34.703 -23.892 -14.054  0.00  0.00    -0.270 N 
ATOM      3  N   UNL     1      32.880 -23.370 -12.842  0.00  0.00    -0.294 N 
ATOM      4  C   UNL     1      33.695 -23.430 -14.898  0.00  0.00    +0.043 C 
ATOM      5  C   UNL     1      34.200 -23.862 -12.720  0.00  0.00    +0.142 C 
ATOM      6  C   UNL     1      32.615 -23.122 -14.163  0.00  0.00    +0.074 C 
ATOM      7  H   UNL     1      32.252 -23.228 -12.097  0.00  0.00    +0.154 HD
ENDROOT
BRANCH   2  11
ATOM      8  F   UNL     1      40.940 -24.760 -14.624  0.00  0.00    -0.201 F 
ATOM      9  F   UNL     1      39.544 -29.221 -15.338  0.00  0.00    -0.204 F 
ATOM     10  O   UNL     1      38.415 -23.957 -14.219  0.00  0.00    -0.472 OA
ATOM     11  C   UNL     1      36.005 -24.314 -14.502  0.00  0.00    +0.127 C 
ATOM     12  C   UNL     1      36.161 -25.829 -14.399  0.00  0.00    +0.054 C 
ATOM     13  C   UNL     1      37.117 -23.650 -13.697  0.00  0.00    +0.226 C 
ATOM     14  C   UNL     1      37.595 -26.226 -14.602  0.00  0.00    +0.018 C 
ATOM     15  C   UNL     1      38.626 -25.283 -14.491  0.00  0.00    +0.162 C 
ATOM     16  C   UNL     1      37.917 -27.561 -14.881  0.00  0.00    +0.029 C 
ATOM     17  C   UNL     1      39.955 -25.666 -14.695  0.00  0.00    +0.176 C 
ATOM     18  C   UNL     1      39.246 -27.942 -15.072  0.00  0.00    +0.142 C 
ATOM     19  C   UNL     1      40.263 -26.994 -14.984  0.00  0.00    +0.062 C 
ENDBRANCH   2  11
BRANCH   4  20
ATOM     20  C   UNL     1      33.862 -23.321 -16.368  0.00  0.00    +0.019 C 
BRANCH  20  21
ATOM     21  C   UNL     1      32.612 -22.745 -17.033  0.00  0.00    -0.075 C 
BRANCH  21  22
ATOM     22  N   UNL     1      32.900 -22.353 -18.409  0.00  0.00    +0.387 N 
ATOM     23  H   UNL     1      32.583 -21.395 -18.556  0.00  0.00    -0.084 HD
ATOM     24  H   UNL     1      32.412 -22.990 -19.037  0.00  0.00    -0.084 HD
BRANCH  22  25
ATOM     25  C   UNL     1      34.327 -22.432 -18.683  0.00  0.00    -0.054 C 
BRANCH  25  26
ATOM     26  C   UNL     1      34.816 -21.237 -19.458  0.00  0.00    -0.044 C 
ATOM     27  C   UNL     1      33.911 -20.453 -20.175  0.00  0.00    -0.006 C 
ATOM     28  C   UNL     1      36.172 -20.913 -19.458  0.00  0.00    -0.006 C 
ATOM     29  C   UNL     1      34.363 -19.347 -20.893  0.00  0.00    -0.000 C 
ATOM     30  C   UNL     1      36.624 -19.805 -20.176  0.00  0.00    -0.000 C 
ATOM     31  C   UNL     1      35.720 -19.022 -20.893  0.00  0.00    -0.000 C 
ENDBRANCH  25  26
ENDBRANCH  22  25
ENDBRANCH  21  22
ENDBRANCH  20  21
ENDBRANCH   4  20
TORSDOF 6
ENDMDL
MODEL 3
REMARK VINA RESULT:      -9.9     11.609     15.245
REMARK  Name = 25052630
REMARK  6 active torsions:
REMARK  status: ('A' for Active; 'I' for Inactive)
REMARK    1  A    between atoms: N_2  and  C_11
REMARK    2  A    between atoms: C_4  and  C_20
REMARK    3  A    between atoms: C_20  and  C_21
REMARK    4  A    between atoms: C_21  and  N_22
REMARK    5  A    between atoms: N_22  and  C_25
REMARK    6  A    between atoms: C_25  and  C_26
REMARK                            x       y       z     vdW  Elec       q    Type
REMARK                         _______ _______ _______ _____ _____    ______ ____
ROOT
ATOM      1  S   UNL     1      31.532  -9.822 -19.221  0.00  0.00    -0.018 S 
ATOM      2  N   UNL     1      32.265 -10.970 -21.667  0.00  0.00    -0.270 N 
ATOM      3  N   UNL     1      32.177 -12.379 -19.914  0.00  0.00    -0.294 N 
ATOM      4  C   UNL     1      32.603 -12.256 -22.082  0.00  0.00    +0.043 C 
ATOM      5  C   UNL     1      31.985 -11.024 -20.270  0.00  0.00    +0.142 C 
ATOM      6  C   UNL     1      32.546 -13.085 -21.028  0.00  0.00    +0.074 C 
ATOM      7  H   UNL     1      32.063 -12.754 -19.011  0.00  0.00    +0.154 HD
ENDROOT
BRANCH   2  11
ATOM      8  F   UNL     1      30.851  -5.399 -24.303  0.00  0.00    -0.201 F 
ATOM      9  F   UNL     1      35.558  -5.182 -24.690  0.00  0.00    -0.204 F 
ATOM     10  O   UNL     1      30.989  -7.767 -23.053  0.00  0.00    -0.472 OA
ATOM     11  C   UNL     1      32.222  -9.823 -22.537  0.00  0.00    +0.127 C 
ATOM     12  C   UNL     1      33.561  -9.090 -22.551  0.00  0.00    +0.054 C 
ATOM     13  C   UNL     1      31.130  -8.844 -22.120  0.00  0.00    +0.226 C 
ATOM     14  C   UNL     1      33.425  -7.758 -23.234  0.00  0.00    +0.018 C 
ATOM     15  C   UNL     1      32.166  -7.176 -23.433  0.00  0.00    +0.162 C 
ATOM     16  C   UNL     1      34.570  -7.070 -23.656  0.00  0.00    +0.029 C 
ATOM     17  C   UNL     1      32.055  -5.942 -24.080  0.00  0.00    +0.176 C 
ATOM     18  C   UNL     1      34.457  -5.832 -24.290  0.00  0.00    +0.142 C 
ATOM     19  C   UNL     1      33.201  -5.272 -24.506  0.00  0.00    +0.062 C 
ENDBRANCH   2  11
BRANCH   4  20
ATOM     20  C   UNL     1      32.957 -12.584 -23.485  0.00  0.00    +0.019 C 
BRANCH  20  21
ATOM     21  C   UNL     1      34.055 -13.645 -23.553  0.00  0.00    -0.075 C 
BRANCH  21  22
ATOM     22  N   UNL     1      33.503 -14.924 -23.985  0.00  0.00    +0.387 N 
ATOM     23  H   UNL     1      32.836 -14.762 -24.739  0.00  0.00    -0.084 HD
ATOM     24  H   UNL     1      33.040 -15.365 -23.190  0.00  0.00    -0.084 HD
BRANCH  22  25
ATOM     25  C   UNL     1      34.556 -15.810 -24.461  0.00  0.00    -0.054 C 
BRANCH  25  26
ATOM     26  C   UNL     1      34.741 -16.999 -23.556  0.00  0.00    -0.044 C 
ATOM     27  C   UNL     1      34.281 -18.255 -23.952  0.00  0.00    -0.006 C 
ATOM     28  C   UNL     1      35.373 -16.844 -22.323  0.00  0.00    -0.006 C 
ATOM     29  C   UNL     1      34.454 -19.356 -23.114  0.00  0.00    -0.000 C 
ATOM     30  C   UNL     1      35.546 -17.947 -21.484  0.00  0.00    -0.000 C 
ATOM     31  C   UNL     1      35.086 -19.202 -21.880  0.00  0.00    -0.000 C 
ENDBRANCH  25  26
ENDBRANCH  22  25
ENDBRANCH  21  22
ENDBRANCH  20  21
ENDBRANCH   4  20
TORSDOF 6
ENDMDL
MODEL 4
REMARK VINA RESULT:      -9.7     13.142     16.746
REMARK  Name = 25052630
REMARK  6 active torsions:
REMARK  status: ('A' for Active; 'I' for Inactive)
REMARK    1  A    between atoms: N_2  and  C_11
REMARK    2  A    between atoms: C_4  and  C_20
REMARK    3  A    between atoms: C_20  and  C_21
REMARK    4  A    between atoms: C_21  and  N_22
REMARK    5  A    between atoms: N_22  and  C_25
REMARK    6  A    between atoms: C_25  and  C_26
REMARK                            x       y       z     vdW  Elec       q    Type
REMARK                         _______ _______ _______ _____ _____    ______ ____
ROOT
ATOM      1  S   UNL     1      32.617  -6.442 -19.125  0.00  0.00    -0.018 S 
ATOM      2  N   UNL     1      32.169  -8.541 -20.923  0.00  0.00    -0.270 N 
ATOM      3  N   UNL     1      32.129  -9.098 -18.743  0.00  0.00    -0.294 N 
ATOM      4  C   UNL     1      31.916  -9.905 -20.792  0.00  0.00    +0.043 C 
ATOM      5  C   UNL     1      32.310  -7.998 -19.613  0.00  0.00    +0.142 C 
ATOM      6  C   UNL     1      31.895 -10.223 -19.488  0.00  0.00    +0.074 C 
ATOM      7  H   UNL     1      32.166  -9.062 -17.760  0.00  0.00    +0.154 HD
ENDROOT
BRANCH   2  11
ATOM      8  F   UNL     1      31.323  -4.491 -25.705  0.00  0.00    -0.201 F 
ATOM      9  F   UNL     1      36.049  -4.646 -25.746  0.00  0.00    -0.204 F 
ATOM     10  O   UNL     1      31.214  -6.140 -23.595  0.00  0.00    -0.472 OA
ATOM     11  C   UNL     1      32.262  -7.852 -22.185  0.00  0.00    +0.127 C 
ATOM     12  C   UNL     1      33.649  -7.245 -22.382  0.00  0.00    +0.054 C 
ATOM     13  C   UNL     1      31.220  -6.744 -22.296  0.00  0.00    +0.226 C 
ATOM     14  C   UNL     1      33.651  -6.307 -23.555  0.00  0.00    +0.018 C 
ATOM     15  C   UNL     1      32.452  -5.806 -24.080  0.00  0.00    +0.162 C 
ATOM     16  C   UNL     1      34.866  -5.900 -24.122  0.00  0.00    +0.029 C 
ATOM     17  C   UNL     1      32.470  -4.944 -25.179  0.00  0.00    +0.176 C 
ATOM     18  C   UNL     1      34.882  -5.029 -25.212  0.00  0.00    +0.142 C 
ATOM     19  C   UNL     1      33.684  -4.555 -25.743  0.00  0.00    +0.062 C 
ENDBRANCH   2  11
BRANCH   4  20
ATOM     20  C   UNL     1      31.712 -10.802 -21.956  0.00  0.00    +0.019 C 
BRANCH  20  21
ATOM     21  C   UNL     1      32.042 -12.254 -21.609  0.00  0.00    -0.075 C 
BRANCH  21  22
ATOM     22  N   UNL     1      32.636 -12.931 -22.756  0.00  0.00    +0.387 N 
ATOM     23  H   UNL     1      32.579 -12.320 -23.571  0.00  0.00    -0.084 HD
ATOM     24  H   UNL     1      32.125 -13.797 -22.925  0.00  0.00    -0.084 HD
BRANCH  22  25
ATOM     25  C   UNL     1      34.032 -13.257 -22.500  0.00  0.00    -0.054 C 
BRANCH  25  26
ATOM     26  C   UNL     1      34.347 -14.688 -22.848  0.00  0.00    -0.044 C 
ATOM     27  C   UNL     1      34.032 -15.183 -24.114  0.00  0.00    -0.006 C 
ATOM     28  C   UNL     1      34.955 -15.516 -21.906  0.00  0.00    -0.006 C 
ATOM     29  C   UNL     1      34.325 -16.508 -24.437  0.00  0.00    -0.000 C 
ATOM     30  C   UNL     1      35.248 -16.842 -22.230  0.00  0.00    -0.000 C 
ATOM     31  C   UNL     1      34.932 -17.337 -23.495  0.00  0.00    -0.000 C 
ENDBRANCH  25  26
ENDBRANCH  22  25
ENDBRANCH  21  22
ENDBRANCH  20  21
ENDBRANCH   4  20
TORSDOF 6
ENDMDL
MODEL 5
REMARK VINA RESULT:      -9.7      2.198      3.226
REMARK  Name = 25052630
REMARK  6 active torsions:
REMARK  status: ('A' for Active; 'I' for Inactive)
REMARK    1  A    between atoms: N_2  and  C_11
REMARK    2  A    between atoms: C_4  and  C_20
REMARK    3  A    between atoms: C_20  and  C_21
REMARK    4  A    between atoms: C_21  and  N_22
REMARK    5  A    between atoms: N_22  and  C_25
REMARK    6  A    between atoms: C_25  and  C_26
REMARK                            x       y       z     vdW  Elec       q    Type
REMARK                         _______ _______ _______ _____ _____    ______ ____
ROOT
ATOM      1  S   UNL     1      37.034 -23.413 -13.950  0.00  0.00    -0.018 S 
ATOM      2  N   UNL     1      35.452 -22.778 -16.171  0.00  0.00    -0.270 N 
ATOM      3  N   UNL     1      37.555 -21.976 -16.209  0.00  0.00    -0.294 N 
ATOM      4  C   UNL     1      35.657 -22.056 -17.345  0.00  0.00    +0.043 C 
ATOM      5  C   UNL     1      36.664 -22.741 -15.421  0.00  0.00    +0.142 C 
ATOM      6  C   UNL     1      36.914 -21.584 -17.354  0.00  0.00    +0.074 C 
ATOM      7  H   UNL     1      38.486 -21.760 -15.972  0.00  0.00    +0.154 HD
ENDROOT
BRANCH   2  11
ATOM      8  F   UNL     1      30.577 -25.256 -12.998  0.00  0.00    -0.201 F 
ATOM      9  F   UNL     1      28.145 -22.997 -16.365  0.00  0.00    -0.204 F 
ATOM     10  O   UNL     1      32.905 -24.347 -13.966  0.00  0.00    -0.472 OA
ATOM     11  C   UNL     1      34.213 -23.426 -15.825  0.00  0.00    +0.127 C 
ATOM     12  C   UNL     1      33.014 -22.644 -16.355  0.00  0.00    +0.054 C 
ATOM     13  C   UNL     1      34.067 -23.587 -14.316  0.00  0.00    +0.226 C 
ATOM     14  C   UNL     1      31.738 -23.170 -15.761  0.00  0.00    +0.018 C 
ATOM     15  C   UNL     1      31.756 -23.971 -14.611  0.00  0.00    +0.162 C 
ATOM     16  C   UNL     1      30.508 -22.838 -16.343  0.00  0.00    +0.029 C 
ATOM     17  C   UNL     1      30.561 -24.463 -14.077  0.00  0.00    +0.176 C 
ATOM     18  C   UNL     1      29.316 -23.320 -15.801  0.00  0.00    +0.142 C 
ATOM     19  C   UNL     1      29.343 -24.135 -14.671  0.00  0.00    +0.062 C 
ENDBRANCH   2  11
BRANCH   4  20
ATOM     20  C   UNL     1      34.607 -21.878 -18.376  0.00  0.00    +0.019 C 
BRANCH  20  21
ATOM     21  C   UNL     1      35.200 -21.426 -19.710  0.00  0.00    -0.075 C 
BRANCH  21  22
ATOM     22  N   UNL     1      34.821 -20.047 -19.997  0.00  0.00    +0.387 N 
ATOM     23  H   UNL     1      34.664 -19.554 -19.118  0.00  0.00    -0.084 HD
ATOM     24  H   UNL     1      33.969 -20.053 -20.558  0.00  0.00    -0.084 HD
BRANCH  22  25
ATOM     25  C   UNL     1      35.867 -19.366 -20.746  0.00  0.00    -0.054 C 
BRANCH  25  26
ATOM     26  C   UNL     1      35.323 -18.672 -21.966  0.00  0.00    -0.044 C 
ATOM     27  C   UNL     1      34.693 -19.414 -22.968  0.00  0.00    -0.006 C 
ATOM     28  C   UNL     1      35.445 -17.290 -22.095  0.00  0.00    -0.006 C 
ATOM     29  C   UNL     1      34.188 -18.771 -24.097  0.00  0.00    -0.000 C 
ATOM     30  C   UNL     1      34.939 -16.647 -23.227  0.00  0.00    -0.000 C 
ATOM     31  C   UNL     1      34.311 -17.388 -24.227  0.00  0.00    -0.000 C 
ENDBRANCH  25  26
ENDBRANCH  22  25
ENDBRANCH  21  22
ENDBRANCH  20  21
ENDBRANCH   4  20
TORSDOF 6
ENDMDL
MODEL 6
REMARK VINA RESULT:      -9.6      3.464      5.454
REMARK  Name = 25052630
REMARK  6 active torsions:
REMARK  status: ('A' for Active; 'I' for Inactive)
REMARK    1  A    between atoms: N_2  and  C_11
REMARK    2  A    between atoms: C_4  and  C_20
REMARK    3  A    between atoms: C_20  and  C_21
REMARK    4  A    between atoms: C_21  and  N_22
REMARK    5  A    between atoms: N_22  and  C_25
REMARK    6  A    between atoms: C_25  and  C_26
REMARK                            x       y       z     vdW  Elec       q    Type
REMARK                         _______ _______ _______ _____ _____    ______ ____
ROOT
ATOM      1  S   UNL     1      32.041 -23.786 -15.223  0.00  0.00    -0.018 S 
ATOM      2  N   UNL     1      34.253 -22.816 -16.639  0.00  0.00    -0.270 N 
ATOM      3  N   UNL     1      32.251 -22.502 -17.619  0.00  0.00    -0.294 N 
ATOM      4  C   UNL     1      34.424 -22.158 -17.856  0.00  0.00    +0.043 C 
ATOM      5  C   UNL     1      32.857 -23.049 -16.465  0.00  0.00    +0.142 C 
ATOM      6  C   UNL     1      33.224 -21.977 -18.429  0.00  0.00    +0.074 C 
ATOM      7  H   UNL     1      31.286 -22.499 -17.812  0.00  0.00    +0.154 HD
ENDROOT
BRANCH   2  11
ATOM      8  F   UNL     1      38.088 -23.317 -11.638  0.00  0.00    -0.201 F 
ATOM      9  F   UNL     1      37.926 -27.883 -12.856  0.00  0.00    -0.204 F 
ATOM     10  O   UNL     1      36.390 -22.656 -13.603  0.00  0.00    -0.472 OA
ATOM     11  C   UNL     1      35.330 -23.175 -15.754  0.00  0.00    +0.127 C 
ATOM     12  C   UNL     1      35.323 -24.671 -15.453  0.00  0.00    +0.054 C 
ATOM     13  C   UNL     1      35.253 -22.409 -14.438  0.00  0.00    +0.226 C 
ATOM     14  C   UNL     1      36.266 -24.986 -14.326  0.00  0.00    +0.018 C 
ATOM     15  C   UNL     1      36.730 -23.977 -13.471  0.00  0.00    +0.162 C 
ATOM     16  C   UNL     1      36.670 -26.309 -14.104  0.00  0.00    +0.029 C 
ATOM     17  C   UNL     1      37.616 -24.285 -12.435  0.00  0.00    +0.176 C 
ATOM     18  C   UNL     1      37.545 -26.615 -13.060  0.00  0.00    +0.142 C 
ATOM     19  C   UNL     1      38.021 -25.603 -12.230  0.00  0.00    +0.062 C 
ENDBRANCH   2  11
BRANCH   4  20
ATOM     20  C   UNL     1      35.754 -21.751 -18.372  0.00  0.00    +0.019 C 
BRANCH  20  21
ATOM     21  C   UNL     1      35.673 -21.281 -19.824  0.00  0.00    -0.075 C 
BRANCH  21  22
ATOM     22  N   UNL     1      35.413 -19.848 -19.884  0.00  0.00    +0.387 N 
ATOM     23  H   UNL     1      35.555 -19.444 -18.958  0.00  0.00    -0.084 HD
ATOM     24  H   UNL     1      34.452 -19.704 -20.192  0.00  0.00    -0.084 HD
BRANCH  22  25
ATOM     25  C   UNL     1      36.308 -19.197 -20.831  0.00  0.00    -0.054 C 
BRANCH  25  26
ATOM     26  C   UNL     1      35.559 -18.612 -21.999  0.00  0.00    -0.044 C 
ATOM     27  C   UNL     1      35.561 -17.232 -22.207  0.00  0.00    -0.006 C 
ATOM     28  C   UNL     1      34.866 -19.448 -22.873  0.00  0.00    -0.006 C 
ATOM     29  C   UNL     1      34.869 -16.690 -23.290  0.00  0.00    -0.000 C 
ATOM     30  C   UNL     1      34.173 -18.905 -23.956  0.00  0.00    -0.000 C 
ATOM     31  C   UNL     1      34.175 -17.526 -24.164  0.00  0.00    -0.000 C 
ENDBRANCH  25  26
ENDBRANCH  22  25
ENDBRANCH  21  22
ENDBRANCH  20  21
ENDBRANCH   4  20
TORSDOF 6
ENDMDL
MODEL 7
REMARK VINA RESULT:      -9.6      1.077      2.204
REMARK  Name = 25052630
REMARK  6 active torsions:
REMARK  status: ('A' for Active; 'I' for Inactive)
REMARK    1  A    between atoms: N_2  and  C_11
REMARK    2  A    between atoms: C_4  and  C_20
REMARK    3  A    between atoms: C_20  and  C_21
REMARK    4  A    between atoms: C_21  and  N_22
REMARK    5  A    between atoms: N_22  and  C_25
REMARK    6  A    between atoms: C_25  and  C_26
REMARK                            x       y       z     vdW  Elec       q    Type
REMARK                         _______ _______ _______ _____ _____    ______ ____
ROOT
ATOM      1  S   UNL     1      36.431 -26.457 -14.507  0.00  0.00    -0.018 S 
ATOM      2  N   UNL     1      36.537 -23.696 -14.958  0.00  0.00    -0.270 N 
ATOM      3  N   UNL     1      38.517 -24.765 -14.983  0.00  0.00    -0.294 N 
ATOM      4  C   UNL     1      37.561 -22.783 -15.205  0.00  0.00    +0.043 C 
ATOM      5  C   UNL     1      37.130 -24.983 -14.811  0.00  0.00    +0.142 C 
ATOM      6  C   UNL     1      38.734 -23.433 -15.217  0.00  0.00    +0.074 C 
ATOM      7  H   UNL     1      39.214 -25.459 -14.940  0.00  0.00    +0.154 HD
ENDROOT
BRANCH   2  11
ATOM      8  F   UNL     1      30.398 -22.877 -16.232  0.00  0.00    -0.201 F 
ATOM      9  F   UNL     1      29.987 -24.465 -11.798  0.00  0.00    -0.204 F 
ATOM     10  O   UNL     1      33.063 -23.153 -16.163  0.00  0.00    -0.472 OA
ATOM     11  C   UNL     1      35.143 -23.346 -14.875  0.00  0.00    +0.127 C 
ATOM     12  C   UNL     1      34.445 -24.117 -13.758  0.00  0.00    +0.054 C 
ATOM     13  C   UNL     1      34.417 -23.620 -16.188  0.00  0.00    +0.226 C 
ATOM     14  C   UNL     1      32.954 -23.956 -13.858  0.00  0.00    +0.018 C 
ATOM     15  C   UNL     1      32.357 -23.501 -15.041  0.00  0.00    +0.162 C 
ATOM     16  C   UNL     1      32.141 -24.289 -12.766  0.00  0.00    +0.029 C 
ATOM     17  C   UNL     1      30.970 -23.344 -15.114  0.00  0.00    +0.176 C 
ATOM     18  C   UNL     1      30.756 -24.144 -12.847  0.00  0.00    +0.142 C 
ATOM     19  C   UNL     1      30.171 -23.668 -14.018  0.00  0.00    +0.062 C 
ENDBRANCH   2  11
BRANCH   4  20
ATOM     20  C   UNL     1      37.316 -21.334 -15.412  0.00  0.00    +0.019 C 
BRANCH  20  21
ATOM     21  C   UNL     1      37.547 -20.929 -16.868  0.00  0.00    -0.075 C 
BRANCH  21  22
ATOM     22  N   UNL     1      36.738 -21.749 -17.762  0.00  0.00    +0.387 N 
ATOM     23  H   UNL     1      35.785 -21.795 -17.401  0.00  0.00    -0.084 HD
ATOM     24  H   UNL     1      37.147 -22.682 -17.808  0.00  0.00    -0.084 HD
BRANCH  22  25
ATOM     25  C   UNL     1      36.714 -21.185 -19.104  0.00  0.00    -0.054 C 
BRANCH  25  26
ATOM     26  C   UNL     1      35.312 -20.874 -19.557  0.00  0.00    -0.044 C 
ATOM     27  C   UNL     1      35.098 -19.952 -20.582  0.00  0.00    -0.006 C 
ATOM     28  C   UNL     1      34.227 -21.510 -18.954  0.00  0.00    -0.006 C 
ATOM     29  C   UNL     1      33.800 -19.665 -21.002  0.00  0.00    -0.000 C 
ATOM     30  C   UNL     1      32.928 -21.222 -19.374  0.00  0.00    -0.000 C 
ATOM     31  C   UNL     1      32.715 -20.299 -20.398  0.00  0.00    -0.000 C 
ENDBRANCH  25  26
ENDBRANCH  22  25
ENDBRANCH  21  22
ENDBRANCH  20  21
ENDBRANCH   4  20
TORSDOF 6
ENDMDL
MODEL 8
REMARK VINA RESULT:      -9.4      1.429      2.034
REMARK  Name = 25052630
REMARK  6 active torsions:
REMARK  status: ('A' for Active; 'I' for Inactive)
REMARK    1  A    between atoms: N_2  and  C_11
REMARK    2  A    between atoms: C_4  and  C_20
REMARK    3  A    between atoms: C_20  and  C_21
REMARK    4  A    between atoms: C_21  and  N_22
REMARK    5  A    between atoms: N_22  and  C_25
REMARK    6  A    between atoms: C_25  and  C_26
REMARK                            x       y       z     vdW  Elec       q    Type
REMARK                         _______ _______ _______ _____ _____    ______ ____
ROOT
ATOM      1  S   UNL     1      37.389 -25.378 -13.144  0.00  0.00    -0.018 S 
ATOM      2  N   UNL     1      36.143 -23.702 -15.008  0.00  0.00    -0.270 N 
ATOM      3  N   UNL     1      38.386 -23.559 -14.914  0.00  0.00    -0.294 N 
ATOM      4  C   UNL     1      36.592 -22.760 -15.932  0.00  0.00    +0.043 C 
ATOM      5  C   UNL     1      37.284 -24.232 -14.338  0.00  0.00    +0.142 C 
ATOM      6  C   UNL     1      37.930 -22.685 -15.865  0.00  0.00    +0.074 C 
ATOM      7  H   UNL     1      39.330 -23.696 -14.670  0.00  0.00    +0.154 HD
ENDROOT
BRANCH   2  11
ATOM      8  F   UNL     1      30.422 -24.604 -12.470  0.00  0.00    -0.201 F 
ATOM      9  F   UNL     1      29.073 -22.672 -16.570  0.00  0.00    -0.204 F 
ATOM     10  O   UNL     1      33.011 -24.329 -13.108  0.00  0.00    -0.472 OA
ATOM     11  C   UNL     1      34.758 -24.041 -14.806  0.00  0.00    +0.127 C 
ATOM     12  C   UNL     1      33.845 -23.183 -15.679  0.00  0.00    +0.054 C 
ATOM     13  C   UNL     1      34.346 -23.869 -13.348  0.00  0.00    +0.226 C 
ATOM     14  C   UNL     1      32.411 -23.348 -15.263  0.00  0.00    +0.018 C 
ATOM     15  C   UNL     1      32.081 -23.893 -14.015  0.00  0.00    +0.162 C 
ATOM     16  C   UNL     1      31.384 -22.928 -16.119  0.00  0.00    +0.029 C 
ATOM     17  C   UNL     1      30.741 -24.052 -13.648  0.00  0.00    +0.176 C 
ATOM     18  C   UNL     1      30.047 -23.076 -15.744  0.00  0.00    +0.142 C 
ATOM     19  C   UNL     1      29.727 -23.641 -14.512  0.00  0.00    +0.062 C 
ENDBRANCH   2  11
BRANCH   4  20
ATOM     20  C   UNL     1      35.676 -22.000 -16.817  0.00  0.00    +0.019 C 
BRANCH  20  21
ATOM     21  C   UNL     1      36.355 -21.619 -18.133  0.00  0.00    -0.075 C 
BRANCH  21  22
ATOM     22  N   UNL     1      35.465 -21.872 -19.260  0.00  0.00    +0.387 N 
ATOM     23  H   UNL     1      34.912 -22.708 -19.067  0.00  0.00    -0.084 HD
ATOM     24  H   UNL     1      36.029 -22.004 -20.098  0.00  0.00    -0.084 HD
BRANCH  22  25
ATOM     25  C   UNL     1      34.568 -20.745 -19.474  0.00  0.00    -0.054 C 
BRANCH  25  26
ATOM     26  C   UNL     1      35.028 -19.870 -20.609  0.00  0.00    -0.044 C 
ATOM     27  C   UNL     1      34.215 -19.695 -21.730  0.00  0.00    -0.006 C 
ATOM     28  C   UNL     1      36.266 -19.232 -20.539  0.00  0.00    -0.006 C 
ATOM     29  C   UNL     1      34.642 -18.883 -22.780  0.00  0.00    -0.000 C 
ATOM     30  C   UNL     1      36.692 -18.419 -21.591  0.00  0.00    -0.000 C 
ATOM     31  C   UNL     1      35.880 -18.245 -22.711  0.00  0.00    -0.000 C 
ENDBRANCH  25  26
ENDBRANCH  22  25
ENDBRANCH  21  22
ENDBRANCH  20  21
ENDBRANCH   4  20
TORSDOF 6
ENDMDL
MODEL 9
REMARK VINA RESULT:      -9.3      3.491      6.979
REMARK  Name = 25052630
REMARK  6 active torsions:
REMARK  status: ('A' for Active; 'I' for Inactive)
REMARK    1  A    between atoms: N_2  and  C_11
REMARK    2  A    between atoms: C_4  and  C_20
REMARK    3  A    between atoms: C_20  and  C_21
REMARK    4  A    between atoms: C_21  and  N_22
REMARK    5  A    between atoms: N_22  and  C_25
REMARK    6  A    between atoms: C_25  and  C_26
REMARK                            x       y       z     vdW  Elec       q    Type
REMARK                         _______ _______ _______ _____ _____    ______ ____
ROOT
ATOM      1  S   UNL     1      29.619 -23.106 -15.883  0.00  0.00    -0.018 S 
ATOM      2  N   UNL     1      32.156 -23.670 -14.841  0.00  0.00    -0.270 N 
ATOM      3  N   UNL     1      30.431 -24.689 -13.816  0.00  0.00    -0.294 N 
ATOM      4  C   UNL     1      32.632 -24.462 -13.797  0.00  0.00    +0.043 C 
ATOM      5  C   UNL     1      30.737 -23.800 -14.872  0.00  0.00    +0.142 C 
ATOM      6  C   UNL     1      31.593 -25.063 -13.196  0.00  0.00    +0.074 C 
ATOM      7  H   UNL     1      29.528 -24.990 -13.566  0.00  0.00    +0.154 HD
ENDROOT
BRANCH   2  11
ATOM      8  F   UNL     1      36.827 -21.683 -18.610  0.00  0.00    -0.201 F 
ATOM      9  F   UNL     1      33.165 -20.040 -21.109  0.00  0.00    -0.204 F 
ATOM     10  O   UNL     1      35.191 -22.777 -16.791  0.00  0.00    -0.472 OA
ATOM     11  C   UNL     1      32.995 -22.878 -15.703  0.00  0.00    +0.127 C 
ATOM     12  C   UNL     1      32.274 -22.523 -17.001  0.00  0.00    +0.054 C 
ATOM     13  C   UNL     1      34.291 -23.604 -16.045  0.00  0.00    +0.226 C 
ATOM     14  C   UNL     1      33.237 -21.943 -17.998  0.00  0.00    +0.018 C 
ATOM     15  C   UNL     1      34.620 -22.111 -17.844  0.00  0.00    +0.162 C 
ATOM     16  C   UNL     1      32.753 -21.247 -19.113  0.00  0.00    +0.029 C 
ATOM     17  C   UNL     1      35.504 -21.554 -18.773  0.00  0.00    +0.176 C 
ATOM     18  C   UNL     1      33.638 -20.704 -20.046  0.00  0.00    +0.142 C 
ATOM     19  C   UNL     1      35.011 -20.854 -19.873  0.00  0.00    +0.062 C 
ENDBRANCH   2  11
BRANCH   4  20
ATOM     20  C   UNL     1      34.072 -24.575 -13.463  0.00  0.00    +0.019 C 
BRANCH  20  21
ATOM     21  C   UNL     1      34.385 -23.942 -12.107  0.00  0.00    -0.075 C 
BRANCH  21  22
ATOM     22  N   UNL     1      35.795 -23.575 -12.027  0.00  0.00    +0.387 N 
ATOM     23  H   UNL     1      35.877 -22.667 -11.571  0.00  0.00    -0.084 HD
ATOM     24  H   UNL     1      36.175 -23.535 -12.972  0.00  0.00    -0.084 HD
BRANCH  22  25
ATOM     25  C   UNL     1      36.545 -24.562 -11.264  0.00  0.00    -0.054 C 
BRANCH  25  26
ATOM     26  C   UNL     1      37.539 -25.297 -12.123  0.00  0.00    -0.044 C 
ATOM     27  C   UNL     1      38.743 -24.685 -12.477  0.00  0.00    -0.006 C 
ATOM     28  C   UNL     1      37.259 -26.590 -12.563  0.00  0.00    -0.006 C 
ATOM     29  C   UNL     1      39.664 -25.366 -13.272  0.00  0.00    -0.000 C 
ATOM     30  C   UNL     1      38.181 -27.272 -13.359  0.00  0.00    -0.000 C 
ATOM     31  C   UNL     1      39.383 -26.659 -13.713  0.00  0.00    -0.000 C 
ENDBRANCH  25  26
ENDBRANCH  22  25
ENDBRANCH  21  22
ENDBRANCH  20  21
ENDBRANCH   4  20
TORSDOF 6
ENDMDL
