MODEL 1
REMARK VINA RESULT:     -11.8      0.000      0.000
REMARK  Name = 11659487
REMARK  5 active torsions:
REMARK  status: ('A' for Active; 'I' for Inactive)
REMARK    1  A    between atoms: C_1  and  C_15
REMARK    2  A    between atoms: C_2  and  C_7
REMARK    3  A    between atoms: C_10  and  O_13
REMARK    4  A    between atoms: C_15  and  C_16
REMARK    5  A    between atoms: C_16  and  C_18
REMARK                            x       y       z     vdW  Elec       q    Type
REMARK                         _______ _______ _______ _____ _____    ______ ____
ROOT
ATOM      1  C   UNL     1      34.188 -21.236 -19.225  0.00  0.00    -0.022 C 
ATOM      2  C   UNL     1      35.078 -19.722 -20.885  0.00  0.00    -0.000 C 
ATOM      3  C   UNL     1      33.988 -20.366 -20.296  0.00  0.00    -0.004 C 
ATOM      4  C   UNL     1      35.478 -21.465 -18.744  0.00  0.00    -0.004 C 
ATOM      5  C   UNL     1      36.366 -19.951 -20.404  0.00  0.00    -0.000 C 
ATOM      6  C   UNL     1      36.567 -20.822 -19.333  0.00  0.00    -0.000 C 
ENDROOT
BRANCH   2   7
ATOM      7  C   UNL     1      34.870 -18.818 -21.994  0.00  0.00    +0.003 C 
ATOM      8  C   UNL     1      35.249 -17.480 -21.885  0.00  0.00    +0.037 C 
ATOM      9  C   UNL     1      34.291 -19.284 -23.175  0.00  0.00    +0.000 C 
ATOM     10  C   UNL     1      35.049 -16.609 -22.956  0.00  0.00    +0.139 C 
ATOM     11  C   UNL     1      34.091 -18.413 -24.245  0.00  0.00    +0.003 C 
ATOM     12  C   UNL     1      34.471 -17.075 -24.136  0.00  0.00    +0.037 C 
BRANCH  10  13
ATOM     13  O   UNL     1      35.420 -15.303 -22.849  0.00  0.00    -0.471 OA
ATOM     14  C   UNL     1      34.382 -14.326 -22.908  0.00  0.00    +0.252 C 
ENDBRANCH  10  13
ENDBRANCH   2   7
BRANCH   1  15
ATOM     15  C   UNL     1      33.025 -21.924 -18.594  0.00  0.00    +0.034 C 
BRANCH  15  16
ATOM     16  C   UNL     1      33.383 -22.733 -17.331  0.00  0.00    +0.064 C 
BRANCH  16  18
ATOM     17  N   UNL     1      30.998 -22.749 -16.909  0.00  0.00    -0.396 NA
ATOM     18  C   UNL     1      32.225 -22.883 -16.374  0.00  0.00    +0.110 C 
ATOM     19  C   UNL     1      32.491 -23.139 -15.047  0.00  0.00    +0.023 C 
ATOM     20  C   UNL     1      31.403 -23.273 -14.192  0.00  0.00    -0.015 C 
ATOM     21  C   UNL     1      29.965 -22.884 -16.048  0.00  0.00    +0.158 C 
ATOM     22  C   UNL     1      30.112 -23.144 -14.694  0.00  0.00    +0.100 C 
ATOM     23  N   UNL     1      28.644 -22.757 -16.544  0.00  0.00    -0.336 N 
ATOM     24  H   UNL     1      28.492 -22.572 -17.498  0.00  0.00    +0.144 HD
ATOM     25  H   UNL     1      27.877 -22.852 -15.932  0.00  0.00    +0.144 HD
ENDBRANCH  16  18
ENDBRANCH  15  16
ENDBRANCH   1  15
TORSDOF 5
ENDMDL
MODEL 2
REMARK VINA RESULT:     -11.5      1.350      1.773
REMARK  Name = 11659487
REMARK  5 active torsions:
REMARK  status: ('A' for Active; 'I' for Inactive)
REMARK    1  A    between atoms: C_1  and  C_15
REMARK    2  A    between atoms: C_2  and  C_7
REMARK    3  A    between atoms: C_10  and  O_13
REMARK    4  A    between atoms: C_15  and  C_16
REMARK    5  A    between atoms: C_16  and  C_18
REMARK                            x       y       z     vdW  Elec       q    Type
REMARK                         _______ _______ _______ _____ _____    ______ ____
ROOT
ATOM      1  C   UNL     1      34.235 -21.122 -19.233  0.00  0.00    -0.022 C 
ATOM      2  C   UNL     1      35.100 -19.628 -20.923  0.00  0.00    -0.000 C 
ATOM      3  C   UNL     1      34.019 -20.258 -20.306  0.00  0.00    -0.004 C 
ATOM      4  C   UNL     1      35.533 -21.359 -18.779  0.00  0.00    -0.004 C 
ATOM      5  C   UNL     1      36.397 -19.864 -20.469  0.00  0.00    -0.000 C 
ATOM      6  C   UNL     1      36.614 -20.730 -19.397  0.00  0.00    -0.000 C 
ENDROOT
BRANCH   2   7
ATOM      7  C   UNL     1      34.875 -18.729 -22.034  0.00  0.00    +0.003 C 
ATOM      8  C   UNL     1      35.243 -17.388 -21.933  0.00  0.00    +0.037 C 
ATOM      9  C   UNL     1      34.292 -19.204 -23.208  0.00  0.00    +0.000 C 
ATOM     10  C   UNL     1      35.027 -16.522 -23.005  0.00  0.00    +0.139 C 
ATOM     11  C   UNL     1      34.075 -18.339 -24.280  0.00  0.00    +0.003 C 
ATOM     12  C   UNL     1      34.443 -16.997 -24.179  0.00  0.00    +0.037 C 
BRANCH  10  13
ATOM     13  O   UNL     1      35.386 -15.212 -22.906  0.00  0.00    -0.471 OA
ATOM     14  C   UNL     1      34.346 -14.243 -23.015  0.00  0.00    +0.252 C 
ENDBRANCH  10  13
ENDBRANCH   2   7
BRANCH   1  15
ATOM     15  C   UNL     1      33.080 -21.796 -18.573  0.00  0.00    +0.034 C 
BRANCH  15  16
ATOM     16  C   UNL     1      33.465 -23.052 -17.765  0.00  0.00    +0.064 C 
BRANCH  16  18
ATOM     17  N   UNL     1      33.670 -23.307 -15.365  0.00  0.00    -0.396 NA
ATOM     18  C   UNL     1      32.832 -23.094 -16.395  0.00  0.00    +0.110 C 
ATOM     19  C   UNL     1      31.470 -22.918 -16.289  0.00  0.00    +0.023 C 
ATOM     20  C   UNL     1      30.918 -22.962 -15.013  0.00  0.00    -0.015 C 
ATOM     21  C   UNL     1      33.099 -23.344 -14.142  0.00  0.00    +0.158 C 
ATOM     22  C   UNL     1      31.741 -23.179 -13.914  0.00  0.00    +0.100 C 
ATOM     23  N   UNL     1      33.924 -23.563 -13.011  0.00  0.00    -0.336 N 
ATOM     24  H   UNL     1      34.893 -23.686 -13.126  0.00  0.00    +0.144 HD
ATOM     25  H   UNL     1      33.527 -23.594 -12.110  0.00  0.00    +0.144 HD
ENDBRANCH  16  18
ENDBRANCH  15  16
ENDBRANCH   1  15
TORSDOF 5
ENDMDL
MODEL 3
REMARK VINA RESULT:     -11.2      4.486      8.659
REMARK  Name = 11659487
REMARK  5 active torsions:
REMARK  status: ('A' for Active; 'I' for Inactive)
REMARK    1  A    between atoms: C_1  and  C_15
REMARK    2  A    between atoms: C_2  and  C_7
REMARK    3  A    between atoms: C_10  and  O_13
REMARK    4  A    between atoms: C_15  and  C_16
REMARK    5  A    between atoms: C_16  and  C_18
REMARK                            x       y       z     vdW  Elec       q    Type
REMARK                         _______ _______ _______ _____ _____    ______ ____
ROOT
ATOM      1  C   UNL     1      35.042 -18.773 -22.324  0.00  0.00    -0.022 C 
ATOM      2  C   UNL     1      35.320 -20.083 -20.313  0.00  0.00    -0.000 C 
ATOM      3  C   UNL     1      34.511 -19.619 -21.351  0.00  0.00    -0.004 C 
ATOM      4  C   UNL     1      36.382 -18.389 -22.258  0.00  0.00    -0.004 C 
ATOM      5  C   UNL     1      36.659 -19.699 -20.247  0.00  0.00    -0.000 C 
ATOM      6  C   UNL     1      37.190 -18.852 -21.220  0.00  0.00    -0.000 C 
ENDROOT
BRANCH   2   7
ATOM      7  C   UNL     1      34.769 -20.962 -19.304  0.00  0.00    +0.003 C 
ATOM      8  C   UNL     1      35.604 -21.534 -18.345  0.00  0.00    +0.037 C 
ATOM      9  C   UNL     1      33.402 -21.236 -19.290  0.00  0.00    +0.000 C 
ATOM     10  C   UNL     1      35.073 -22.381 -17.373  0.00  0.00    +0.139 C 
ATOM     11  C   UNL     1      32.870 -22.083 -18.318  0.00  0.00    +0.003 C 
ATOM     12  C   UNL     1      33.705 -22.655 -17.359  0.00  0.00    +0.037 C 
BRANCH  10  13
ATOM     13  O   UNL     1      35.888 -22.939 -16.436  0.00  0.00    -0.471 OA
ATOM     14  C   UNL     1      37.038 -22.191 -16.046  0.00  0.00    +0.252 C 
ENDBRANCH  10  13
ENDBRANCH   2   7
BRANCH   1  15
ATOM     15  C   UNL     1      34.179 -18.277 -23.434  0.00  0.00    +0.034 C 
BRANCH  15  16
ATOM     16  C   UNL     1      34.856 -17.224 -24.334  0.00  0.00    +0.064 C 
BRANCH  16  18
ATOM     17  N   UNL     1      33.929 -15.091 -25.008  0.00  0.00    -0.396 NA
ATOM     18  C   UNL     1      34.453 -15.808 -23.999  0.00  0.00    +0.110 C 
ATOM     19  C   UNL     1      34.643 -15.352 -22.713  0.00  0.00    +0.023 C 
ATOM     20  C   UNL     1      34.260 -14.044 -22.437  0.00  0.00    -0.015 C 
ATOM     21  C   UNL     1      33.570 -13.824 -24.703  0.00  0.00    +0.158 C 
ATOM     22  C   UNL     1      33.713 -13.259 -23.446  0.00  0.00    +0.100 C 
ATOM     23  N   UNL     1      33.009 -13.011 -25.720  0.00  0.00    -0.336 N 
ATOM     24  H   UNL     1      32.890 -13.372 -26.627  0.00  0.00    +0.144 HD
ATOM     25  H   UNL     1      32.741 -12.085 -25.518  0.00  0.00    +0.144 HD
ENDBRANCH  16  18
ENDBRANCH  15  16
ENDBRANCH   1  15
TORSDOF 5
ENDMDL
MODEL 4
REMARK VINA RESULT:     -11.0      4.703      9.592
REMARK  Name = 11659487
REMARK  5 active torsions:
REMARK  status: ('A' for Active; 'I' for Inactive)
REMARK    1  A    between atoms: C_1  and  C_15
REMARK    2  A    between atoms: C_2  and  C_7
REMARK    3  A    between atoms: C_10  and  O_13
REMARK    4  A    between atoms: C_15  and  C_16
REMARK    5  A    between atoms: C_16  and  C_18
REMARK                            x       y       z     vdW  Elec       q    Type
REMARK                         _______ _______ _______ _____ _____    ______ ____
ROOT
ATOM      1  C   UNL     1      34.880 -16.718 -22.759  0.00  0.00    -0.022 C 
ATOM      2  C   UNL     1      34.743 -18.966 -21.884  0.00  0.00    -0.000 C 
ATOM      3  C   UNL     1      34.974 -17.604 -21.686  0.00  0.00    -0.004 C 
ATOM      4  C   UNL     1      34.558 -17.194 -24.031  0.00  0.00    -0.004 C 
ATOM      5  C   UNL     1      34.420 -19.441 -23.155  0.00  0.00    -0.000 C 
ATOM      6  C   UNL     1      34.328 -18.555 -24.228  0.00  0.00    -0.000 C 
ENDROOT
BRANCH   2   7
ATOM      7  C   UNL     1      34.838 -19.885 -20.771  0.00  0.00    +0.003 C 
ATOM      8  C   UNL     1      33.681 -20.433 -20.218  0.00  0.00    +0.037 C 
ATOM      9  C   UNL     1      36.087 -20.223 -20.251  0.00  0.00    +0.000 C 
ATOM     10  C   UNL     1      33.773 -21.319 -19.145  0.00  0.00    +0.139 C 
ATOM     11  C   UNL     1      36.180 -21.109 -19.178  0.00  0.00    +0.003 C 
ATOM     12  C   UNL     1      35.022 -21.658 -18.625  0.00  0.00    +0.037 C 
BRANCH  10  13
ATOM     13  O   UNL     1      32.644 -21.855 -18.605  0.00  0.00    -0.471 OA
ATOM     14  C   UNL     1      32.803 -22.688 -17.458  0.00  0.00    +0.252 C 
ENDBRANCH  10  13
ENDBRANCH   2   7
BRANCH   1  15
ATOM     15  C   UNL     1      35.127 -15.262 -22.549  0.00  0.00    +0.034 C 
BRANCH  15  16
ATOM     16  C   UNL     1      33.844 -14.407 -22.513  0.00  0.00    +0.064 C 
BRANCH  16  18
ATOM     17  N   UNL     1      34.209 -12.110 -23.189  0.00  0.00    -0.396 NA
ATOM     18  C   UNL     1      33.814 -13.336 -23.577  0.00  0.00    +0.110 C 
ATOM     19  C   UNL     1      33.394 -13.674 -24.845  0.00  0.00    +0.023 C 
ATOM     20  C   UNL     1      33.379 -12.664 -25.801  0.00  0.00    -0.015 C 
ATOM     21  C   UNL     1      34.180 -11.155 -24.144  0.00  0.00    +0.158 C 
ATOM     22  C   UNL     1      33.777 -11.378 -25.452  0.00  0.00    +0.100 C 
ATOM     23  N   UNL     1      34.584  -9.840 -23.806  0.00  0.00    -0.336 N 
ATOM     24  H   UNL     1      34.877  -9.637 -22.889  0.00  0.00    +0.144 HD
ATOM     25  H   UNL     1      34.570  -9.130 -24.488  0.00  0.00    +0.144 HD
ENDBRANCH  16  18
ENDBRANCH  15  16
ENDBRANCH   1  15
TORSDOF 5
ENDMDL
MODEL 5
REMARK VINA RESULT:     -11.0      4.235      8.625
REMARK  Name = 11659487
REMARK  5 active torsions:
REMARK  status: ('A' for Active; 'I' for Inactive)
REMARK    1  A    between atoms: C_1  and  C_15
REMARK    2  A    between atoms: C_2  and  C_7
REMARK    3  A    between atoms: C_10  and  O_13
REMARK    4  A    between atoms: C_15  and  C_16
REMARK    5  A    between atoms: C_16  and  C_18
REMARK                            x       y       z     vdW  Elec       q    Type
REMARK                         _______ _______ _______ _____ _____    ______ ____
ROOT
ATOM      1  C   UNL     1      35.058 -18.853 -22.291  0.00  0.00    -0.022 C 
ATOM      2  C   UNL     1      35.530 -20.086 -20.267  0.00  0.00    -0.000 C 
ATOM      3  C   UNL     1      34.634 -19.696 -21.264  0.00  0.00    -0.004 C 
ATOM      4  C   UNL     1      36.377 -18.399 -22.321  0.00  0.00    -0.004 C 
ATOM      5  C   UNL     1      36.848 -19.633 -20.298  0.00  0.00    -0.000 C 
ATOM      6  C   UNL     1      37.272 -18.789 -21.325  0.00  0.00    -0.000 C 
ENDROOT
BRANCH   2   7
ATOM      7  C   UNL     1      35.091 -20.962 -19.203  0.00  0.00    +0.003 C 
ATOM      8  C   UNL     1      33.735 -21.252 -19.053  0.00  0.00    +0.037 C 
ATOM      9  C   UNL     1      36.023 -21.518 -18.328  0.00  0.00    +0.000 C 
ATOM     10  C   UNL     1      33.312 -22.097 -18.026  0.00  0.00    +0.139 C 
ATOM     11  C   UNL     1      35.601 -22.363 -17.302  0.00  0.00    +0.003 C 
ATOM     12  C   UNL     1      34.245 -22.653 -17.151  0.00  0.00    +0.037 C 
BRANCH  10  13
ATOM     13  O   UNL     1      31.988 -22.380 -17.879  0.00  0.00    -0.471 OA
ATOM     14  C   UNL     1      31.550 -22.782 -16.583  0.00  0.00    +0.252 C 
ENDBRANCH  10  13
ENDBRANCH   2   7
BRANCH   1  15
ATOM     15  C   UNL     1      34.102 -18.435 -23.356  0.00  0.00    +0.034 C 
BRANCH  15  16
ATOM     16  C   UNL     1      34.685 -17.421 -24.360  0.00  0.00    +0.064 C 
BRANCH  16  18
ATOM     17  N   UNL     1      33.874 -15.225 -24.985  0.00  0.00    -0.396 NA
ATOM     18  C   UNL     1      34.383 -15.986 -23.999  0.00  0.00    +0.110 C 
ATOM     19  C   UNL     1      34.642 -15.558 -22.716  0.00  0.00    +0.023 C 
ATOM     20  C   UNL     1      34.352 -14.231 -22.416  0.00  0.00    -0.015 C 
ATOM     21  C   UNL     1      33.606 -13.943 -24.656  0.00  0.00    +0.158 C 
ATOM     22  C   UNL     1      33.825 -13.402 -23.399  0.00  0.00    +0.100 C 
ATOM     23  N   UNL     1      33.067 -13.084 -25.647  0.00  0.00    -0.336 N 
ATOM     24  H   UNL     1      32.896 -13.426 -26.553  0.00  0.00    +0.144 HD
ATOM     25  H   UNL     1      32.865 -12.146 -25.427  0.00  0.00    +0.144 HD
ENDBRANCH  16  18
ENDBRANCH  15  16
ENDBRANCH   1  15
TORSDOF 5
ENDMDL
MODEL 6
REMARK VINA RESULT:     -11.0      4.507      8.664
REMARK  Name = 11659487
REMARK  5 active torsions:
REMARK  status: ('A' for Active; 'I' for Inactive)
REMARK    1  A    between atoms: C_1  and  C_15
REMARK    2  A    between atoms: C_2  and  C_7
REMARK    3  A    between atoms: C_10  and  O_13
REMARK    4  A    between atoms: C_15  and  C_16
REMARK    5  A    between atoms: C_16  and  C_18
REMARK                            x       y       z     vdW  Elec       q    Type
REMARK                         _______ _______ _______ _____ _____    ______ ____
ROOT
ATOM      1  C   UNL     1      34.884 -16.609 -22.725  0.00  0.00    -0.022 C 
ATOM      2  C   UNL     1      34.763 -18.877 -21.899  0.00  0.00    -0.000 C 
ATOM      3  C   UNL     1      34.981 -17.517 -21.671  0.00  0.00    -0.004 C 
ATOM      4  C   UNL     1      34.572 -17.061 -24.008  0.00  0.00    -0.004 C 
ATOM      5  C   UNL     1      34.451 -19.328 -23.180  0.00  0.00    -0.000 C 
ATOM      6  C   UNL     1      34.355 -18.420 -24.235  0.00  0.00    -0.000 C 
ENDROOT
BRANCH   2   7
ATOM      7  C   UNL     1      34.862 -19.818 -20.805  0.00  0.00    +0.003 C 
ATOM      8  C   UNL     1      33.707 -20.377 -20.258  0.00  0.00    +0.037 C 
ATOM      9  C   UNL     1      36.113 -20.169 -20.297  0.00  0.00    +0.000 C 
ATOM     10  C   UNL     1      33.803 -21.285 -19.204  0.00  0.00    +0.139 C 
ATOM     11  C   UNL     1      36.210 -21.076 -19.243  0.00  0.00    +0.003 C 
ATOM     12  C   UNL     1      35.054 -21.635 -18.696  0.00  0.00    +0.037 C 
BRANCH  10  13
ATOM     13  O   UNL     1      32.675 -21.830 -18.670  0.00  0.00    -0.471 OA
ATOM     14  C   UNL     1      32.836 -22.659 -17.520  0.00  0.00    +0.252 C 
ENDBRANCH  10  13
ENDBRANCH   2   7
BRANCH   1  15
ATOM     15  C   UNL     1      35.116 -15.156 -22.483  0.00  0.00    +0.034 C 
BRANCH  15  16
ATOM     16  C   UNL     1      34.121 -14.232 -23.212  0.00  0.00    +0.064 C 
BRANCH  16  18
ATOM     17  N   UNL     1      33.006 -12.132 -22.749  0.00  0.00    -0.396 NA
ATOM     18  C   UNL     1      33.337 -13.345 -22.274  0.00  0.00    +0.110 C 
ATOM     19  C   UNL     1      33.020 -13.823 -21.021  0.00  0.00    +0.023 C 
ATOM     20  C   UNL     1      32.297 -12.982 -20.182  0.00  0.00    -0.015 C 
ATOM     21  C   UNL     1      32.306 -11.342 -21.906  0.00  0.00    +0.158 C 
ATOM     22  C   UNL     1      31.930 -11.716 -20.625  0.00  0.00    +0.100 C 
ATOM     23  N   UNL     1      31.922 -10.050 -22.342  0.00  0.00    -0.336 N 
ATOM     24  H   UNL     1      32.168  -9.742 -23.244  0.00  0.00    +0.144 HD
ATOM     25  H   UNL     1      31.411  -9.459 -21.742  0.00  0.00    +0.144 HD
ENDBRANCH  16  18
ENDBRANCH  15  16
ENDBRANCH   1  15
TORSDOF 5
ENDMDL
MODEL 7
REMARK VINA RESULT:     -10.9      3.686      8.638
REMARK  Name = 11659487
REMARK  5 active torsions:
REMARK  status: ('A' for Active; 'I' for Inactive)
REMARK    1  A    between atoms: C_1  and  C_15
REMARK    2  A    between atoms: C_2  and  C_7
REMARK    3  A    between atoms: C_10  and  O_13
REMARK    4  A    between atoms: C_15  and  C_16
REMARK    5  A    between atoms: C_16  and  C_18
REMARK                            x       y       z     vdW  Elec       q    Type
REMARK                         _______ _______ _______ _____ _____    ______ ____
ROOT
ATOM      1  C   UNL     1      34.273 -22.447 -17.546  0.00  0.00    -0.022 C 
ATOM      2  C   UNL     1      32.539 -23.103 -15.996  0.00  0.00    -0.000 C 
ATOM      3  C   UNL     1      32.927 -22.688 -17.271  0.00  0.00    -0.004 C 
ATOM      4  C   UNL     1      35.231 -22.617 -16.546  0.00  0.00    -0.004 C 
ATOM      5  C   UNL     1      33.497 -23.274 -14.997  0.00  0.00    -0.000 C 
ATOM      6  C   UNL     1      34.843 -23.031 -15.272  0.00  0.00    -0.000 C 
ENDROOT
BRANCH   2   7
ATOM      7  C   UNL     1      31.143 -23.355 -15.711  0.00  0.00    +0.003 C 
ATOM      8  C   UNL     1      30.159 -22.542 -16.271  0.00  0.00    +0.037 C 
ATOM      9  C   UNL     1      30.782 -24.413 -14.877  0.00  0.00    +0.000 C 
ATOM     10  C   UNL     1      28.813 -22.786 -15.997  0.00  0.00    +0.139 C 
ATOM     11  C   UNL     1      29.437 -24.658 -14.603  0.00  0.00    +0.003 C 
ATOM     12  C   UNL     1      28.452 -23.844 -15.163  0.00  0.00    +0.037 C 
BRANCH  10  13
ATOM     13  O   UNL     1      27.851 -21.992 -16.544  0.00  0.00    -0.471 OA
ATOM     14  C   UNL     1      26.552 -22.048 -15.959  0.00  0.00    +0.252 C 
ENDBRANCH  10  13
ENDBRANCH   2   7
BRANCH   1  15
ATOM     15  C   UNL     1      34.688 -22.004 -18.908  0.00  0.00    +0.034 C 
BRANCH  15  16
ATOM     16  C   UNL     1      33.820 -20.872 -19.493  0.00  0.00    +0.064 C 
BRANCH  16  18
ATOM     17  N   UNL     1      35.801 -19.642 -20.146  0.00  0.00    -0.396 NA
ATOM     18  C   UNL     1      34.557 -20.014 -20.493  0.00  0.00    +0.110 C 
ATOM     19  C   UNL     1      33.923 -19.675 -21.668  0.00  0.00    +0.023 C 
ATOM     20  C   UNL     1      34.629 -18.885 -22.569  0.00  0.00    -0.015 C 
ATOM     21  C   UNL     1      36.456 -18.874 -21.045  0.00  0.00    +0.158 C 
ATOM     22  C   UNL     1      35.920 -18.472 -22.259  0.00  0.00    +0.100 C 
ATOM     23  N   UNL     1      37.773 -18.446 -20.745  0.00  0.00    -0.336 N 
ATOM     24  H   UNL     1      38.193 -18.708 -19.894  0.00  0.00    +0.144 HD
ATOM     25  H   UNL     1      38.267 -17.886 -21.387  0.00  0.00    +0.144 HD
ENDBRANCH  16  18
ENDBRANCH  15  16
ENDBRANCH   1  15
TORSDOF 5
ENDMDL
MODEL 8
REMARK VINA RESULT:     -10.8      1.660      2.481
REMARK  Name = 11659487
REMARK  5 active torsions:
REMARK  status: ('A' for Active; 'I' for Inactive)
REMARK    1  A    between atoms: C_1  and  C_15
REMARK    2  A    between atoms: C_2  and  C_7
REMARK    3  A    between atoms: C_10  and  O_13
REMARK    4  A    between atoms: C_15  and  C_16
REMARK    5  A    between atoms: C_16  and  C_18
REMARK                            x       y       z     vdW  Elec       q    Type
REMARK                         _______ _______ _______ _____ _____    ______ ____
ROOT
ATOM      1  C   UNL     1      34.153 -21.247 -19.145  0.00  0.00    -0.022 C 
ATOM      2  C   UNL     1      35.117 -19.693 -20.725  0.00  0.00    -0.000 C 
ATOM      3  C   UNL     1      33.995 -20.287 -20.144  0.00  0.00    -0.004 C 
ATOM      4  C   UNL     1      35.433 -21.614 -18.727  0.00  0.00    -0.004 C 
ATOM      5  C   UNL     1      36.395 -20.060 -20.307  0.00  0.00    -0.000 C 
ATOM      6  C   UNL     1      36.554 -21.021 -19.307  0.00  0.00    -0.000 C 
ENDROOT
BRANCH   2   7
ATOM      7  C   UNL     1      34.953 -18.697 -21.760  0.00  0.00    +0.003 C 
ATOM      8  C   UNL     1      34.295 -19.024 -22.946  0.00  0.00    +0.037 C 
ATOM      9  C   UNL     1      35.450 -17.407 -21.573  0.00  0.00    +0.000 C 
ATOM     10  C   UNL     1      34.137 -18.062 -23.944  0.00  0.00    +0.139 C 
ATOM     11  C   UNL     1      35.292 -16.446 -22.570  0.00  0.00    +0.003 C 
ATOM     12  C   UNL     1      34.635 -16.773 -23.756  0.00  0.00    +0.037 C 
BRANCH  10  13
ATOM     13  O   UNL     1      33.495 -18.382 -25.102  0.00  0.00    -0.471 OA
ATOM     14  C   UNL     1      32.181 -18.924 -24.988  0.00  0.00    +0.252 C 
ENDBRANCH  10  13
ENDBRANCH   2   7
BRANCH   1  15
ATOM     15  C   UNL     1      32.955 -21.882 -18.523  0.00  0.00    +0.034 C 
BRANCH  15  16
ATOM     16  C   UNL     1      33.272 -23.146 -17.699  0.00  0.00    +0.064 C 
BRANCH  16  18
ATOM     17  N   UNL     1      33.470 -23.365 -15.295  0.00  0.00    -0.396 NA
ATOM     18  C   UNL     1      32.640 -23.135 -16.328  0.00  0.00    +0.110 C 
ATOM     19  C   UNL     1      31.287 -22.897 -16.225  0.00  0.00    +0.023 C 
ATOM     20  C   UNL     1      30.736 -22.893 -14.948  0.00  0.00    -0.015 C 
ATOM     21  C   UNL     1      32.899 -23.355 -14.071  0.00  0.00    +0.158 C 
ATOM     22  C   UNL     1      31.550 -23.126 -13.845  0.00  0.00    +0.100 C 
ATOM     23  N   UNL     1      33.715 -23.589 -12.936  0.00  0.00    -0.336 N 
ATOM     24  H   UNL     1      34.678 -23.756 -13.050  0.00  0.00    +0.144 HD
ATOM     25  H   UNL     1      33.318 -23.585 -12.035  0.00  0.00    +0.144 HD
ENDBRANCH  16  18
ENDBRANCH  15  16
ENDBRANCH   1  15
TORSDOF 5
ENDMDL
MODEL 9
REMARK VINA RESULT:     -10.8      3.272      6.333
REMARK  Name = 11659487
REMARK  5 active torsions:
REMARK  status: ('A' for Active; 'I' for Inactive)
REMARK    1  A    between atoms: C_1  and  C_15
REMARK    2  A    between atoms: C_2  and  C_7
REMARK    3  A    between atoms: C_10  and  O_13
REMARK    4  A    between atoms: C_15  and  C_16
REMARK    5  A    between atoms: C_16  and  C_18
REMARK                            x       y       z     vdW  Elec       q    Type
REMARK                         _______ _______ _______ _____ _____    ______ ____
ROOT
ATOM      1  C   UNL     1      35.050 -16.408 -22.221  0.00  0.00    -0.022 C 
ATOM      2  C   UNL     1      33.981 -14.414 -23.070  0.00  0.00    -0.000 C 
ATOM      3  C   UNL     1      34.575 -15.112 -22.018  0.00  0.00    -0.004 C 
ATOM      4  C   UNL     1      34.928 -17.006 -23.475  0.00  0.00    -0.004 C 
ATOM      5  C   UNL     1      33.860 -15.012 -24.324  0.00  0.00    -0.000 C 
ATOM      6  C   UNL     1      34.333 -16.308 -24.527  0.00  0.00    -0.000 C 
ENDROOT
BRANCH   2   7
ATOM      7  C   UNL     1      33.490 -13.069 -22.859  0.00  0.00    +0.003 C 
ATOM      8  C   UNL     1      32.567 -12.814 -21.846  0.00  0.00    +0.037 C 
ATOM      9  C   UNL     1      33.942 -12.028 -23.669  0.00  0.00    +0.000 C 
ATOM     10  C   UNL     1      32.095 -11.517 -21.643  0.00  0.00    +0.139 C 
ATOM     11  C   UNL     1      33.470 -10.731 -23.467  0.00  0.00    +0.003 C 
ATOM     12  C   UNL     1      32.546 -10.476 -22.452  0.00  0.00    +0.037 C 
BRANCH  10  13
ATOM     13  O   UNL     1      31.193 -11.268 -20.653  0.00  0.00    -0.471 OA
ATOM     14  C   UNL     1      31.489 -10.196 -19.760  0.00  0.00    +0.252 C 
ENDBRANCH  10  13
ENDBRANCH   2   7
BRANCH   1  15
ATOM     15  C   UNL     1      35.686 -17.155 -21.098  0.00  0.00    +0.034 C 
BRANCH  15  16
ATOM     16  C   UNL     1      36.162 -18.571 -21.476  0.00  0.00    +0.064 C 
BRANCH  16  18
ATOM     17  N   UNL     1      34.261 -19.758 -20.558  0.00  0.00    -0.396 NA
ATOM     18  C   UNL     1      35.601 -19.647 -20.578  0.00  0.00    +0.110 C 
ATOM     19  C   UNL     1      36.475 -20.426 -19.852  0.00  0.00    +0.023 C 
ATOM     20  C   UNL     1      35.926 -21.408 -19.035  0.00  0.00    -0.015 C 
ATOM     21  C   UNL     1      33.764 -20.722 -19.752  0.00  0.00    +0.158 C 
ATOM     22  C   UNL     1      34.546 -21.565 -18.978  0.00  0.00    +0.100 C 
ATOM     23  N   UNL     1      32.359 -20.896 -19.684  0.00  0.00    -0.336 N 
ATOM     24  H   UNL     1      31.766 -20.319 -20.217  0.00  0.00    +0.144 HD
ATOM     25  H   UNL     1      31.977 -21.593 -19.103  0.00  0.00    +0.144 HD
ENDBRANCH  16  18
ENDBRANCH  15  16
ENDBRANCH   1  15
TORSDOF 5
ENDMDL
