MODEL 1
REMARK VINA RESULT:     -12.1      0.000      0.000
REMARK  Name = 446129
REMARK  7 active torsions:
REMARK  status: ('A' for Active; 'I' for Inactive)
REMARK    1  A    between atoms: C_1  and  O_2
REMARK    2  A    between atoms: C_1  and  C_4
REMARK    3  A    between atoms: C_1  and  C_18
REMARK    4  A    between atoms: C_4  and  N_5
REMARK    5  A    between atoms: C_18  and  O_19
REMARK    6  A    between atoms: O_19  and  C_23
REMARK    7  A    between atoms: C_20  and  C_26
REMARK                            x       y       z     vdW  Elec       q    Type
REMARK                         _______ _______ _______ _____ _____    ______ ____
ROOT
ATOM      1  C   UNL     1      33.892 -15.170 -23.636  0.00  0.00    +0.133 C 
ENDROOT
BRANCH   1   2
ATOM      2  O   UNL     1      33.135 -14.835 -24.803  0.00  0.00    -0.383 OA
ATOM      3  H   UNL     1      32.529 -15.562 -25.015  0.00  0.00    +0.210 HD
ENDBRANCH   1   2
BRANCH   1   4
ATOM      4  C   UNL     1      35.161 -15.898 -24.084  0.00  0.00    -0.043 C 
BRANCH   4   5
ATOM      5  N   UNL     1      35.392 -17.124 -23.320  0.00  0.00    +0.391 N 
ATOM      6  N   UNL     1      34.875 -19.070 -21.295  0.00  0.00    -0.298 N 
ATOM      7  C   UNL     1      34.242 -18.027 -23.435  0.00  0.00    -0.055 C 
ATOM      8  C   UNL     1      35.643 -16.810 -21.908  0.00  0.00    -0.055 C 
ATOM      9  C   UNL     1      34.494 -19.338 -22.685  0.00  0.00    +0.069 C 
ATOM     10  C   UNL     1      35.942 -18.080 -21.108  0.00  0.00    +0.069 C 
ATOM     11  H   UNL     1      36.216 -17.588 -23.705  0.00  0.00    -0.079 HD
ATOM     12  N   UNL     1      35.829 -20.519 -19.640  0.00  0.00    -0.229 NA
ATOM     13  C   UNL     1      34.734 -20.075 -20.330  0.00  0.00    +0.132 C 
ATOM     14  C   UNL     1      33.457 -20.604 -20.099  0.00  0.00    +0.034 C 
ATOM     15  C   UNL     1      33.301 -21.603 -19.144  0.00  0.00    +0.004 C 
ATOM     16  C   UNL     1      35.639 -21.492 -18.720  0.00  0.00    +0.100 C 
ATOM     17  C   UNL     1      34.407 -22.060 -18.437  0.00  0.00    +0.021 C 
ENDBRANCH   4   5
ENDBRANCH   1   4
BRANCH   1  18
ATOM     18  C   UNL     1      34.175 -13.890 -22.852  0.00  0.00    +0.232 C 
BRANCH  18  19
ATOM     19  O   UNL     1      33.011 -13.539 -22.109  0.00  0.00    -0.473 OA
BRANCH  19  23
ATOM     20  C   UNL     1      32.001  -9.514 -22.013  0.00  0.00    -0.022 C 
ATOM     21  C   UNL     1      32.859  -9.994 -23.001  0.00  0.00    -0.001 C 
ATOM     22  C   UNL     1      31.483 -10.387 -21.056  0.00  0.00    -0.001 C 
ATOM     23  C   UNL     1      32.679 -12.211 -22.077  0.00  0.00    +0.139 C 
ATOM     24  C   UNL     1      33.199 -11.346 -23.034  0.00  0.00    +0.037 C 
ATOM     25  C   UNL     1      31.824 -11.739 -21.088  0.00  0.00    +0.037 C 
BRANCH  20  26
ATOM     26  C   UNL     1      31.633  -8.043 -21.977  0.00  0.00    +0.022 C 
ATOM     27  C   UNL     1      32.441  -7.274 -20.917  0.00  0.00    +0.004 C 
ATOM     28  C   UNL     1      31.773  -7.384 -23.360  0.00  0.00    +0.004 C 
ATOM     29  C   UNL     1      32.056  -5.796 -20.883  0.00  0.00    +0.000 C 
ATOM     30  C   UNL     1      31.390  -5.905 -23.316  0.00  0.00    +0.000 C 
ATOM     31  C   UNL     1      32.188  -5.149 -22.259  0.00  0.00    +0.000 C 
ENDBRANCH  20  26
ENDBRANCH  19  23
ENDBRANCH  18  19
ENDBRANCH   1  18
TORSDOF 7
ENDMDL
MODEL 2
REMARK VINA RESULT:     -12.0      1.097      1.632
REMARK  Name = 446129
REMARK  7 active torsions:
REMARK  status: ('A' for Active; 'I' for Inactive)
REMARK    1  A    between atoms: C_1  and  O_2
REMARK    2  A    between atoms: C_1  and  C_4
REMARK    3  A    between atoms: C_1  and  C_18
REMARK    4  A    between atoms: C_4  and  N_5
REMARK    5  A    between atoms: C_18  and  O_19
REMARK    6  A    between atoms: O_19  and  C_23
REMARK    7  A    between atoms: C_20  and  C_26
REMARK                            x       y       z     vdW  Elec       q    Type
REMARK                         _______ _______ _______ _____ _____    ______ ____
ROOT
ATOM      1  C   UNL     1      33.879 -15.226 -23.599  0.00  0.00    +0.133 C 
ENDROOT
BRANCH   1   2
ATOM      2  O   UNL     1      33.075 -14.955 -24.750  0.00  0.00    -0.383 OA
ATOM      3  H   UNL     1      32.419 -14.274 -24.533  0.00  0.00    +0.210 HD
ENDBRANCH   1   2
BRANCH   1   4
ATOM      4  C   UNL     1      35.138 -15.965 -24.061  0.00  0.00    -0.043 C 
BRANCH   4   5
ATOM      5  N   UNL     1      35.375 -17.184 -23.288  0.00  0.00    +0.391 N 
ATOM      6  N   UNL     1      34.867 -19.120 -21.251  0.00  0.00    -0.298 N 
ATOM      7  C   UNL     1      34.231 -18.096 -23.399  0.00  0.00    -0.055 C 
ATOM      8  C   UNL     1      35.621 -16.859 -21.877  0.00  0.00    -0.055 C 
ATOM      9  C   UNL     1      34.491 -19.399 -22.640  0.00  0.00    +0.069 C 
ATOM     10  C   UNL     1      35.927 -18.121 -21.068  0.00  0.00    +0.069 C 
ATOM     11  H   UNL     1      36.203 -17.645 -23.668  0.00  0.00    -0.079 HD
ATOM     12  N   UNL     1      35.827 -20.551 -19.584  0.00  0.00    -0.229 NA
ATOM     13  C   UNL     1      34.731 -20.119 -20.280  0.00  0.00    +0.132 C 
ATOM     14  C   UNL     1      33.457 -20.655 -20.047  0.00  0.00    +0.034 C 
ATOM     15  C   UNL     1      33.305 -21.649 -19.086  0.00  0.00    +0.004 C 
ATOM     16  C   UNL     1      35.641 -21.519 -18.658  0.00  0.00    +0.100 C 
ATOM     17  C   UNL     1      34.413 -22.094 -18.374  0.00  0.00    +0.021 C 
ENDBRANCH   4   5
ENDBRANCH   1   4
BRANCH   1  18
ATOM     18  C   UNL     1      34.180 -13.907 -22.890  0.00  0.00    +0.232 C 
BRANCH  18  19
ATOM     19  O   UNL     1      32.975 -13.154 -22.789  0.00  0.00    -0.473 OA
BRANCH  19  23
ATOM     20  C   UNL     1      33.339  -9.022 -22.948  0.00  0.00    -0.022 C 
ATOM     21  C   UNL     1      32.358  -9.605 -22.147  0.00  0.00    -0.001 C 
ATOM     22  C   UNL     1      34.198  -9.828 -23.696  0.00  0.00    -0.001 C 
ATOM     23  C   UNL     1      33.094 -11.791 -22.842  0.00  0.00    +0.139 C 
ATOM     24  C   UNL     1      32.235 -10.994 -22.093  0.00  0.00    +0.037 C 
ATOM     25  C   UNL     1      34.074 -11.216 -23.643  0.00  0.00    +0.037 C 
BRANCH  20  26
ATOM     26  C   UNL     1      33.472  -7.512 -23.007  0.00  0.00    +0.022 C 
ATOM     27  C   UNL     1      34.486  -7.066 -24.075  0.00  0.00    +0.004 C 
ATOM     28  C   UNL     1      32.111  -6.826 -23.219  0.00  0.00    +0.004 C 
ATOM     29  C   UNL     1      34.618  -5.544 -24.119  0.00  0.00    +0.000 C 
ATOM     30  C   UNL     1      32.253  -5.306 -23.267  0.00  0.00    +0.000 C 
ATOM     31  C   UNL     1      33.265  -4.867 -24.321  0.00  0.00    +0.000 C 
ENDBRANCH  20  26
ENDBRANCH  19  23
ENDBRANCH  18  19
ENDBRANCH   1  18
TORSDOF 7
ENDMDL
MODEL 3
REMARK VINA RESULT:     -11.9      2.959     11.305
REMARK  Name = 446129
REMARK  7 active torsions:
REMARK  status: ('A' for Active; 'I' for Inactive)
REMARK    1  A    between atoms: C_1  and  O_2
REMARK    2  A    between atoms: C_1  and  C_4
REMARK    3  A    between atoms: C_1  and  C_18
REMARK    4  A    between atoms: C_4  and  N_5
REMARK    5  A    between atoms: C_18  and  O_19
REMARK    6  A    between atoms: O_19  and  C_23
REMARK    7  A    between atoms: C_20  and  C_26
REMARK                            x       y       z     vdW  Elec       q    Type
REMARK                         _______ _______ _______ _____ _____    ______ ____
ROOT
ATOM      1  C   UNL     1      35.642 -17.762 -21.922  0.00  0.00    +0.133 C 
ENDROOT
BRANCH   1   2
ATOM      2  O   UNL     1      37.003 -18.152 -22.125  0.00  0.00    -0.383 OA
ATOM      3  H   UNL     1      37.386 -17.627 -22.845  0.00  0.00    +0.210 HD
ENDBRANCH   1   2
BRANCH   1   4
ATOM      4  C   UNL     1      35.153 -17.059 -23.191  0.00  0.00    -0.043 C 
BRANCH   4   5
ATOM      5  N   UNL     1      34.920 -15.631 -22.975  0.00  0.00    +0.391 N 
ATOM      6  N   UNL     1      33.395 -13.308 -22.317  0.00  0.00    -0.298 N 
ATOM      7  C   UNL     1      34.511 -15.379 -21.589  0.00  0.00    -0.055 C 
ATOM      8  C   UNL     1      33.893 -15.132 -23.898  0.00  0.00    -0.055 C 
ATOM      9  C   UNL     1      34.319 -13.882 -21.335  0.00  0.00    +0.069 C 
ATOM     10  C   UNL     1      33.681 -13.627 -23.722  0.00  0.00    +0.069 C 
ATOM     11  H   UNL     1      35.794 -15.136 -23.157  0.00  0.00    -0.079 HD
ATOM     12  N   UNL     1      32.925 -11.020 -22.855  0.00  0.00    -0.229 NA
ATOM     13  C   UNL     1      32.745 -12.101 -22.037  0.00  0.00    +0.132 C 
ATOM     14  C   UNL     1      31.916 -12.035 -20.907  0.00  0.00    +0.034 C 
ATOM     15  C   UNL     1      31.264 -10.842 -20.615  0.00  0.00    +0.004 C 
ATOM     16  C   UNL     1      32.275  -9.877 -22.539  0.00  0.00    +0.100 C 
ATOM     17  C   UNL     1      31.441  -9.739 -21.441  0.00  0.00    +0.021 C 
ENDBRANCH   4   5
ENDBRANCH   1   4
BRANCH   1  18
ATOM     18  C   UNL     1      34.825 -19.003 -21.566  0.00  0.00    +0.232 C 
BRANCH  18  19
ATOM     19  O   UNL     1      35.666 -19.927 -20.883  0.00  0.00    -0.473 OA
BRANCH  19  23
ATOM     20  C   UNL     1      33.889 -22.237 -17.928  0.00  0.00    -0.022 C 
ATOM     21  C   UNL     1      33.098 -21.594 -18.881  0.00  0.00    -0.001 C 
ATOM     22  C   UNL     1      35.277 -22.103 -17.969  0.00  0.00    -0.001 C 
ATOM     23  C   UNL     1      35.080 -20.688 -19.908  0.00  0.00    +0.139 C 
ATOM     24  C   UNL     1      33.695 -20.818 -19.874  0.00  0.00    +0.037 C 
ATOM     25  C   UNL     1      35.874 -21.326 -18.961  0.00  0.00    +0.037 C 
BRANCH  20  26
ATOM     26  C   UNL     1      33.239 -23.081 -16.848  0.00  0.00    +0.022 C 
ATOM     27  C   UNL     1      34.045 -23.055 -15.537  0.00  0.00    +0.004 C 
ATOM     28  C   UNL     1      31.777 -22.670 -16.603  0.00  0.00    +0.004 C 
ATOM     29  C   UNL     1      33.387 -23.915 -14.459  0.00  0.00    +0.000 C 
ATOM     30  C   UNL     1      31.128 -23.530 -15.520  0.00  0.00    +0.000 C 
ATOM     31  C   UNL     1      31.934 -23.509 -14.225  0.00  0.00    +0.000 C 
ENDBRANCH  20  26
ENDBRANCH  19  23
ENDBRANCH  18  19
ENDBRANCH   1  18
TORSDOF 7
ENDMDL
MODEL 4
REMARK VINA RESULT:     -11.7      2.944     11.228
REMARK  Name = 446129
REMARK  7 active torsions:
REMARK  status: ('A' for Active; 'I' for Inactive)
REMARK    1  A    between atoms: C_1  and  O_2
REMARK    2  A    between atoms: C_1  and  C_4
REMARK    3  A    between atoms: C_1  and  C_18
REMARK    4  A    between atoms: C_4  and  N_5
REMARK    5  A    between atoms: C_18  and  O_19
REMARK    6  A    between atoms: O_19  and  C_23
REMARK    7  A    between atoms: C_20  and  C_26
REMARK                            x       y       z     vdW  Elec       q    Type
REMARK                         _______ _______ _______ _____ _____    ______ ____
ROOT
ATOM      1  C   UNL     1      36.611 -18.235 -21.610  0.00  0.00    +0.133 C 
ENDROOT
BRANCH   1   2
ATOM      2  O   UNL     1      37.953 -18.321 -22.097  0.00  0.00    -0.383 OA
ATOM      3  H   UNL     1      38.529 -18.668 -21.398  0.00  0.00    +0.210 HD
ENDBRANCH   1   2
BRANCH   1   4
ATOM      4  C   UNL     1      35.668 -18.198 -22.816  0.00  0.00    -0.043 C 
BRANCH   4   5
ATOM      5  N   UNL     1      34.797 -17.022 -22.797  0.00  0.00    +0.391 N 
ATOM      6  N   UNL     1      34.154 -14.250 -23.036  0.00  0.00    -0.298 N 
ATOM      7  C   UNL     1      34.776 -16.376 -24.114  0.00  0.00    -0.055 C 
ATOM      8  C   UNL     1      35.247 -16.066 -21.778  0.00  0.00    -0.055 C 
ATOM      9  C   UNL     1      33.824 -15.177 -24.123  0.00  0.00    +0.069 C 
ATOM     10  C   UNL     1      34.311 -14.857 -21.708  0.00  0.00    +0.069 C 
ATOM     11  H   UNL     1      33.853 -17.330 -22.565  0.00  0.00    -0.079 HD
ATOM     12  N   UNL     1      32.908 -12.413 -22.131  0.00  0.00    -0.229 NA
ATOM     13  C   UNL     1      33.726 -12.919 -23.104  0.00  0.00    +0.132 C 
ATOM     14  C   UNL     1      34.153 -12.134 -24.185  0.00  0.00    +0.034 C 
ATOM     15  C   UNL     1      33.735 -10.810 -24.267  0.00  0.00    +0.004 C 
ATOM     16  C   UNL     1      32.523 -11.121 -22.244  0.00  0.00    +0.100 C 
ATOM     17  C   UNL     1      32.905 -10.287 -23.282  0.00  0.00    +0.021 C 
ENDBRANCH   4   5
ENDBRANCH   1   4
BRANCH   1  18
ATOM     18  C   UNL     1      36.352 -19.418 -20.678  0.00  0.00    +0.232 C 
BRANCH  18  19
ATOM     19  O   UNL     1      35.007 -19.853 -20.849  0.00  0.00    -0.473 OA
BRANCH  19  23
ATOM     20  C   UNL     1      33.430 -22.259 -17.857  0.00  0.00    -0.022 C 
ATOM     21  C   UNL     1      32.578 -21.530 -18.687  0.00  0.00    -0.001 C 
ATOM     22  C   UNL     1      34.811 -22.178 -18.032  0.00  0.00    -0.001 C 
ATOM     23  C   UNL     1      34.487 -20.646 -19.862  0.00  0.00    +0.139 C 
ATOM     24  C   UNL     1      33.108 -20.722 -19.693  0.00  0.00    +0.037 C 
ATOM     25  C   UNL     1      35.341 -21.369 -19.037  0.00  0.00    +0.037 C 
BRANCH  20  26
ATOM     26  C   UNL     1      32.853 -23.137 -16.762  0.00  0.00    +0.022 C 
ATOM     27  C   UNL     1      33.747 -23.154 -15.509  0.00  0.00    +0.004 C 
ATOM     28  C   UNL     1      31.412 -22.734 -16.405  0.00  0.00    +0.004 C 
ATOM     29  C   UNL     1      33.162 -24.048 -14.418  0.00  0.00    +0.000 C 
ATOM     30  C   UNL     1      30.837 -23.630 -15.309  0.00  0.00    +0.000 C 
ATOM     31  C   UNL     1      31.729 -23.651 -14.072  0.00  0.00    +0.000 C 
ENDBRANCH  20  26
ENDBRANCH  19  23
ENDBRANCH  18  19
ENDBRANCH   1  18
TORSDOF 7
ENDMDL
MODEL 5
REMARK VINA RESULT:     -11.7      2.453     11.032
REMARK  Name = 446129
REMARK  7 active torsions:
REMARK  status: ('A' for Active; 'I' for Inactive)
REMARK    1  A    between atoms: C_1  and  O_2
REMARK    2  A    between atoms: C_1  and  C_4
REMARK    3  A    between atoms: C_1  and  C_18
REMARK    4  A    between atoms: C_4  and  N_5
REMARK    5  A    between atoms: C_18  and  O_19
REMARK    6  A    between atoms: O_19  and  C_23
REMARK    7  A    between atoms: C_20  and  C_26
REMARK                            x       y       z     vdW  Elec       q    Type
REMARK                         _______ _______ _______ _____ _____    ______ ____
ROOT
ATOM      1  C   UNL     1      34.596 -17.928 -24.001  0.00  0.00    +0.133 C 
ENDROOT
BRANCH   1   2
ATOM      2  O   UNL     1      33.452 -17.465 -24.723  0.00  0.00    -0.383 OA
ATOM      3  H   UNL     1      32.721 -17.306 -24.105  0.00  0.00    +0.210 HD
ENDBRANCH   1   2
BRANCH   1   4
ATOM      4  C   UNL     1      35.230 -16.730 -23.292  0.00  0.00    -0.043 C 
BRANCH   4   5
ATOM      5  N   UNL     1      34.288 -15.622 -23.133  0.00  0.00    +0.391 N 
ATOM      6  N   UNL     1      33.496 -12.893 -22.842  0.00  0.00    -0.298 N 
ATOM      7  C   UNL     1      34.384 -14.696 -24.267  0.00  0.00    -0.055 C 
ATOM      8  C   UNL     1      34.546 -14.904 -21.878  0.00  0.00    -0.055 C 
ATOM      9  C   UNL     1      33.364 -13.563 -24.140  0.00  0.00    +0.069 C 
ATOM     10  C   UNL     1      33.530 -13.778 -21.671  0.00  0.00    +0.069 C 
ATOM     11  H   UNL     1      33.345 -16.010 -23.102  0.00  0.00    -0.079 HD
ATOM     12  N   UNL     1      32.031 -11.355 -21.731  0.00  0.00    -0.229 NA
ATOM     13  C   UNL     1      32.993 -11.598 -22.674  0.00  0.00    +0.132 C 
ATOM     14  C   UNL     1      33.495 -10.574 -23.489  0.00  0.00    +0.034 C 
ATOM     15  C   UNL     1      33.004  -9.283 -23.335  0.00  0.00    +0.004 C 
ATOM     16  C   UNL     1      31.578 -10.087 -21.609  0.00  0.00    +0.100 C 
ATOM     17  C   UNL     1      32.027  -9.026 -22.379  0.00  0.00    +0.021 C 
ENDBRANCH   4   5
ENDBRANCH   1   4
BRANCH   1  18
ATOM     18  C   UNL     1      34.154 -19.033 -23.042  0.00  0.00    +0.232 C 
BRANCH  18  19
ATOM     19  O   UNL     1      34.938 -18.953 -21.856  0.00  0.00    -0.473 OA
BRANCH  19  23
ATOM     20  C   UNL     1      34.024 -21.643 -18.830  0.00  0.00    -0.022 C 
ATOM     21  C   UNL     1      35.356 -21.377 -19.147  0.00  0.00    -0.001 C 
ATOM     22  C   UNL     1      33.000 -21.005 -19.530  0.00  0.00    -0.001 C 
ATOM     23  C   UNL     1      34.637 -19.841 -20.858  0.00  0.00    +0.139 C 
ATOM     24  C   UNL     1      35.663 -20.473 -20.164  0.00  0.00    +0.037 C 
ATOM     25  C   UNL     1      33.307 -20.102 -20.547  0.00  0.00    +0.037 C 
BRANCH  20  26
ATOM     26  C   UNL     1      33.690 -22.627 -17.724  0.00  0.00    +0.022 C 
ATOM     27  C   UNL     1      34.743 -22.610 -16.602  0.00  0.00    +0.004 C 
ATOM     28  C   UNL     1      32.279 -22.395 -17.158  0.00  0.00    +0.004 C 
ATOM     29  C   UNL     1      34.403 -23.610 -15.500  0.00  0.00    +0.000 C 
ATOM     30  C   UNL     1      31.948 -23.397 -16.053  0.00  0.00    +0.000 C 
ATOM     31  C   UNL     1      32.998 -23.382 -14.947  0.00  0.00    +0.000 C 
ENDBRANCH  20  26
ENDBRANCH  19  23
ENDBRANCH  18  19
ENDBRANCH   1  18
TORSDOF 7
ENDMDL
MODEL 6
REMARK VINA RESULT:     -11.6      2.892     11.321
REMARK  Name = 446129
REMARK  7 active torsions:
REMARK  status: ('A' for Active; 'I' for Inactive)
REMARK    1  A    between atoms: C_1  and  O_2
REMARK    2  A    between atoms: C_1  and  C_4
REMARK    3  A    between atoms: C_1  and  C_18
REMARK    4  A    between atoms: C_4  and  N_5
REMARK    5  A    between atoms: C_18  and  O_19
REMARK    6  A    between atoms: O_19  and  C_23
REMARK    7  A    between atoms: C_20  and  C_26
REMARK                            x       y       z     vdW  Elec       q    Type
REMARK                         _______ _______ _______ _____ _____    ______ ____
ROOT
ATOM      1  C   UNL     1      33.805 -13.841 -23.855  0.00  0.00    +0.133 C 
ENDROOT
BRANCH   1   2
ATOM      2  O   UNL     1      33.001 -14.652 -24.715  0.00  0.00    -0.383 OA
ATOM      3  H   UNL     1      32.981 -14.262 -25.603  0.00  0.00    +0.210 HD
ENDBRANCH   1   2
BRANCH   1   4
ATOM      4  C   UNL     1      32.891 -13.212 -22.800  0.00  0.00    -0.043 C 
BRANCH   4   5
ATOM      5  N   UNL     1      33.154 -11.784 -22.624  0.00  0.00    +0.391 N 
ATOM      6  N   UNL     1      32.763  -8.988 -23.053  0.00  0.00    -0.298 N 
ATOM      7  C   UNL     1      31.976 -11.106 -22.073  0.00  0.00    -0.055 C 
ATOM      8  C   UNL     1      33.532 -11.170 -23.903  0.00  0.00    -0.055 C 
ATOM      9  C   UNL     1      32.258  -9.621 -21.831  0.00  0.00    +0.069 C 
ATOM     10  C   UNL     1      33.867  -9.687 -23.722  0.00  0.00    +0.069 C 
ATOM     11  H   UNL     1      33.930 -11.683 -21.968  0.00  0.00    -0.079 HD
ATOM     12  N   UNL     1      33.817  -6.859 -23.376  0.00  0.00    -0.229 NA
ATOM     13  C   UNL     1      32.680  -7.598 -23.201  0.00  0.00    +0.132 C 
ATOM     14  C   UNL     1      31.413  -6.998 -23.162  0.00  0.00    +0.034 C 
ATOM     15  C   UNL     1      31.314  -5.618 -23.307  0.00  0.00    +0.004 C 
ATOM     16  C   UNL     1      33.682  -5.521 -23.513  0.00  0.00    +0.100 C 
ATOM     17  C   UNL     1      32.465  -4.859 -23.486  0.00  0.00    +0.021 C 
ENDBRANCH   4   5
ENDBRANCH   1   4
BRANCH   1  18
ATOM     18  C   UNL     1      34.909 -14.710 -23.255  0.00  0.00    +0.232 C 
BRANCH  18  19
ATOM     19  O   UNL     1      34.895 -15.981 -23.898  0.00  0.00    -0.473 OA
BRANCH  19  23
ATOM     20  C   UNL     1      34.925 -19.319 -21.432  0.00  0.00    -0.022 C 
ATOM     21  C   UNL     1      34.426 -19.416 -22.731  0.00  0.00    -0.001 C 
ATOM     22  C   UNL     1      35.413 -18.100 -20.962  0.00  0.00    -0.001 C 
ATOM     23  C   UNL     1      34.904 -17.082 -23.085  0.00  0.00    +0.139 C 
ATOM     24  C   UNL     1      34.416 -18.295 -23.560  0.00  0.00    +0.037 C 
ATOM     25  C   UNL     1      35.402 -16.978 -21.790  0.00  0.00    +0.037 C 
BRANCH  20  26
ATOM     26  C   UNL     1      34.935 -20.540 -20.530  0.00  0.00    +0.022 C 
ATOM     27  C   UNL     1      36.151 -20.547 -19.587  0.00  0.00    +0.004 C 
ATOM     28  C   UNL     1      33.623 -20.676 -19.738  0.00  0.00    +0.004 C 
ATOM     29  C   UNL     1      36.155 -21.784 -18.691  0.00  0.00    +0.000 C 
ATOM     30  C   UNL     1      33.638 -21.913 -18.841  0.00  0.00    +0.000 C 
ATOM     31  C   UNL     1      34.849 -21.921 -17.913  0.00  0.00    +0.000 C 
ENDBRANCH  20  26
ENDBRANCH  19  23
ENDBRANCH  18  19
ENDBRANCH   1  18
TORSDOF 7
ENDMDL
MODEL 7
REMARK VINA RESULT:     -11.5      2.870     11.217
REMARK  Name = 446129
REMARK  7 active torsions:
REMARK  status: ('A' for Active; 'I' for Inactive)
REMARK    1  A    between atoms: C_1  and  O_2
REMARK    2  A    between atoms: C_1  and  C_4
REMARK    3  A    between atoms: C_1  and  C_18
REMARK    4  A    between atoms: C_4  and  N_5
REMARK    5  A    between atoms: C_18  and  O_19
REMARK    6  A    between atoms: O_19  and  C_23
REMARK    7  A    between atoms: C_20  and  C_26
REMARK                            x       y       z     vdW  Elec       q    Type
REMARK                         _______ _______ _______ _____ _____    ______ ____
ROOT
ATOM      1  C   UNL     1      33.945 -14.135 -23.813  0.00  0.00    +0.133 C 
ENDROOT
BRANCH   1   2
ATOM      2  O   UNL     1      33.054 -14.890 -24.637  0.00  0.00    -0.383 OA
ATOM      3  H   UNL     1      32.952 -15.783 -24.270  0.00  0.00    +0.210 HD
ENDBRANCH   1   2
BRANCH   1   4
ATOM      4  C   UNL     1      33.154 -13.607 -22.613  0.00  0.00    -0.043 C 
BRANCH   4   5
ATOM      5  N   UNL     1      32.653 -12.252 -22.838  0.00  0.00    +0.391 N 
ATOM      6  N   UNL     1      32.611  -9.408 -22.570  0.00  0.00    -0.298 N 
ATOM      7  C   UNL     1      33.671 -11.428 -23.501  0.00  0.00    -0.055 C 
ATOM      8  C   UNL     1      32.258 -11.632 -21.567  0.00  0.00    -0.055 C 
ATOM      9  C   UNL     1      33.137 -10.023 -23.792  0.00  0.00    +0.069 C 
ATOM     10  C   UNL     1      31.677 -10.234 -21.794  0.00  0.00    +0.069 C 
ATOM     11  H   UNL     1      31.833 -12.313 -23.443  0.00  0.00    -0.079 HD
ATOM     12  N   UNL     1      31.247  -7.459 -22.275  0.00  0.00    -0.229 NA
ATOM     13  C   UNL     1      32.477  -8.017 -22.494  0.00  0.00    +0.132 C 
ATOM     14  C   UNL     1      33.624  -7.226 -22.648  0.00  0.00    +0.034 C 
ATOM     15  C   UNL     1      33.507  -5.843 -22.576  0.00  0.00    +0.004 C 
ATOM     16  C   UNL     1      31.172  -6.110 -22.211  0.00  0.00    +0.100 C 
ATOM     17  C   UNL     1      32.262  -5.266 -22.353  0.00  0.00    +0.021 C 
ENDBRANCH   4   5
ENDBRANCH   1   4
BRANCH   1  18
ATOM     18  C   UNL     1      35.120 -15.028 -23.416  0.00  0.00    +0.232 C 
BRANCH  18  19
ATOM     19  O   UNL     1      34.923 -16.323 -23.975  0.00  0.00    -0.473 OA
BRANCH  19  23
ATOM     20  C   UNL     1      34.990 -19.524 -21.333  0.00  0.00    -0.022 C 
ATOM     21  C   UNL     1      35.531 -18.296 -20.954  0.00  0.00    -0.001 C 
ATOM     22  C   UNL     1      34.427 -19.677 -22.600  0.00  0.00    -0.001 C 
ATOM     23  C   UNL     1      34.946 -17.379 -23.103  0.00  0.00    +0.139 C 
ATOM     24  C   UNL     1      35.508 -17.220 -21.841  0.00  0.00    +0.037 C 
ATOM     25  C   UNL     1      34.406 -18.601 -23.488  0.00  0.00    +0.037 C 
BRANCH  20  26
ATOM     26  C   UNL     1      35.015 -20.694 -20.368  0.00  0.00    +0.022 C 
ATOM     27  C   UNL     1      36.203 -20.608 -19.393  0.00  0.00    +0.004 C 
ATOM     28  C   UNL     1      33.687 -20.838 -19.606  0.00  0.00    +0.004 C 
ATOM     29  C   UNL     1      36.224 -21.796 -18.432  0.00  0.00    +0.000 C 
ATOM     30  C   UNL     1      33.718 -22.024 -18.644  0.00  0.00    +0.000 C 
ATOM     31  C   UNL     1      34.901 -21.939 -17.685  0.00  0.00    +0.000 C 
ENDBRANCH  20  26
ENDBRANCH  19  23
ENDBRANCH  18  19
ENDBRANCH   1  18
TORSDOF 7
ENDMDL
MODEL 8
REMARK VINA RESULT:     -10.7      6.680     10.098
REMARK  Name = 446129
REMARK  7 active torsions:
REMARK  status: ('A' for Active; 'I' for Inactive)
REMARK    1  A    between atoms: C_1  and  O_2
REMARK    2  A    between atoms: C_1  and  C_4
REMARK    3  A    between atoms: C_1  and  C_18
REMARK    4  A    between atoms: C_4  and  N_5
REMARK    5  A    between atoms: C_18  and  O_19
REMARK    6  A    between atoms: O_19  and  C_23
REMARK    7  A    between atoms: C_20  and  C_26
REMARK                            x       y       z     vdW  Elec       q    Type
REMARK                         _______ _______ _______ _____ _____    ______ ____
ROOT
ATOM      1  C   UNL     1      37.249 -22.654 -15.594  0.00  0.00    +0.133 C 
ENDROOT
BRANCH   1   2
ATOM      2  O   UNL     1      37.567 -22.069 -14.328  0.00  0.00    -0.383 OA
ATOM      3  H   UNL     1      38.502 -22.229 -14.124  0.00  0.00    +0.210 HD
ENDBRANCH   1   2
BRANCH   1   4
ATOM      4  C   UNL     1      36.206 -23.751 -15.364  0.00  0.00    -0.043 C 
BRANCH   4   5
ATOM      5  N   UNL     1      34.840 -23.233 -15.425  0.00  0.00    +0.391 N 
ATOM      6  N   UNL     1      31.989 -23.396 -15.471  0.00  0.00    -0.298 N 
ATOM      7  C   UNL     1      34.097 -23.592 -14.211  0.00  0.00    -0.055 C 
ATOM      8  C   UNL     1      34.145 -23.754 -16.609  0.00  0.00    -0.055 C 
ATOM      9  C   UNL     1      32.683 -23.008 -14.239  0.00  0.00    +0.069 C 
ATOM     10  C   UNL     1      32.732 -23.174 -16.717  0.00  0.00    +0.069 C 
ATOM     11  H   UNL     1      34.888 -22.216 -15.493  0.00  0.00    -0.079 HD
ATOM     12  N   UNL     1      29.964 -22.558 -16.443  0.00  0.00    -0.229 NA
ATOM     13  C   UNL     1      30.591 -23.354 -15.523  0.00  0.00    +0.132 C 
ATOM     14  C   UNL     1      29.864 -24.140 -14.617  0.00  0.00    +0.034 C 
ATOM     15  C   UNL     1      28.474 -24.107 -14.657  0.00  0.00    +0.004 C 
ATOM     16  C   UNL     1      28.612 -22.553 -16.452  0.00  0.00    +0.100 C 
ATOM     17  C   UNL     1      27.829 -23.302 -15.588  0.00  0.00    +0.021 C 
ENDBRANCH   4   5
ENDBRANCH   1   4
BRANCH   1  18
ATOM     18  C   UNL     1      36.767 -21.551 -16.535  0.00  0.00    +0.232 C 
BRANCH  18  19
ATOM     19  O   UNL     1      36.480 -22.125 -17.807  0.00  0.00    -0.473 OA
BRANCH  19  23
ATOM     20  C   UNL     1      35.114 -19.539 -20.752  0.00  0.00    -0.022 C 
ATOM     21  C   UNL     1      34.226 -20.412 -20.125  0.00  0.00    -0.001 C 
ATOM     22  C   UNL     1      36.461 -19.535 -20.390  0.00  0.00    -0.001 C 
ATOM     23  C   UNL     1      36.029 -21.273 -18.779  0.00  0.00    +0.139 C 
ATOM     24  C   UNL     1      34.684 -21.281 -19.135  0.00  0.00    +0.037 C 
ATOM     25  C   UNL     1      36.920 -20.405 -19.401  0.00  0.00    +0.037 C 
BRANCH  20  26
ATOM     26  C   UNL     1      34.615 -18.594 -21.829  0.00  0.00    +0.022 C 
ATOM     27  C   UNL     1      35.442 -17.298 -21.885  0.00  0.00    +0.004 C 
ATOM     28  C   UNL     1      34.565 -19.274 -23.208  0.00  0.00    +0.004 C 
ATOM     29  C   UNL     1      34.926 -16.350 -22.966  0.00  0.00    +0.000 C 
ATOM     30  C   UNL     1      34.051 -18.319 -24.285  0.00  0.00    +0.000 C 
ATOM     31  C   UNL     1      34.869 -17.032 -24.331  0.00  0.00    +0.000 C 
ENDBRANCH  20  26
ENDBRANCH  19  23
ENDBRANCH  18  19
ENDBRANCH   1  18
TORSDOF 7
ENDMDL
MODEL 9
REMARK VINA RESULT:     -10.4      7.149     11.357
REMARK  Name = 446129
REMARK  7 active torsions:
REMARK  status: ('A' for Active; 'I' for Inactive)
REMARK    1  A    between atoms: C_1  and  O_2
REMARK    2  A    between atoms: C_1  and  C_4
REMARK    3  A    between atoms: C_1  and  C_18
REMARK    4  A    between atoms: C_4  and  N_5
REMARK    5  A    between atoms: C_18  and  O_19
REMARK    6  A    between atoms: O_19  and  C_23
REMARK    7  A    between atoms: C_20  and  C_26
REMARK                            x       y       z     vdW  Elec       q    Type
REMARK                         _______ _______ _______ _____ _____    ______ ____
ROOT
ATOM      1  C   UNL     1      34.622 -22.769 -14.913  0.00  0.00    +0.133 C 
ENDROOT
BRANCH   1   2
ATOM      2  O   UNL     1      33.289 -23.267 -15.056  0.00  0.00    -0.383 OA
ATOM      3  H   UNL     1      33.260 -23.912 -15.779  0.00  0.00    +0.210 HD
ENDBRANCH   1   2
BRANCH   1   4
ATOM      4  C   UNL     1      35.318 -23.575 -13.815  0.00  0.00    -0.043 C 
BRANCH   4   5
ATOM      5  N   UNL     1      36.349 -24.463 -14.352  0.00  0.00    +0.391 N 
ATOM      6  N   UNL     1      38.254 -26.590 -14.284  0.00  0.00    -0.298 N 
ATOM      7  C   UNL     1      35.901 -25.860 -14.308  0.00  0.00    -0.055 C 
ATOM      8  C   UNL     1      37.600 -24.314 -13.598  0.00  0.00    -0.055 C 
ATOM      9  C   UNL     1      36.948 -26.793 -14.920  0.00  0.00    +0.069 C 
ATOM     10  C   UNL     1      38.704 -25.196 -14.187  0.00  0.00    +0.069 C 
ATOM     11  H   UNL     1      36.517 -24.201 -15.324  0.00  0.00    -0.079 HD
ATOM     12  N   UNL     1      40.436 -27.326 -14.947  0.00  0.00    -0.229 NA
ATOM     13  C   UNL     1      39.228 -27.591 -14.362  0.00  0.00    +0.132 C 
ATOM     14  C   UNL     1      38.932 -28.855 -13.832  0.00  0.00    +0.034 C 
ATOM     15  C   UNL     1      39.890 -29.860 -13.903  0.00  0.00    +0.004 C 
ATOM     16  C   UNL     1      41.343 -28.328 -14.998  0.00  0.00    +0.100 C 
ATOM     17  C   UNL     1      41.120 -29.600 -14.495  0.00  0.00    +0.021 C 
ENDBRANCH   4   5
ENDBRANCH   1   4
BRANCH   1  18
ATOM     18  C   UNL     1      35.325 -22.859 -16.267  0.00  0.00    +0.232 C 
BRANCH  18  19
ATOM     19  O   UNL     1      34.345 -22.809 -17.299  0.00  0.00    -0.473 OA
BRANCH  19  23
ATOM     20  C   UNL     1      35.054 -20.158 -20.413  0.00  0.00    -0.022 C 
ATOM     21  C   UNL     1      33.747 -20.525 -20.094  0.00  0.00    -0.001 C 
ATOM     22  C   UNL     1      36.122 -20.683 -19.687  0.00  0.00    -0.001 C 
ATOM     23  C   UNL     1      34.579 -21.935 -18.327  0.00  0.00    +0.139 C 
ATOM     24  C   UNL     1      33.508 -21.415 -19.047  0.00  0.00    +0.037 C 
ATOM     25  C   UNL     1      35.884 -21.574 -18.641  0.00  0.00    +0.037 C 
BRANCH  20  26
ATOM     26  C   UNL     1      35.312 -19.190 -21.552  0.00  0.00    +0.022 C 
ATOM     27  C   UNL     1      34.256 -19.316 -22.665  0.00  0.00    +0.004 C 
ATOM     28  C   UNL     1      35.418 -17.737 -21.057  0.00  0.00    +0.004 C 
ATOM     29  C   UNL     1      34.532 -18.344 -23.811  0.00  0.00    +0.000 C 
ATOM     30  C   UNL     1      35.688 -16.771 -22.209  0.00  0.00    +0.000 C 
ATOM     31  C   UNL     1      34.644 -16.906 -23.313  0.00  0.00    +0.000 C 
ENDBRANCH  20  26
ENDBRANCH  19  23
ENDBRANCH  18  19
ENDBRANCH   1  18
TORSDOF 7
ENDMDL
