MODEL 1
REMARK VINA RESULT:     -11.7      0.000      0.000
REMARK  Name = 9801640
REMARK  6 active torsions:
REMARK  status: ('A' for Active; 'I' for Inactive)
REMARK    1  A    between atoms: C_1  and  C_2
REMARK    2  A    between atoms: C_1  and  C_16
REMARK    3  A    between atoms: C_2  and  N_3
REMARK    4  A    between atoms: C_7  and  C_11
REMARK    5  A    between atoms: C_16  and  C_17
REMARK    6  A    between atoms: C_17  and  N_21
REMARK                            x       y       z     vdW  Elec       q    Type
REMARK                         _______ _______ _______ _____ _____    ______ ____
ROOT
ATOM      1  C   UNL     1      33.925 -14.949 -23.708  0.00  0.00    -0.021 C 
ENDROOT
BRANCH   1   2
ATOM      2  C   UNL     1      35.118 -15.792 -24.157  0.00  0.00    -0.077 C 
BRANCH   2   3
ATOM      3  N   UNL     1      35.336 -16.898 -23.228  0.00  0.00    +0.390 N 
ATOM      4  C   UNL     1      35.122 -16.475 -21.841  0.00  0.00    -0.072 C 
ATOM      5  C   UNL     1      34.467 -18.039 -23.562  0.00  0.00    -0.051 C 
ATOM      6  C   UNL     1      35.518 -17.608 -20.882  0.00  0.00    +0.005 C 
ATOM      7  C   UNL     1      34.935 -18.946 -21.276  0.00  0.00    -0.013 C 
ATOM      8  C   UNL     1      34.452 -19.124 -22.520  0.00  0.00    -0.052 C 
ATOM      9  H   UNL     1      36.306 -17.198 -23.318  0.00  0.00    -0.079 HD
BRANCH   7  11
ATOM     10  N   UNL     1      36.118 -20.366 -19.735  0.00  0.00    -0.244 NA
ATOM     11  C   UNL     1      34.920 -20.032 -20.267  0.00  0.00    +0.077 C 
ATOM     12  C   UNL     1      33.723 -20.642 -19.919  0.00  0.00    +0.019 C 
ATOM     13  C   UNL     1      33.760 -21.656 -18.968  0.00  0.00    +0.003 C 
ATOM     14  C   UNL     1      36.114 -21.357 -18.814  0.00  0.00    +0.099 C 
ATOM     15  C   UNL     1      34.974 -22.027 -18.401  0.00  0.00    +0.021 C 
ENDBRANCH   7  11
ENDBRANCH   2   3
ENDBRANCH   1   2
BRANCH   1  16
ATOM     16  C   UNL     1      34.361 -13.526 -23.346  0.00  0.00    +0.020 C 
BRANCH  16  17
ATOM     17  C   UNL     1      33.610 -12.462 -24.141  0.00  0.00    +0.099 C 
BRANCH  17  21
ATOM     18 CL   UNL     1      35.279 -10.100 -24.653  0.00  0.00    -0.062 Cl
ATOM     19  O   UNL     1      32.252  -8.564 -22.620  0.00  0.00    -0.448 OA
ATOM     20  O   UNL     1      31.706 -12.544 -22.138  0.00  0.00    -0.269 OA
ATOM     21  N   UNL     1      33.273 -11.286 -23.326  0.00  0.00    -0.244 N 
ATOM     22  C   UNL     1      32.359 -11.506 -22.272  0.00  0.00    +0.256 C 
ATOM     23  C   UNL     1      33.859 -10.063 -23.647  0.00  0.00    +0.151 C 
ATOM     24  C   UNL     1      32.212 -10.513 -21.180  0.00  0.00    +0.088 C 
ATOM     25  C   UNL     1      32.151  -9.139 -21.385  0.00  0.00    +0.150 C 
ATOM     26  C   UNL     1      33.395  -8.853 -23.311  0.00  0.00    +0.206 C 
ATOM     27  C   UNL     1      32.065 -11.011 -19.875  0.00  0.00    +0.008 C 
ATOM     28  C   UNL     1      31.922  -8.268 -20.313  0.00  0.00    +0.038 C 
ATOM     29  C   UNL     1      31.858 -10.142 -18.801  0.00  0.00    +0.000 C 
ATOM     30  C   UNL     1      31.783  -8.770 -19.021  0.00  0.00    +0.003 C 
ENDBRANCH  17  21
ENDBRANCH  16  17
ENDBRANCH   1  16
TORSDOF 6
ENDMDL
MODEL 2
REMARK VINA RESULT:     -10.9      1.079      1.288
REMARK  Name = 9801640
REMARK  6 active torsions:
REMARK  status: ('A' for Active; 'I' for Inactive)
REMARK    1  A    between atoms: C_1  and  C_2
REMARK    2  A    between atoms: C_1  and  C_16
REMARK    3  A    between atoms: C_2  and  N_3
REMARK    4  A    between atoms: C_7  and  C_11
REMARK    5  A    between atoms: C_16  and  C_17
REMARK    6  A    between atoms: C_17  and  N_21
REMARK                            x       y       z     vdW  Elec       q    Type
REMARK                         _______ _______ _______ _____ _____    ______ ____
ROOT
ATOM      1  C   UNL     1      33.713 -13.981 -23.132  0.00  0.00    -0.021 C 
ENDROOT
BRANCH   1   2
ATOM      2  C   UNL     1      34.788 -14.805 -23.839  0.00  0.00    -0.077 C 
BRANCH   2   3
ATOM      3  N   UNL     1      35.163 -15.957 -23.023  0.00  0.00    +0.390 N 
ATOM      4  C   UNL     1      34.712 -15.793 -21.637  0.00  0.00    -0.072 C 
ATOM      5  C   UNL     1      34.630 -17.201 -23.599  0.00  0.00    -0.051 C 
ATOM      6  C   UNL     1      35.263 -16.935 -20.770  0.00  0.00    +0.005 C 
ATOM      7  C   UNL     1      35.058 -18.299 -21.390  0.00  0.00    -0.013 C 
ATOM      8  C   UNL     1      34.763 -18.401 -22.700  0.00  0.00    -0.052 C 
ATOM      9  H   UNL     1      36.181 -16.018 -23.015  0.00  0.00    -0.079 HD
BRANCH   7  11
ATOM     10  N   UNL     1      36.445 -19.770 -20.083  0.00  0.00    -0.244 NA
ATOM     11  C   UNL     1      35.196 -19.494 -20.523  0.00  0.00    +0.077 C 
ATOM     12  C   UNL     1      34.080 -20.256 -20.207  0.00  0.00    +0.019 C 
ATOM     13  C   UNL     1      34.259 -21.368 -19.391  0.00  0.00    +0.003 C 
ATOM     14  C   UNL     1      36.580 -20.859 -19.293  0.00  0.00    +0.099 C 
ATOM     15  C   UNL     1      35.530 -21.682 -18.921  0.00  0.00    +0.021 C 
ENDBRANCH   7  11
ENDBRANCH   2   3
ENDBRANCH   1   2
BRANCH   1  16
ATOM     16  C   UNL     1      34.169 -12.531 -22.940  0.00  0.00    +0.020 C 
BRANCH  16  17
ATOM     17  C   UNL     1      33.455 -11.562 -23.877  0.00  0.00    +0.099 C 
BRANCH  17  21
ATOM     18 CL   UNL     1      35.625  -9.755 -24.686  0.00  0.00    -0.062 Cl
ATOM     19  O   UNL     1      32.951  -7.245 -23.199  0.00  0.00    -0.448 OA
ATOM     20  O   UNL     1      31.516 -10.845 -22.040  0.00  0.00    -0.269 OA
ATOM     21  N   UNL     1      33.362 -10.206 -23.318  0.00  0.00    -0.244 N 
ATOM     22  C   UNL     1      32.388 -10.016 -22.313  0.00  0.00    +0.256 C 
ATOM     23  C   UNL     1      34.216  -9.222 -23.812  0.00  0.00    +0.151 C 
ATOM     24  C   UNL     1      32.431  -8.823 -21.435  0.00  0.00    +0.088 C 
ATOM     25  C   UNL     1      32.684  -7.533 -21.891  0.00  0.00    +0.150 C 
ATOM     26  C   UNL     1      34.023  -7.899 -23.738  0.00  0.00    +0.206 C 
ATOM     27  C   UNL     1      32.134  -9.013 -20.075  0.00  0.00    +0.008 C 
ATOM     28  C   UNL     1      32.621  -6.442 -21.016  0.00  0.00    +0.038 C 
ATOM     29  C   UNL     1      32.091  -7.929 -19.196  0.00  0.00    +0.000 C 
ATOM     30  C   UNL     1      32.331  -6.642 -19.669  0.00  0.00    +0.003 C 
ENDBRANCH  17  21
ENDBRANCH  16  17
ENDBRANCH   1  16
TORSDOF 6
ENDMDL
MODEL 3
REMARK VINA RESULT:     -10.9      4.161     10.441
REMARK  Name = 9801640
REMARK  6 active torsions:
REMARK  status: ('A' for Active; 'I' for Inactive)
REMARK    1  A    between atoms: C_1  and  C_2
REMARK    2  A    between atoms: C_1  and  C_16
REMARK    3  A    between atoms: C_2  and  N_3
REMARK    4  A    between atoms: C_7  and  C_11
REMARK    5  A    between atoms: C_16  and  C_17
REMARK    6  A    between atoms: C_17  and  N_21
REMARK                            x       y       z     vdW  Elec       q    Type
REMARK                         _______ _______ _______ _____ _____    ______ ____
ROOT
ATOM      1  C   UNL     1      36.152 -18.085 -21.937  0.00  0.00    -0.021 C 
ENDROOT
BRANCH   1   2
ATOM      2  C   UNL     1      35.246 -17.768 -23.126  0.00  0.00    -0.077 C 
BRANCH   2   3
ATOM      3  N   UNL     1      35.049 -16.325 -23.242  0.00  0.00    +0.390 N 
ATOM      4  C   UNL     1      33.897 -16.015 -24.095  0.00  0.00    -0.072 C 
ATOM      5  C   UNL     1      34.893 -15.711 -21.914  0.00  0.00    -0.051 C 
ATOM      6  C   UNL     1      33.817 -14.499 -24.332  0.00  0.00    +0.005 C 
ATOM      7  C   UNL     1      33.950 -13.694 -23.059  0.00  0.00    -0.013 C 
ATOM      8  C   UNL     1      34.448 -14.274 -21.951  0.00  0.00    -0.052 C 
ATOM      9  H   UNL     1      35.880 -15.929 -23.682  0.00  0.00    -0.079 HD
BRANCH   7  11
ATOM     10  N   UNL     1      32.602 -11.915 -22.159  0.00  0.00    -0.244 NA
ATOM     11  C   UNL     1      33.528 -12.273 -23.078  0.00  0.00    +0.077 C 
ATOM     12  C   UNL     1      34.077 -11.397 -24.003  0.00  0.00    +0.019 C 
ATOM     13  C   UNL     1      33.650 -10.074 -23.984  0.00  0.00    +0.003 C 
ATOM     14  C   UNL     1      32.210 -10.620 -22.171  0.00  0.00    +0.099 C 
ATOM     15  C   UNL     1      32.698  -9.670 -23.053  0.00  0.00    +0.021 C 
ENDBRANCH   7  11
ENDBRANCH   2   3
ENDBRANCH   1   2
BRANCH   1  16
ATOM     16  C   UNL     1      35.351 -18.688 -20.779  0.00  0.00    +0.020 C 
BRANCH  16  17
ATOM     17  C   UNL     1      35.014 -20.158 -21.000  0.00  0.00    +0.099 C 
BRANCH  17  21
ATOM     18 CL   UNL     1      32.281 -20.132 -19.925  0.00  0.00    -0.062 Cl
ATOM     19  O   UNL     1      33.979 -23.027 -17.829  0.00  0.00    -0.448 OA
ATOM     20  O   UNL     1      37.146 -21.280 -19.642  0.00  0.00    -0.269 OA
ATOM     21  N   UNL     1      34.846 -20.892 -19.737  0.00  0.00    -0.244 N 
ATOM     22  C   UNL     1      36.036 -21.316 -19.105  0.00  0.00    +0.256 C 
ATOM     23  C   UNL     1      33.555 -21.119 -19.265  0.00  0.00    +0.151 C 
ATOM     24  C   UNL     1      36.027 -21.740 -17.685  0.00  0.00    +0.088 C 
ATOM     25  C   UNL     1      35.051 -22.557 -17.125  0.00  0.00    +0.150 C 
ATOM     26  C   UNL     1      33.186 -22.072 -18.400  0.00  0.00    +0.206 C 
ATOM     27  C   UNL     1      37.110 -21.334 -16.886  0.00  0.00    +0.008 C 
ATOM     28  C   UNL     1      35.157 -22.987 -15.797  0.00  0.00    +0.038 C 
ATOM     29  C   UNL     1      37.206 -21.745 -15.555  0.00  0.00    +0.000 C 
ATOM     30  C   UNL     1      36.231 -22.575 -15.012  0.00  0.00    +0.003 C 
ENDBRANCH  17  21
ENDBRANCH  16  17
ENDBRANCH   1  16
TORSDOF 6
ENDMDL
MODEL 4
REMARK VINA RESULT:     -10.6      1.776      2.702
REMARK  Name = 9801640
REMARK  6 active torsions:
REMARK  status: ('A' for Active; 'I' for Inactive)
REMARK    1  A    between atoms: C_1  and  C_2
REMARK    2  A    between atoms: C_1  and  C_16
REMARK    3  A    between atoms: C_2  and  N_3
REMARK    4  A    between atoms: C_7  and  C_11
REMARK    5  A    between atoms: C_16  and  C_17
REMARK    6  A    between atoms: C_17  and  N_21
REMARK                            x       y       z     vdW  Elec       q    Type
REMARK                         _______ _______ _______ _____ _____    ______ ____
ROOT
ATOM      1  C   UNL     1      33.772 -14.017 -23.213  0.00  0.00    -0.021 C 
ENDROOT
BRANCH   1   2
ATOM      2  C   UNL     1      34.937 -14.794 -23.825  0.00  0.00    -0.077 C 
BRANCH   2   3
ATOM      3  N   UNL     1      35.249 -15.966 -23.010  0.00  0.00    +0.390 N 
ATOM      4  C   UNL     1      34.776 -15.794 -21.633  0.00  0.00    -0.072 C 
ATOM      5  C   UNL     1      34.678 -17.183 -23.607  0.00  0.00    -0.051 C 
ATOM      6  C   UNL     1      35.263 -16.963 -20.764  0.00  0.00    +0.005 C 
ATOM      7  C   UNL     1      35.016 -18.313 -21.399  0.00  0.00    -0.013 C 
ATOM      8  C   UNL     1      34.745 -18.393 -22.715  0.00  0.00    -0.052 C 
ATOM      9  H   UNL     1      36.263 -16.068 -22.982  0.00  0.00    -0.079 HD
BRANCH   7  11
ATOM     10  N   UNL     1      36.320 -19.859 -20.093  0.00  0.00    -0.244 NA
ATOM     11  C   UNL     1      35.089 -19.519 -20.538  0.00  0.00    +0.077 C 
ATOM     12  C   UNL     1      33.934 -20.226 -20.234  0.00  0.00    +0.019 C 
ATOM     13  C   UNL     1      34.051 -21.350 -19.424  0.00  0.00    +0.003 C 
ATOM     14  C   UNL     1      36.395 -20.959 -19.308  0.00  0.00    +0.099 C 
ATOM     15  C   UNL     1      35.302 -21.730 -18.948  0.00  0.00    +0.021 C 
ENDBRANCH   7  11
ENDBRANCH   2   3
ENDBRANCH   1   2
BRANCH   1  16
ATOM     16  C   UNL     1      34.188 -12.585 -22.862  0.00  0.00    +0.020 C 
BRANCH  16  17
ATOM     17  C   UNL     1      33.465 -11.540 -23.704  0.00  0.00    +0.099 C 
BRANCH  17  21
ATOM     18 CL   UNL     1      31.036 -11.802 -22.074  0.00  0.00    -0.062 Cl
ATOM     19  O   UNL     1      32.708  -8.544 -20.573  0.00  0.00    -0.448 OA
ATOM     20  O   UNL     1      34.859  -9.164 -23.943  0.00  0.00    -0.269 OA
ATOM     21  N   UNL     1      33.115 -10.340 -22.931  0.00  0.00    -0.244 N 
ATOM     22  C   UNL     1      33.848  -9.172 -23.236  0.00  0.00    +0.256 C 
ATOM     23  C   UNL     1      32.112 -10.437 -21.968  0.00  0.00    +0.151 C 
ATOM     24  C   UNL     1      33.365  -7.841 -22.797  0.00  0.00    +0.088 C 
ATOM     25  C   UNL     1      32.849  -7.581 -21.531  0.00  0.00    +0.150 C 
ATOM     26  C   UNL     1      31.936  -9.615 -20.926  0.00  0.00    +0.206 C 
ATOM     27  C   UNL     1      33.502  -6.776 -23.703  0.00  0.00    +0.008 C 
ATOM     28  C   UNL     1      32.495  -6.279 -21.159  0.00  0.00    +0.038 C 
ATOM     29  C   UNL     1      33.130  -5.480 -23.341  0.00  0.00    +0.000 C 
ATOM     30  C   UNL     1      32.630  -5.231 -22.067  0.00  0.00    +0.003 C 
ENDBRANCH  17  21
ENDBRANCH  16  17
ENDBRANCH   1  16
TORSDOF 6
ENDMDL
MODEL 5
REMARK VINA RESULT:     -10.5      7.973     14.510
REMARK  Name = 9801640
REMARK  6 active torsions:
REMARK  status: ('A' for Active; 'I' for Inactive)
REMARK    1  A    between atoms: C_1  and  C_2
REMARK    2  A    between atoms: C_1  and  C_16
REMARK    3  A    between atoms: C_2  and  N_3
REMARK    4  A    between atoms: C_7  and  C_11
REMARK    5  A    between atoms: C_16  and  C_17
REMARK    6  A    between atoms: C_17  and  N_21
REMARK                            x       y       z     vdW  Elec       q    Type
REMARK                         _______ _______ _______ _____ _____    ______ ____
ROOT
ATOM      1  C   UNL     1      34.127 -22.925 -15.748  0.00  0.00    -0.021 C 
ENDROOT
BRANCH   1   2
ATOM      2  C   UNL     1      33.430 -23.503 -16.979  0.00  0.00    -0.077 C 
BRANCH   2   3
ATOM      3  N   UNL     1      33.743 -22.704 -18.161  0.00  0.00    +0.390 N 
ATOM      4  C   UNL     1      32.764 -21.628 -18.348  0.00  0.00    -0.072 C 
ATOM      5  C   UNL     1      35.106 -22.157 -18.075  0.00  0.00    -0.051 C 
ATOM      6  C   UNL     1      33.022 -20.913 -19.683  0.00  0.00    +0.005 C 
ATOM      7  C   UNL     1      34.475 -20.547 -19.885  0.00  0.00    -0.013 C 
ATOM      8  C   UNL     1      35.424 -21.131 -19.129  0.00  0.00    -0.052 C 
ATOM      9  H   UNL     1      33.695 -23.316 -18.976  0.00  0.00    -0.079 HD
BRANCH   7  11
ATOM     10  N   UNL     1      35.759 -18.639 -20.600  0.00  0.00    -0.244 NA
ATOM     11  C   UNL     1      34.810 -19.546 -20.927  0.00  0.00    +0.077 C 
ATOM     12  C   UNL     1      34.160 -19.576 -22.153  0.00  0.00    +0.019 C 
ATOM     13  C   UNL     1      34.507 -18.617 -23.099  0.00  0.00    +0.003 C 
ATOM     14  C   UNL     1      36.069 -17.722 -21.544  0.00  0.00    +0.099 C 
ATOM     15  C   UNL     1      35.478 -17.669 -22.796  0.00  0.00    +0.021 C 
ENDBRANCH   7  11
ENDBRANCH   2   3
ENDBRANCH   1   2
BRANCH   1  16
ATOM     16  C   UNL     1      34.678 -24.039 -14.853  0.00  0.00    +0.020 C 
BRANCH  16  17
ATOM     17  C   UNL     1      36.196 -24.157 -14.929  0.00  0.00    +0.099 C 
BRANCH  17  21
ATOM     18 CL   UNL     1      37.518 -23.302 -12.449  0.00  0.00    -0.062 Cl
ATOM     19  O   UNL     1      36.964 -27.169 -11.815  0.00  0.00    -0.448 OA
ATOM     20  O   UNL     1      36.128 -26.795 -15.756  0.00  0.00    -0.269 OA
ATOM     21  N   UNL     1      36.716 -25.256 -14.102  0.00  0.00    -0.244 N 
ATOM     22  C   UNL     1      36.710 -26.536 -14.700  0.00  0.00    +0.256 C 
ATOM     23  C   UNL     1      37.162 -24.967 -12.814  0.00  0.00    +0.151 C 
ATOM     24  C   UNL     1      37.516 -27.640 -14.127  0.00  0.00    +0.088 C 
ATOM     25  C   UNL     1      37.599 -27.916 -12.766  0.00  0.00    +0.150 C 
ATOM     26  C   UNL     1      37.280 -25.839 -11.805  0.00  0.00    +0.206 C 
ATOM     27  C   UNL     1      38.179 -28.488 -15.031  0.00  0.00    +0.008 C 
ATOM     28  C   UNL     1      38.310 -29.031 -12.306  0.00  0.00    +0.038 C 
ATOM     29  C   UNL     1      38.907 -29.588 -14.573  0.00  0.00    +0.000 C 
ATOM     30  C   UNL     1      38.969 -29.861 -13.210  0.00  0.00    +0.003 C 
ENDBRANCH  17  21
ENDBRANCH  16  17
ENDBRANCH   1  16
TORSDOF 6
ENDMDL
MODEL 6
REMARK VINA RESULT:     -10.5      3.268      5.425
REMARK  Name = 9801640
REMARK  6 active torsions:
REMARK  status: ('A' for Active; 'I' for Inactive)
REMARK    1  A    between atoms: C_1  and  C_2
REMARK    2  A    between atoms: C_1  and  C_16
REMARK    3  A    between atoms: C_2  and  N_3
REMARK    4  A    between atoms: C_7  and  C_11
REMARK    5  A    between atoms: C_16  and  C_17
REMARK    6  A    between atoms: C_17  and  N_21
REMARK                            x       y       z     vdW  Elec       q    Type
REMARK                         _______ _______ _______ _____ _____    ______ ____
ROOT
ATOM      1  C   UNL     1      34.614 -10.228 -24.768  0.00  0.00    -0.021 C 
ENDROOT
BRANCH   1   2
ATOM      2  C   UNL     1      33.727 -11.057 -23.839  0.00  0.00    -0.077 C 
BRANCH   2   3
ATOM      3  N   UNL     1      34.169 -12.449 -23.826  0.00  0.00    +0.390 N 
ATOM      4  C   UNL     1      33.959 -13.059 -22.509  0.00  0.00    -0.072 C 
ATOM      5  C   UNL     1      33.483 -13.224 -24.872  0.00  0.00    -0.051 C 
ATOM      6  C   UNL     1      34.582 -14.462 -22.478  0.00  0.00    +0.005 C 
ATOM      7  C   UNL     1      34.206 -15.302 -23.678  0.00  0.00    -0.013 C 
ATOM      8  C   UNL     1      33.697 -14.710 -24.775  0.00  0.00    -0.052 C 
ATOM      9  H   UNL     1      35.170 -12.463 -24.021  0.00  0.00    -0.079 HD
BRANCH   7  11
ATOM     10  N   UNL     1      33.752 -17.513 -24.515  0.00  0.00    -0.244 NA
ATOM     11  C   UNL     1      34.421 -16.768 -23.606  0.00  0.00    +0.077 C 
ATOM     12  C   UNL     1      35.267 -17.299 -22.644  0.00  0.00    +0.019 C 
ATOM     13  C   UNL     1      35.436 -18.680 -22.614  0.00  0.00    +0.003 C 
ATOM     14  C   UNL     1      33.940 -18.851 -24.455  0.00  0.00    +0.099 C 
ATOM     15  C   UNL     1      34.763 -19.477 -23.534  0.00  0.00    +0.021 C 
ENDBRANCH   7  11
ENDBRANCH   2   3
ENDBRANCH   1   2
BRANCH   1  16
ATOM     16  C   UNL     1      34.598  -8.749 -24.370  0.00  0.00    +0.020 C 
BRANCH  16  17
ATOM     17  C   UNL     1      34.317  -8.543 -22.886  0.00  0.00    +0.099 C 
BRANCH  17  21
ATOM     18 CL   UNL     1      31.729  -9.102 -21.615  0.00  0.00    -0.062 Cl
ATOM     19  O   UNL     1      32.080  -5.193 -21.117  0.00  0.00    -0.448 OA
ATOM     20  O   UNL     1      35.052  -6.016 -23.736  0.00  0.00    -0.269 OA
ATOM     21  N   UNL     1      33.491  -7.354 -22.630  0.00  0.00    -0.244 N 
ATOM     22  C   UNL     1      33.941  -6.150 -23.216  0.00  0.00    +0.256 C 
ATOM     23  C   UNL     1      32.351  -7.492 -21.841  0.00  0.00    +0.151 C 
ATOM     24  C   UNL     1      33.036  -4.982 -23.334  0.00  0.00    +0.088 C 
ATOM     25  C   UNL     1      32.185  -4.554 -22.320  0.00  0.00    +0.150 C 
ATOM     26  C   UNL     1      31.724  -6.510 -21.181  0.00  0.00    +0.206 C 
ATOM     27  C   UNL     1      33.098  -4.238 -24.525  0.00  0.00    +0.008 C 
ATOM     28  C   UNL     1      31.424  -3.389 -22.473  0.00  0.00    +0.038 C 
ATOM     29  C   UNL     1      32.322  -3.089 -24.687  0.00  0.00    +0.000 C 
ATOM     30  C   UNL     1      31.488  -2.662 -23.659  0.00  0.00    +0.003 C 
ENDBRANCH  17  21
ENDBRANCH  16  17
ENDBRANCH   1  16
TORSDOF 6
ENDMDL
MODEL 7
REMARK VINA RESULT:     -10.4      6.688     12.034
REMARK  Name = 9801640
REMARK  6 active torsions:
REMARK  status: ('A' for Active; 'I' for Inactive)
REMARK    1  A    between atoms: C_1  and  C_2
REMARK    2  A    between atoms: C_1  and  C_16
REMARK    3  A    between atoms: C_2  and  N_3
REMARK    4  A    between atoms: C_7  and  C_11
REMARK    5  A    between atoms: C_16  and  C_17
REMARK    6  A    between atoms: C_17  and  N_21
REMARK                            x       y       z     vdW  Elec       q    Type
REMARK                         _______ _______ _______ _____ _____    ______ ____
ROOT
ATOM      1  C   UNL     1      37.102 -21.255 -16.623  0.00  0.00    -0.021 C 
ENDROOT
BRANCH   1   2
ATOM      2  C   UNL     1      36.389 -21.805 -17.858  0.00  0.00    -0.077 C 
BRANCH   2   3
ATOM      3  N   UNL     1      36.029 -20.716 -18.762  0.00  0.00    +0.390 N 
ATOM      4  C   UNL     1      37.102 -20.451 -19.726  0.00  0.00    -0.072 C 
ATOM      5  C   UNL     1      34.767 -21.013 -19.459  0.00  0.00    -0.051 C 
ATOM      6  C   UNL     1      36.766 -19.199 -20.550  0.00  0.00    +0.005 C 
ATOM      7  C   UNL     1      35.356 -19.213 -21.097  0.00  0.00    -0.013 C 
ATOM      8  C   UNL     1      34.447 -20.061 -20.580  0.00  0.00    -0.052 C 
ATOM      9  H   UNL     1      35.896 -19.874 -18.202  0.00  0.00    -0.079 HD
BRANCH   7  11
ATOM     10  N   UNL     1      35.328 -16.975 -21.984  0.00  0.00    -0.244 NA
ATOM     11  C   UNL     1      35.018 -18.275 -22.195  0.00  0.00    +0.077 C 
ATOM     12  C   UNL     1      34.418 -18.748 -23.353  0.00  0.00    +0.019 C 
ATOM     13  C   UNL     1      34.118 -17.831 -24.354  0.00  0.00    +0.003 C 
ATOM     14  C   UNL     1      35.021 -16.113 -22.980  0.00  0.00    +0.099 C 
ATOM     15  C   UNL     1      34.423 -16.487 -24.172  0.00  0.00    +0.021 C 
ENDBRANCH   7  11
ENDBRANCH   2   3
ENDBRANCH   1   2
BRANCH   1  16
ATOM     16  C   UNL     1      36.704 -22.032 -15.364  0.00  0.00    +0.020 C 
BRANCH  16  17
ATOM     17  C   UNL     1      36.024 -23.359 -15.684  0.00  0.00    +0.099 C 
BRANCH  17  21
ATOM     18 CL   UNL     1      36.619 -25.005 -13.325  0.00  0.00    -0.062 Cl
ATOM     19  O   UNL     1      33.072 -23.497 -12.425  0.00  0.00    -0.448 OA
ATOM     20  O   UNL     1      33.461 -22.553 -16.340  0.00  0.00    -0.269 OA
ATOM     21  N   UNL     1      34.869 -23.622 -14.814  0.00  0.00    -0.244 N 
ATOM     22  C   UNL     1      33.608 -23.245 -15.329  0.00  0.00    +0.256 C 
ATOM     23  C   UNL     1      35.092 -24.205 -13.568  0.00  0.00    +0.151 C 
ATOM     24  C   UNL     1      32.359 -23.766 -14.725  0.00  0.00    +0.088 C 
ATOM     25  C   UNL     1      32.138 -23.856 -13.355  0.00  0.00    +0.150 C 
ATOM     26  C   UNL     1      34.269 -24.150 -12.513  0.00  0.00    +0.206 C 
ATOM     27  C   UNL     1      31.323 -24.129 -15.603  0.00  0.00    +0.008 C 
ATOM     28  C   UNL     1      30.899 -24.276 -12.858  0.00  0.00    +0.038 C 
ATOM     29  C   UNL     1      30.093 -24.569 -15.109  0.00  0.00    +0.000 C 
ATOM     30  C   UNL     1      29.880 -24.638 -13.736  0.00  0.00    +0.003 C 
ENDBRANCH  17  21
ENDBRANCH  16  17
ENDBRANCH   1  16
TORSDOF 6
ENDMDL
MODEL 8
REMARK VINA RESULT:     -10.3      7.439     13.399
REMARK  Name = 9801640
REMARK  6 active torsions:
REMARK  status: ('A' for Active; 'I' for Inactive)
REMARK    1  A    between atoms: C_1  and  C_2
REMARK    2  A    between atoms: C_1  and  C_16
REMARK    3  A    between atoms: C_2  and  N_3
REMARK    4  A    between atoms: C_7  and  C_11
REMARK    5  A    between atoms: C_16  and  C_17
REMARK    6  A    between atoms: C_17  and  N_21
REMARK                            x       y       z     vdW  Elec       q    Type
REMARK                         _______ _______ _______ _____ _____    ______ ____
ROOT
ATOM      1  C   UNL     1      33.376 -22.844 -15.761  0.00  0.00    -0.021 C 
ENDROOT
BRANCH   1   2
ATOM      2  C   UNL     1      33.435 -23.205 -17.245  0.00  0.00    -0.077 C 
BRANCH   2   3
ATOM      3  N   UNL     1      33.817 -22.037 -18.036  0.00  0.00    +0.390 N 
ATOM      4  C   UNL     1      34.943 -22.344 -18.924  0.00  0.00    -0.072 C 
ATOM      5  C   UNL     1      32.670 -21.532 -18.807  0.00  0.00    -0.051 C 
ATOM      6  C   UNL     1      35.427 -21.061 -19.615  0.00  0.00    +0.005 C 
ATOM      7  C   UNL     1      34.299 -20.251 -20.212  0.00  0.00    -0.013 C 
ATOM      8  C   UNL     1      33.031 -20.485 -19.827  0.00  0.00    -0.052 C 
ATOM      9  H   UNL     1      34.117 -21.306 -17.391  0.00  0.00    -0.079 HD
BRANCH   7  11
ATOM     10  N   UNL     1      35.351 -18.154 -20.754  0.00  0.00    -0.244 NA
ATOM     11  C   UNL     1      34.635 -19.207 -21.211  0.00  0.00    +0.077 C 
ATOM     12  C   UNL     1      34.216 -19.344 -22.527  0.00  0.00    +0.019 C 
ATOM     13  C   UNL     1      34.554 -18.339 -23.427  0.00  0.00    +0.003 C 
ATOM     14  C   UNL     1      35.661 -17.197 -21.658  0.00  0.00    +0.099 C 
ATOM     15  C   UNL     1      35.290 -17.242 -22.992  0.00  0.00    +0.021 C 
ENDBRANCH   7  11
ENDBRANCH   2   3
ENDBRANCH   1   2
BRANCH   1  16
ATOM     16  C   UNL     1      34.201 -23.826 -14.922  0.00  0.00    +0.020 C 
BRANCH  16  17
ATOM     17  C   UNL     1      35.333 -23.143 -14.164  0.00  0.00    +0.099 C 
BRANCH  17  21
ATOM     18 CL   UNL     1      37.012 -22.212 -16.387  0.00  0.00    -0.062 Cl
ATOM     19  O   UNL     1      39.561 -24.357 -14.251  0.00  0.00    -0.448 OA
ATOM     20  O   UNL     1      35.998 -25.323 -12.598  0.00  0.00    -0.269 OA
ATOM     21  N   UNL     1      36.612 -23.854 -14.305  0.00  0.00    -0.244 N 
ATOM     22  C   UNL     1      36.767 -25.012 -13.510  0.00  0.00    +0.256 C 
ATOM     23  C   UNL     1      37.564 -23.345 -15.186  0.00  0.00    +0.151 C 
ATOM     24  C   UNL     1      37.832 -25.997 -13.811  0.00  0.00    +0.088 C 
ATOM     25  C   UNL     1      39.139 -25.651 -14.141  0.00  0.00    +0.150 C 
ATOM     26  C   UNL     1      38.880 -23.591 -15.156  0.00  0.00    +0.206 C 
ATOM     27  C   UNL     1      37.503 -27.358 -13.690  0.00  0.00    +0.008 C 
ATOM     28  C   UNL     1      40.113 -26.639 -14.326  0.00  0.00    +0.038 C 
ATOM     29  C   UNL     1      38.469 -28.345 -13.895  0.00  0.00    +0.000 C 
ATOM     30  C   UNL     1      39.775 -27.985 -14.209  0.00  0.00    +0.003 C 
ENDBRANCH  17  21
ENDBRANCH  16  17
ENDBRANCH   1  16
TORSDOF 6
ENDMDL
MODEL 9
REMARK VINA RESULT:     -10.1      6.679     12.221
REMARK  Name = 9801640
REMARK  6 active torsions:
REMARK  status: ('A' for Active; 'I' for Inactive)
REMARK    1  A    between atoms: C_1  and  C_2
REMARK    2  A    between atoms: C_1  and  C_16
REMARK    3  A    between atoms: C_2  and  N_3
REMARK    4  A    between atoms: C_7  and  C_11
REMARK    5  A    between atoms: C_16  and  C_17
REMARK    6  A    between atoms: C_17  and  N_21
REMARK                            x       y       z     vdW  Elec       q    Type
REMARK                         _______ _______ _______ _____ _____    ______ ____
ROOT
ATOM      1  C   UNL     1      34.436 -22.648 -18.359  0.00  0.00    -0.021 C 
ENDROOT
BRANCH   1   2
ATOM      2  C   UNL     1      35.679 -21.760 -18.324  0.00  0.00    -0.077 C 
BRANCH   2   3
ATOM      3  N   UNL     1      35.480 -20.576 -19.156  0.00  0.00    +0.390 N 
ATOM      4  C   UNL     1      36.635 -20.339 -20.027  0.00  0.00    -0.072 C 
ATOM      5  C   UNL     1      34.247 -20.698 -19.950  0.00  0.00    -0.051 C 
ATOM      6  C   UNL     1      36.469 -19.001 -20.763  0.00  0.00    +0.005 C 
ATOM      7  C   UNL     1      35.104 -18.841 -21.395  0.00  0.00    -0.013 C 
ATOM      8  C   UNL     1      34.090 -19.637 -21.006  0.00  0.00    -0.052 C 
ATOM      9  H   UNL     1      35.384 -19.771 -18.537  0.00  0.00    -0.079 HD
BRANCH   7  11
ATOM     10  N   UNL     1      35.233 -16.530 -22.057  0.00  0.00    -0.244 NA
ATOM     11  C   UNL     1      34.926 -17.794 -22.429  0.00  0.00    +0.077 C 
ATOM     12  C   UNL     1      34.468 -18.137 -23.694  0.00  0.00    +0.019 C 
ATOM     13  C   UNL     1      34.317 -17.120 -24.631  0.00  0.00    +0.003 C 
ATOM     14  C   UNL     1      35.073 -15.569 -22.994  0.00  0.00    +0.099 C 
ATOM     15  C   UNL     1      34.623 -15.809 -24.282  0.00  0.00    +0.021 C 
ENDBRANCH   7  11
ENDBRANCH   2   3
ENDBRANCH   1   2
BRANCH   1  16
ATOM     16  C   UNL     1      33.582 -22.449 -17.103  0.00  0.00    +0.020 C 
BRANCH  16  17
ATOM     17  C   UNL     1      33.240 -23.765 -16.411  0.00  0.00    +0.099 C 
BRANCH  17  21
ATOM     18 CL   UNL     1      31.170 -22.759 -14.587  0.00  0.00    -0.062 Cl
ATOM     19  O   UNL     1      33.676 -24.553 -12.105  0.00  0.00    -0.448 OA
ATOM     20  O   UNL     1      35.779 -24.455 -15.560  0.00  0.00    -0.269 OA
ATOM     21  N   UNL     1      33.621 -23.768 -14.991  0.00  0.00    -0.244 N 
ATOM     22  C   UNL     1      34.980 -24.039 -14.716  0.00  0.00    +0.256 C 
ATOM     23  C   UNL     1      32.638 -23.516 -14.037  0.00  0.00    +0.151 C 
ATOM     24  C   UNL     1      35.559 -23.727 -13.388  0.00  0.00    +0.088 C 
ATOM     25  C   UNL     1      34.921 -23.997 -12.181  0.00  0.00    +0.150 C 
ATOM     26  C   UNL     1      32.685 -23.863 -12.745  0.00  0.00    +0.206 C 
ATOM     27  C   UNL     1      36.855 -23.184 -13.362  0.00  0.00    +0.008 C 
ATOM     28  C   UNL     1      35.568 -23.756 -10.964  0.00  0.00    +0.038 C 
ATOM     29  C   UNL     1      37.493 -22.922 -12.148  0.00  0.00    +0.000 C 
ATOM     30  C   UNL     1      36.850 -23.212 -10.949  0.00  0.00    +0.003 C 
ENDBRANCH  17  21
ENDBRANCH  16  17
ENDBRANCH   1  16
TORSDOF 6
ENDMDL
