MODEL 1
REMARK VINA RESULT:     -12.3      0.000      0.000
REMARK  Name = 25184541
REMARK  4 active torsions:
REMARK  status: ('A' for Active; 'I' for Inactive)
REMARK    1  A    between atoms: C_4  and  N_19
REMARK    2  A    between atoms: C_5  and  N_11
REMARK    3  A    between atoms: C_20  and  C_23
REMARK    4  A    between atoms: C_23  and  N_25
REMARK                            x       y       z     vdW  Elec       q    Type
REMARK                         _______ _______ _______ _____ _____    ______ ____
ROOT
ATOM      1  F   UNL     1      32.192 -21.501 -18.656  0.00  0.00    -0.200 F 
ATOM      2  F   UNL     1      32.335 -19.806 -20.773  0.00  0.00    -0.200 F 
ATOM      3  F   UNL     1      37.078 -19.961 -20.576  0.00  0.00    -0.203 F 
ATOM      4  C   UNL     1      34.561 -21.601 -18.529  0.00  0.00    +0.089 C 
ATOM      5  C   UNL     1      34.708 -19.860 -20.703  0.00  0.00    +0.110 C 
ATOM      6  C   UNL     1      33.392 -21.126 -19.122  0.00  0.00    +0.182 C 
ATOM      7  C   UNL     1      35.804 -21.206 -19.023  0.00  0.00    +0.048 C 
ATOM      8  C   UNL     1      33.465 -20.256 -20.209  0.00  0.00    +0.184 C 
ATOM      9  C   UNL     1      35.877 -20.335 -20.109  0.00  0.00    +0.157 C 
ENDROOT
BRANCH   5  11
ATOM     10  O   UNL     1      34.946 -16.364 -24.934  0.00  0.00    -0.291 OA
ATOM     11  N   UNL     1      34.783 -18.971 -21.807  0.00  0.00    -0.282 N 
ATOM     12  C   UNL     1      35.566 -17.736 -21.633  0.00  0.00    +0.104 C 
ATOM     13  C   UNL     1      35.045 -16.626 -22.545  0.00  0.00    +0.091 C 
ATOM     14  C   UNL     1      34.316 -19.291 -23.074  0.00  0.00    +0.068 C 
ATOM     15  C   UNL     1      34.816 -17.107 -23.963  0.00  0.00    +0.176 C 
ATOM     16  C   UNL     1      34.331 -18.493 -24.147  0.00  0.00    +0.054 C 
ENDBRANCH   5  11
BRANCH   4  19
ATOM     17  O   UNL     1      34.970 -23.604 -15.516  0.00  0.00    -0.434 OA
ATOM     18  O   UNL     1      36.475 -22.055 -16.208  0.00  0.00    -0.226 OA
ATOM     19  N   UNL     1      34.489 -22.491 -17.419  0.00  0.00    -0.219 N 
ATOM     20  C   UNL     1      33.621 -23.956 -15.852  0.00  0.00    +0.210 C 
ATOM     21  C   UNL     1      33.453 -23.479 -17.279  0.00  0.00    +0.147 C 
ATOM     22  C   UNL     1      35.411 -22.632 -16.385  0.00  0.00    +0.409 C 
BRANCH  20  23
ATOM     23  C   UNL     1      32.676 -23.268 -14.875  0.00  0.00    +0.134 C 
BRANCH  23  25
ATOM     24  O   UNL     1      28.881 -22.517 -16.791  0.00  0.00    -0.349 OA
ATOM     25  N   UNL     1      31.418 -23.969 -14.832  0.00  0.00    -0.312 N 
ATOM     26  N   UNL     1      30.190 -22.502 -16.326  0.00  0.00    -0.062 NA
ATOM     27  C   UNL     1      30.287 -23.570 -15.528  0.00  0.00    +0.171 C 
ATOM     28  C   UNL     1      29.083 -24.290 -15.453  0.00  0.00    +0.081 C 
ATOM     29  C   UNL     1      28.231 -23.588 -16.264  0.00  0.00    +0.215 C 
ATOM     30  H   UNL     1      31.358 -24.779 -14.275  0.00  0.00    +0.148 HD
ENDBRANCH  23  25
ENDBRANCH  20  23
ENDBRANCH   4  19
TORSDOF 4
ENDMDL
MODEL 2
REMARK VINA RESULT:     -12.1      0.518      1.767
REMARK  Name = 25184541
REMARK  4 active torsions:
REMARK  status: ('A' for Active; 'I' for Inactive)
REMARK    1  A    between atoms: C_4  and  N_19
REMARK    2  A    between atoms: C_5  and  N_11
REMARK    3  A    between atoms: C_20  and  C_23
REMARK    4  A    between atoms: C_23  and  N_25
REMARK                            x       y       z     vdW  Elec       q    Type
REMARK                         _______ _______ _______ _____ _____    ______ ____
ROOT
ATOM      1  F   UNL     1      36.858 -21.686 -18.475  0.00  0.00    -0.200 F 
ATOM      2  F   UNL     1      37.018 -19.990 -20.590  0.00  0.00    -0.200 F 
ATOM      3  F   UNL     1      32.276 -19.801 -20.797  0.00  0.00    -0.203 F 
ATOM      4  C   UNL     1      34.485 -21.614 -18.550  0.00  0.00    +0.089 C 
ATOM      5  C   UNL     1      34.650 -19.874 -20.723  0.00  0.00    +0.110 C 
ATOM      6  C   UNL     1      35.732 -21.228 -19.041  0.00  0.00    +0.182 C 
ATOM      7  C   UNL     1      33.320 -21.130 -19.145  0.00  0.00    +0.048 C 
ATOM      8  C   UNL     1      35.814 -20.357 -20.128  0.00  0.00    +0.184 C 
ATOM      9  C   UNL     1      33.403 -20.260 -20.231  0.00  0.00    +0.157 C 
ENDROOT
BRANCH   5  11
ATOM     10  O   UNL     1      34.920 -16.395 -24.966  0.00  0.00    -0.291 OA
ATOM     11  N   UNL     1      34.733 -18.990 -21.831  0.00  0.00    -0.282 N 
ATOM     12  C   UNL     1      35.549 -17.774 -21.670  0.00  0.00    +0.104 C 
ATOM     13  C   UNL     1      35.043 -16.653 -22.578  0.00  0.00    +0.091 C 
ATOM     14  C   UNL     1      34.242 -19.300 -23.090  0.00  0.00    +0.068 C 
ATOM     15  C   UNL     1      34.784 -17.132 -23.992  0.00  0.00    +0.176 C 
ATOM     16  C   UNL     1      34.262 -18.506 -24.165  0.00  0.00    +0.054 C 
ENDBRANCH   5  11
BRANCH   4  19
ATOM     17  O   UNL     1      34.849 -23.609 -15.526  0.00  0.00    -0.434 OA
ATOM     18  O   UNL     1      36.358 -22.053 -16.193  0.00  0.00    -0.226 OA
ATOM     19  N   UNL     1      34.398 -22.502 -17.440  0.00  0.00    -0.219 N 
ATOM     20  C   UNL     1      33.508 -23.969 -15.886  0.00  0.00    +0.210 C 
ATOM     21  C   UNL     1      33.364 -23.496 -17.317  0.00  0.00    +0.147 C 
ATOM     22  C   UNL     1      35.300 -22.636 -16.388  0.00  0.00    +0.409 C 
BRANCH  20  23
ATOM     23  C   UNL     1      32.541 -23.285 -14.928  0.00  0.00    +0.134 C 
BRANCH  23  25
ATOM     24  O   UNL     1      28.742 -22.504 -16.823  0.00  0.00    -0.349 OA
ATOM     25  N   UNL     1      31.288 -23.995 -14.906  0.00  0.00    -0.312 N 
ATOM     26  N   UNL     1      30.051 -22.493 -16.357  0.00  0.00    -0.062 NA
ATOM     27  C   UNL     1      30.154 -23.583 -15.591  0.00  0.00    +0.171 C 
ATOM     28  C   UNL     1      28.955 -24.312 -15.536  0.00  0.00    +0.081 C 
ATOM     29  C   UNL     1      28.099 -23.592 -16.327  0.00  0.00    +0.215 C 
ATOM     30  H   UNL     1      31.233 -24.821 -14.372  0.00  0.00    +0.148 HD
ENDBRANCH  23  25
ENDBRANCH  20  23
ENDBRANCH   4  19
TORSDOF 4
ENDMDL
MODEL 3
REMARK VINA RESULT:     -11.3      9.414     14.476
REMARK  Name = 25184541
REMARK  4 active torsions:
REMARK  status: ('A' for Active; 'I' for Inactive)
REMARK    1  A    between atoms: C_4  and  N_19
REMARK    2  A    between atoms: C_5  and  N_11
REMARK    3  A    between atoms: C_20  and  C_23
REMARK    4  A    between atoms: C_23  and  N_25
REMARK                            x       y       z     vdW  Elec       q    Type
REMARK                         _______ _______ _______ _____ _____    ______ ____
ROOT
ATOM      1  F   UNL     1      30.866 -10.082 -20.497  0.00  0.00    -0.200 F 
ATOM      2  F   UNL     1      31.670 -12.511 -21.408  0.00  0.00    -0.200 F 
ATOM      3  F   UNL     1      34.743 -10.391 -24.345  0.00  0.00    -0.203 F 
ATOM      4  C   UNL     1      32.391  -8.989 -21.953  0.00  0.00    +0.089 C 
ATOM      5  C   UNL     1      33.216 -11.484 -22.889  0.00  0.00    +0.110 C 
ATOM      6  C   UNL     1      31.816 -10.152 -21.441  0.00  0.00    +0.182 C 
ATOM      7  C   UNL     1      33.380  -9.074 -22.933  0.00  0.00    +0.048 C 
ATOM      8  C   UNL     1      32.229 -11.399 -21.909  0.00  0.00    +0.184 C 
ATOM      9  C   UNL     1      33.792 -10.321 -23.401  0.00  0.00    +0.157 C 
ENDROOT
BRANCH   5  11
ATOM     10  O   UNL     1      34.748 -16.417 -24.759  0.00  0.00    -0.291 OA
ATOM     11  N   UNL     1      33.634 -12.753 -23.369  0.00  0.00    -0.282 N 
ATOM     12  C   UNL     1      33.515 -13.006 -24.815  0.00  0.00    +0.104 C 
ATOM     13  C   UNL     1      33.339 -14.498 -25.096  0.00  0.00    +0.091 C 
ATOM     14  C   UNL     1      34.304 -13.680 -22.584  0.00  0.00    +0.068 C 
ATOM     15  C   UNL     1      34.325 -15.349 -24.323  0.00  0.00    +0.176 C 
ATOM     16  C   UNL     1      34.700 -14.899 -22.963  0.00  0.00    +0.054 C 
ENDBRANCH   5  11
BRANCH   4  19
ATOM     17  O   UNL     1      31.628  -5.913 -20.161  0.00  0.00    -0.434 OA
ATOM     18  O   UNL     1      32.785  -7.640 -19.255  0.00  0.00    -0.226 OA
ATOM     19  N   UNL     1      31.973  -7.714 -21.476  0.00  0.00    -0.219 N 
ATOM     20  C   UNL     1      31.204  -5.532 -21.477  0.00  0.00    +0.210 C 
ATOM     21  C   UNL     1      31.126  -6.837 -22.239  0.00  0.00    +0.147 C 
ATOM     22  C   UNL     1      32.204  -7.162 -20.219  0.00  0.00    +0.409 C 
BRANCH  20  23
ATOM     23  C   UNL     1      32.220  -4.557 -22.058  0.00  0.00    +0.134 C 
BRANCH  23  25
ATOM     24  O   UNL     1      34.546  -5.110 -25.653  0.00  0.00    -0.349 OA
ATOM     25  N   UNL     1      31.924  -4.310 -23.446  0.00  0.00    -0.312 N 
ATOM     26  N   UNL     1      34.052  -5.044 -24.357  0.00  0.00    -0.062 NA
ATOM     27  C   UNL     1      32.815  -4.554 -24.482  0.00  0.00    +0.171 C 
ATOM     28  C   UNL     1      32.477  -4.295 -25.820  0.00  0.00    +0.081 C 
ATOM     29  C   UNL     1      33.598  -4.661 -26.517  0.00  0.00    +0.215 C 
ATOM     30  H   UNL     1      31.038  -3.945 -23.673  0.00  0.00    +0.148 HD
ENDBRANCH  23  25
ENDBRANCH  20  23
ENDBRANCH   4  19
TORSDOF 4
ENDMDL
MODEL 4
REMARK VINA RESULT:     -11.1      9.787     14.535
REMARK  Name = 25184541
REMARK  4 active torsions:
REMARK  status: ('A' for Active; 'I' for Inactive)
REMARK    1  A    between atoms: C_4  and  N_19
REMARK    2  A    between atoms: C_5  and  N_11
REMARK    3  A    between atoms: C_20  and  C_23
REMARK    4  A    between atoms: C_23  and  N_25
REMARK                            x       y       z     vdW  Elec       q    Type
REMARK                         _______ _______ _______ _____ _____    ______ ____
ROOT
ATOM      1  F   UNL     1      30.893 -10.342 -20.514  0.00  0.00    -0.200 F 
ATOM      2  F   UNL     1      31.594 -12.829 -21.351  0.00  0.00    -0.200 F 
ATOM      3  F   UNL     1      34.718 -10.927 -24.382  0.00  0.00    -0.203 F 
ATOM      4  C   UNL     1      32.445  -9.358 -22.018  0.00  0.00    +0.089 C 
ATOM      5  C   UNL     1      33.165 -11.912 -22.878  0.00  0.00    +0.110 C 
ATOM      6  C   UNL     1      31.830 -10.480 -21.463  0.00  0.00    +0.182 C 
ATOM      7  C   UNL     1      33.421  -9.513 -23.003  0.00  0.00    +0.048 C 
ATOM      8  C   UNL     1      32.191 -11.757 -21.893  0.00  0.00    +0.184 C 
ATOM      9  C   UNL     1      33.780 -10.790 -23.433  0.00  0.00    +0.157 C 
ENDROOT
BRANCH   5  11
ATOM     10  O   UNL     1      34.661 -16.922 -24.564  0.00  0.00    -0.291 OA
ATOM     11  N   UNL     1      33.529 -13.211 -23.318  0.00  0.00    -0.282 N 
ATOM     12  C   UNL     1      33.961 -14.179 -22.295  0.00  0.00    +0.104 C 
ATOM     13  C   UNL     1      34.915 -15.214 -22.890  0.00  0.00    +0.091 C 
ATOM     14  C   UNL     1      33.329 -13.659 -24.616  0.00  0.00    +0.068 C 
ATOM     15  C   UNL     1      34.410 -15.774 -24.204  0.00  0.00    +0.176 C 
ATOM     16  C   UNL     1      33.673 -14.856 -25.102  0.00  0.00    +0.054 C 
ENDBRANCH   5  11
BRANCH   4  19
ATOM     17  O   UNL     1      31.756  -6.221 -20.302  0.00  0.00    -0.434 OA
ATOM     18  O   UNL     1      32.705  -8.020 -19.298  0.00  0.00    -0.226 OA
ATOM     19  N   UNL     1      32.081  -8.053 -21.580  0.00  0.00    -0.219 N 
ATOM     20  C   UNL     1      31.473  -5.821 -21.650  0.00  0.00    +0.210 C 
ATOM     21  C   UNL     1      31.367  -7.123 -22.414  0.00  0.00    +0.147 C 
ATOM     22  C   UNL     1      32.243  -7.509 -20.309  0.00  0.00    +0.409 C 
BRANCH  20  23
ATOM     23  C   UNL     1      32.603  -4.926 -22.144  0.00  0.00    +0.134 C 
BRANCH  23  25
ATOM     24  O   UNL     1      30.130  -1.786 -23.775  0.00  0.00    -0.349 OA
ATOM     25  N   UNL     1      32.342  -4.508 -23.498  0.00  0.00    -0.312 N 
ATOM     26  N   UNL     1      30.821  -2.689 -22.977  0.00  0.00    -0.062 NA
ATOM     27  C   UNL     1      31.501  -3.457 -23.833  0.00  0.00    +0.171 C 
ATOM     28  C   UNL     1      31.280  -3.089 -25.171  0.00  0.00    +0.081 C 
ATOM     29  C   UNL     1      30.411  -2.034 -25.080  0.00  0.00    +0.215 C 
ATOM     30  H   UNL     1      32.786  -4.999 -24.227  0.00  0.00    +0.148 HD
ENDBRANCH  23  25
ENDBRANCH  20  23
ENDBRANCH   4  19
TORSDOF 4
ENDMDL
MODEL 5
REMARK VINA RESULT:     -10.8      5.499      8.149
REMARK  Name = 25184541
REMARK  4 active torsions:
REMARK  status: ('A' for Active; 'I' for Inactive)
REMARK    1  A    between atoms: C_4  and  N_19
REMARK    2  A    between atoms: C_5  and  N_11
REMARK    3  A    between atoms: C_20  and  C_23
REMARK    4  A    between atoms: C_23  and  N_25
REMARK                            x       y       z     vdW  Elec       q    Type
REMARK                         _______ _______ _______ _____ _____    ______ ____
ROOT
ATOM      1  F   UNL     1      35.305 -22.872 -16.809  0.00  0.00    -0.200 F 
ATOM      2  F   UNL     1      32.617 -22.503 -16.933  0.00  0.00    -0.200 F 
ATOM      3  F   UNL     1      32.104 -24.880 -12.853  0.00  0.00    -0.203 F 
ATOM      4  C   UNL     1      35.085 -24.065 -14.768  0.00  0.00    +0.089 C 
ATOM      5  C   UNL     1      32.324 -23.687 -14.896  0.00  0.00    +0.110 C 
ATOM      6  C   UNL     1      34.525 -23.367 -15.838  0.00  0.00    +0.182 C 
ATOM      7  C   UNL     1      34.264 -24.574 -13.761  0.00  0.00    +0.048 C 
ATOM      8  C   UNL     1      33.144 -23.178 -15.901  0.00  0.00    +0.184 C 
ATOM      9  C   UNL     1      32.884 -24.385 -13.826  0.00  0.00    +0.157 C 
ENDROOT
BRANCH   5  11
ATOM     10  O   UNL     1      26.890 -22.960 -15.240  0.00  0.00    -0.291 OA
ATOM     11  N   UNL     1      30.919 -23.498 -14.962  0.00  0.00    -0.282 N 
ATOM     12  C   UNL     1      30.094 -24.657 -15.347  0.00  0.00    +0.104 C 
ATOM     13  C   UNL     1      28.796 -24.205 -16.015  0.00  0.00    +0.091 C 
ATOM     14  C   UNL     1      30.284 -22.349 -14.514  0.00  0.00    +0.068 C 
ATOM     15  C   UNL     1      28.112 -23.093 -15.248  0.00  0.00    +0.176 C 
ATOM     16  C   UNL     1      28.973 -22.096 -14.572  0.00  0.00    +0.054 C 
ENDBRANCH   5  11
BRANCH   4  19
ATOM     17  O   UNL     1      38.717 -23.886 -14.588  0.00  0.00    -0.434 OA
ATOM     18  O   UNL     1      37.371 -22.062 -14.651  0.00  0.00    -0.226 OA
ATOM     19  N   UNL     1      36.494 -24.259 -14.699  0.00  0.00    -0.219 N 
ATOM     20  C   UNL     1      38.539 -25.294 -14.380  0.00  0.00    +0.210 C 
ATOM     21  C   UNL     1      37.107 -25.557 -14.795  0.00  0.00    +0.147 C 
ATOM     22  C   UNL     1      37.482 -23.280 -14.638  0.00  0.00    +0.409 C 
BRANCH  20  23
ATOM     23  C   UNL     1      38.807 -25.612 -12.915  0.00  0.00    +0.134 C 
BRANCH  23  25
ATOM     24  O   UNL     1      35.558 -25.368 -10.082  0.00  0.00    -0.349 OA
ATOM     25  N   UNL     1      38.331 -24.536 -12.083  0.00  0.00    -0.312 N 
ATOM     26  N   UNL     1      36.506 -25.739 -11.028  0.00  0.00    -0.062 NA
ATOM     27  C   UNL     1      37.251 -24.647 -11.219  0.00  0.00    +0.171 C 
ATOM     28  C   UNL     1      36.826 -23.566 -10.430  0.00  0.00    +0.081 C 
ATOM     29  C   UNL     1      35.759 -24.070  -9.733  0.00  0.00    +0.215 C 
ATOM     30  H   UNL     1      38.798 -23.670 -12.133  0.00  0.00    +0.148 HD
ENDBRANCH  23  25
ENDBRANCH  20  23
ENDBRANCH   4  19
TORSDOF 4
ENDMDL
MODEL 6
REMARK VINA RESULT:     -10.7      2.667      9.445
REMARK  Name = 25184541
REMARK  4 active torsions:
REMARK  status: ('A' for Active; 'I' for Inactive)
REMARK    1  A    between atoms: C_4  and  N_19
REMARK    2  A    between atoms: C_5  and  N_11
REMARK    3  A    between atoms: C_20  and  C_23
REMARK    4  A    between atoms: C_23  and  N_25
REMARK                            x       y       z     vdW  Elec       q    Type
REMARK                         _______ _______ _______ _____ _____    ______ ____
ROOT
ATOM      1  F   UNL     1      37.169 -19.311 -21.285  0.00  0.00    -0.200 F 
ATOM      2  F   UNL     1      37.047 -20.983 -19.148  0.00  0.00    -0.200 F 
ATOM      3  F   UNL     1      32.303 -20.952 -19.397  0.00  0.00    -0.203 F 
ATOM      4  C   UNL     1      34.799 -19.274 -21.439  0.00  0.00    +0.089 C 
ATOM      5  C   UNL     1      34.673 -20.989 -19.243  0.00  0.00    +0.110 C 
ATOM      6  C   UNL     1      35.974 -19.710 -20.826  0.00  0.00    +0.182 C 
ATOM      7  C   UNL     1      33.562 -19.696 -20.953  0.00  0.00    +0.048 C 
ATOM      8  C   UNL     1      35.911 -20.568 -19.728  0.00  0.00    +0.184 C 
ATOM      9  C   UNL     1      33.499 -20.553 -19.856  0.00  0.00    +0.157 C 
ENDROOT
BRANCH   5  11
ATOM     10  O   UNL     1      34.351 -24.314 -14.882  0.00  0.00    -0.291 OA
ATOM     11  N   UNL     1      34.609 -21.860 -18.123  0.00  0.00    -0.282 N 
ATOM     12  C   UNL     1      33.513 -22.844 -18.090  0.00  0.00    +0.104 C 
ATOM     13  C   UNL     1      33.153 -23.212 -16.652  0.00  0.00    +0.091 C 
ATOM     14  C   UNL     1      35.611 -21.947 -17.168  0.00  0.00    +0.068 C 
ATOM     15  C   UNL     1      34.376 -23.510 -15.810  0.00  0.00    +0.176 C 
ATOM     16  C   UNL     1      35.601 -22.722 -16.079  0.00  0.00    +0.054 C 
ENDBRANCH   5  11
BRANCH   4  19
ATOM     17  O   UNL     1      34.780 -17.582 -24.663  0.00  0.00    -0.434 OA
ATOM     18  O   UNL     1      34.300 -19.782 -24.396  0.00  0.00    -0.226 OA
ATOM     19  N   UNL     1      34.860 -18.399 -22.560  0.00  0.00    -0.219 N 
ATOM     20  C   UNL     1      34.930 -16.446 -23.801  0.00  0.00    +0.210 C 
ATOM     21  C   UNL     1      35.319 -17.038 -22.463  0.00  0.00    +0.147 C 
ATOM     22  C   UNL     1      34.605 -18.710 -23.893  0.00  0.00    +0.409 C 
BRANCH  20  23
ATOM     23  C   UNL     1      33.612 -15.683 -23.759  0.00  0.00    +0.134 C 
BRANCH  23  25
ATOM     24  O   UNL     1      33.466 -11.858 -25.754  0.00  0.00    -0.349 OA
ATOM     25  N   UNL     1      33.837 -14.340 -23.288  0.00  0.00    -0.312 N 
ATOM     26  N   UNL     1      33.438 -13.199 -25.393  0.00  0.00    -0.062 NA
ATOM     27  C   UNL     1      33.743 -13.214 -24.092  0.00  0.00    +0.171 C 
ATOM     28  C   UNL     1      33.973 -11.925 -23.583  0.00  0.00    +0.081 C 
ATOM     29  C   UNL     1      33.786 -11.108 -24.667  0.00  0.00    +0.215 C 
ATOM     30  H   UNL     1      34.072 -14.215 -22.339  0.00  0.00    +0.148 HD
ENDBRANCH  23  25
ENDBRANCH  20  23
ENDBRANCH   4  19
TORSDOF 4
ENDMDL
MODEL 7
REMARK VINA RESULT:     -10.7      2.585      4.616
REMARK  Name = 25184541
REMARK  4 active torsions:
REMARK  status: ('A' for Active; 'I' for Inactive)
REMARK    1  A    between atoms: C_4  and  N_19
REMARK    2  A    between atoms: C_5  and  N_11
REMARK    3  A    between atoms: C_20  and  C_23
REMARK    4  A    between atoms: C_23  and  N_25
REMARK                            x       y       z     vdW  Elec       q    Type
REMARK                         _______ _______ _______ _____ _____    ______ ____
ROOT
ATOM      1  F   UNL     1      37.020 -21.617 -18.287  0.00  0.00    -0.200 F 
ATOM      2  F   UNL     1      37.115 -19.954 -20.432  0.00  0.00    -0.200 F 
ATOM      3  F   UNL     1      32.370 -19.957 -20.644  0.00  0.00    -0.203 F 
ATOM      4  C   UNL     1      34.647 -21.640 -18.364  0.00  0.00    +0.089 C 
ATOM      5  C   UNL     1      34.744 -19.934 -20.568  0.00  0.00    +0.110 C 
ATOM      6  C   UNL     1      35.878 -21.214 -18.861  0.00  0.00    +0.182 C 
ATOM      7  C   UNL     1      33.464 -21.213 -18.968  0.00  0.00    +0.048 C 
ATOM      8  C   UNL     1      35.926 -20.360 -19.963  0.00  0.00    +0.184 C 
ATOM      9  C   UNL     1      33.513 -20.360 -20.070  0.00  0.00    +0.157 C 
ENDROOT
BRANCH   5  11
ATOM     10  O   UNL     1      34.882 -16.523 -24.872  0.00  0.00    -0.291 OA
ATOM     11  N   UNL     1      34.794 -19.067 -21.691  0.00  0.00    -0.282 N 
ATOM     12  C   UNL     1      35.566 -17.820 -21.554  0.00  0.00    +0.104 C 
ATOM     13  C   UNL     1      35.019 -16.735 -22.481  0.00  0.00    +0.091 C 
ATOM     14  C   UNL     1      34.311 -19.417 -22.944  0.00  0.00    +0.068 C 
ATOM     15  C   UNL     1      34.774 -17.247 -23.885  0.00  0.00    +0.176 C 
ATOM     16  C   UNL     1      34.301 -18.642 -24.033  0.00  0.00    +0.054 C 
ENDBRANCH   5  11
BRANCH   4  19
ATOM     17  O   UNL     1      34.138 -24.261 -15.888  0.00  0.00    -0.434 OA
ATOM     18  O   UNL     1      33.288 -24.336 -17.989  0.00  0.00    -0.226 OA
ATOM     19  N   UNL     1      34.593 -22.511 -17.238  0.00  0.00    -0.219 N 
ATOM     20  C   UNL     1      35.111 -23.468 -15.195  0.00  0.00    +0.210 C 
ATOM     21  C   UNL     1      35.136 -22.157 -15.953  0.00  0.00    +0.147 C 
ATOM     22  C   UNL     1      33.952 -23.744 -17.150  0.00  0.00    +0.409 C 
BRANCH  20  23
ATOM     23  C   UNL     1      36.448 -24.199 -15.218  0.00  0.00    +0.134 C 
BRANCH  23  25
ATOM     24  O   UNL     1      38.143 -22.651 -11.562  0.00  0.00    -0.349 OA
ATOM     25  N   UNL     1      36.696 -24.807 -13.936  0.00  0.00    -0.312 N 
ATOM     26  N   UNL     1      37.649 -22.861 -12.843  0.00  0.00    -0.062 NA
ATOM     27  C   UNL     1      37.259 -24.139 -12.859  0.00  0.00    +0.171 C 
ATOM     28  C   UNL     1      37.481 -24.779 -11.629  0.00  0.00    +0.081 C 
ATOM     29  C   UNL     1      38.038 -23.801 -10.848  0.00  0.00    +0.215 C 
ATOM     30  H   UNL     1      36.452 -25.755 -13.818  0.00  0.00    +0.148 HD
ENDBRANCH  23  25
ENDBRANCH  20  23
ENDBRANCH   4  19
TORSDOF 4
ENDMDL
MODEL 8
REMARK VINA RESULT:     -10.6      3.333      9.094
REMARK  Name = 25184541
REMARK  4 active torsions:
REMARK  status: ('A' for Active; 'I' for Inactive)
REMARK    1  A    between atoms: C_4  and  N_19
REMARK    2  A    between atoms: C_5  and  N_11
REMARK    3  A    between atoms: C_20  and  C_23
REMARK    4  A    between atoms: C_23  and  N_25
REMARK                            x       y       z     vdW  Elec       q    Type
REMARK                         _______ _______ _______ _____ _____    ______ ____
ROOT
ATOM      1  F   UNL     1      37.271 -20.923 -17.968  0.00  0.00    -0.200 F 
ATOM      2  F   UNL     1      37.825 -22.245 -15.661  0.00  0.00    -0.200 F 
ATOM      3  F   UNL     1      33.423 -24.028 -15.626  0.00  0.00    -0.203 F 
ATOM      4  C   UNL     1      35.062 -21.796 -17.982  0.00  0.00    +0.089 C 
ATOM      5  C   UNL     1      35.631 -23.153 -15.612  0.00  0.00    +0.110 C 
ATOM      6  C   UNL     1      36.324 -21.682 -17.398  0.00  0.00    +0.182 C 
ATOM      7  C   UNL     1      34.085 -22.590 -17.381  0.00  0.00    +0.048 C 
ATOM      8  C   UNL     1      36.608 -22.361 -16.213  0.00  0.00    +0.184 C 
ATOM      9  C   UNL     1      34.370 -23.268 -16.196  0.00  0.00    +0.157 C 
ENDROOT
BRANCH   5  11
ATOM     10  O   UNL     1      36.800 -25.750 -10.914  0.00  0.00    -0.291 OA
ATOM     11  N   UNL     1      35.919 -23.841 -14.404  0.00  0.00    -0.282 N 
ATOM     12  C   UNL     1      35.357 -23.292 -13.158  0.00  0.00    +0.104 C 
ATOM     13  C   UNL     1      36.227 -23.660 -11.957  0.00  0.00    +0.091 C 
ATOM     14  C   UNL     1      36.540 -25.081 -14.364  0.00  0.00    +0.068 C 
ATOM     15  C   UNL     1      36.616 -25.124 -11.956  0.00  0.00    +0.176 C 
ATOM     16  C   UNL     1      36.864 -25.769 -13.265  0.00  0.00    +0.054 C 
ENDBRANCH   5  11
BRANCH   4  19
ATOM     17  O   UNL     1      33.673 -20.060 -20.864  0.00  0.00    -0.434 OA
ATOM     18  O   UNL     1      32.420 -20.830 -19.138  0.00  0.00    -0.226 OA
ATOM     19  N   UNL     1      34.769 -21.106 -19.192  0.00  0.00    -0.219 N 
ATOM     20  C   UNL     1      35.069 -19.855 -21.116  0.00  0.00    +0.210 C 
ATOM     21  C   UNL     1      35.765 -20.834 -20.195  0.00  0.00    +0.147 C 
ATOM     22  C   UNL     1      33.522 -20.687 -19.648  0.00  0.00    +0.409 C 
BRANCH  20  23
ATOM     23  C   UNL     1      35.414 -18.401 -20.816  0.00  0.00    +0.134 C 
BRANCH  23  25
ATOM     24  O   UNL     1      34.404 -14.261 -21.505  0.00  0.00    -0.349 OA
ATOM     25  N   UNL     1      35.326 -17.617 -22.021  0.00  0.00    -0.312 N 
ATOM     26  N   UNL     1      34.681 -15.519 -20.985  0.00  0.00    -0.062 NA
ATOM     27  C   UNL     1      34.980 -16.275 -22.046  0.00  0.00    +0.171 C 
ATOM     28  C   UNL     1      34.908 -15.554 -23.250  0.00  0.00    +0.081 C 
ATOM     29  C   UNL     1      34.543 -14.294 -22.855  0.00  0.00    +0.215 C 
ATOM     30  H   UNL     1      35.523 -18.062 -22.878  0.00  0.00    +0.148 HD
ENDBRANCH  23  25
ENDBRANCH  20  23
ENDBRANCH   4  19
TORSDOF 4
ENDMDL
MODEL 9
REMARK VINA RESULT:     -10.6      2.584      4.479
REMARK  Name = 25184541
REMARK  4 active torsions:
REMARK  status: ('A' for Active; 'I' for Inactive)
REMARK    1  A    between atoms: C_4  and  N_19
REMARK    2  A    between atoms: C_5  and  N_11
REMARK    3  A    between atoms: C_20  and  C_23
REMARK    4  A    between atoms: C_23  and  N_25
REMARK                            x       y       z     vdW  Elec       q    Type
REMARK                         _______ _______ _______ _____ _____    ______ ____
ROOT
ATOM      1  F   UNL     1      37.172 -21.439 -18.242  0.00  0.00    -0.200 F 
ATOM      2  F   UNL     1      37.182 -19.793 -20.403  0.00  0.00    -0.200 F 
ATOM      3  F   UNL     1      32.447 -20.084 -20.643  0.00  0.00    -0.203 F 
ATOM      4  C   UNL     1      34.805 -21.606 -18.333  0.00  0.00    +0.089 C 
ATOM      5  C   UNL     1      34.815 -19.917 -20.552  0.00  0.00    +0.110 C 
ATOM      6  C   UNL     1      36.012 -21.110 -18.827  0.00  0.00    +0.182 C 
ATOM      7  C   UNL     1      33.603 -21.256 -18.948  0.00  0.00    +0.048 C 
ATOM      8  C   UNL     1      36.016 -20.265 -19.937  0.00  0.00    +0.184 C 
ATOM      9  C   UNL     1      33.608 -20.412 -20.058  0.00  0.00    +0.157 C 
ENDROOT
BRANCH   5  11
ATOM     10  O   UNL     1      34.780 -16.542 -24.887  0.00  0.00    -0.291 OA
ATOM     11  N   UNL     1      34.819 -19.060 -21.684  0.00  0.00    -0.282 N 
ATOM     12  C   UNL     1      35.588 -17.807 -21.585  0.00  0.00    +0.104 C 
ATOM     13  C   UNL     1      35.003 -16.732 -22.500  0.00  0.00    +0.091 C 
ATOM     14  C   UNL     1      34.295 -19.423 -22.916  0.00  0.00    +0.068 C 
ATOM     15  C   UNL     1      34.712 -17.258 -23.890  0.00  0.00    +0.176 C 
ATOM     16  C   UNL     1      34.242 -18.657 -24.010  0.00  0.00    +0.054 C 
ENDBRANCH   5  11
BRANCH   4  19
ATOM     17  O   UNL     1      34.396 -24.207 -15.818  0.00  0.00    -0.434 OA
ATOM     18  O   UNL     1      33.464 -24.299 -17.883  0.00  0.00    -0.226 OA
ATOM     19  N   UNL     1      34.797 -22.468 -17.199  0.00  0.00    -0.219 N 
ATOM     20  C   UNL     1      35.396 -23.408 -15.171  0.00  0.00    +0.210 C 
ATOM     21  C   UNL     1      35.390 -22.104 -15.940  0.00  0.00    +0.147 C 
ATOM     22  C   UNL     1      34.161 -23.700 -17.076  0.00  0.00    +0.409 C 
BRANCH  20  23
ATOM     23  C   UNL     1      36.731 -24.139 -15.241  0.00  0.00    +0.134 C 
BRANCH  23  25
ATOM     24  O   UNL     1      36.894 -28.448 -15.039  0.00  0.00    -0.349 OA
ATOM     25  N   UNL     1      36.851 -25.049 -14.130  0.00  0.00    -0.312 N 
ATOM     26  N   UNL     1      36.819 -27.112 -15.410  0.00  0.00    -0.062 NA
ATOM     27  C   UNL     1      36.888 -26.429 -14.263  0.00  0.00    +0.171 C 
ATOM     28  C   UNL     1      37.006 -27.273 -13.147  0.00  0.00    +0.081 C 
ATOM     29  C   UNL     1      37.006 -28.532 -13.687  0.00  0.00    +0.215 C 
ATOM     30  H   UNL     1      36.910 -24.668 -13.224  0.00  0.00    +0.148 HD
ENDBRANCH  23  25
ENDBRANCH  20  23
ENDBRANCH   4  19
TORSDOF 4
ENDMDL
