MODEL 1
REMARK VINA RESULT:     -11.5      0.000      0.000
REMARK  Name = 24755471
REMARK  13 active torsions:
REMARK  status: ('A' for Active; 'I' for Inactive)
REMARK    1  A    between atoms: C_1  and  S_11
REMARK    2  A    between atoms: C_9  and  O_27
REMARK    3  A    between atoms: S_11  and  N_14
REMARK    4  A    between atoms: N_14  and  C_16
REMARK    5  A    between atoms: C_16  and  C_18
REMARK    6  A    between atoms: C_16  and  C_21
REMARK    7  A    between atoms: C_18  and  O_19
REMARK    8  A    between atoms: C_21  and  C_22
REMARK    9  A    between atoms: C_22  and  C_24
REMARK   10  A    between atoms: C_24  and  O_25
REMARK   11  A    between atoms: O_27  and  C_28
REMARK   12  A    between atoms: C_28  and  C_29
REMARK   13  A    between atoms: C_34  and  C_36
REMARK                            x       y       z     vdW  Elec       q    Type
REMARK                         _______ _______ _______ _____ _____    ______ ____
ROOT
ATOM      1  C   UNL     1      34.007 -21.877 -18.591  0.00  0.00    +0.122 C 
ATOM      2  C   UNL     1      35.435 -20.404 -19.900  0.00  0.00    +0.002 C 
ATOM      3  C   UNL     1      35.275 -21.391 -18.914  0.00  0.00    +0.020 C 
ATOM      4  C   UNL     1      34.293 -19.903 -20.569  0.00  0.00    +0.003 C 
ATOM      5  C   UNL     1      32.884 -21.383 -19.248  0.00  0.00    +0.020 C 
ATOM      6  C   UNL     1      33.024 -20.402 -20.231  0.00  0.00    +0.001 C 
ATOM      7  C   UNL     1      34.452 -18.916 -21.555  0.00  0.00    +0.037 C 
ATOM      8  C   UNL     1      36.704 -19.904 -20.238  0.00  0.00    +0.003 C 
ATOM      9  C   UNL     1      35.720 -18.431 -21.877  0.00  0.00    +0.139 C 
ATOM     10  C   UNL     1      36.843 -18.924 -21.220  0.00  0.00    +0.037 C 
ENDROOT
BRANCH   1  11
ATOM     11  S   UNL     1      33.828 -23.119 -17.346  0.00  0.00    +0.061 S 
ATOM     12  O   UNL     1      33.435 -24.352 -18.000  0.00  0.00    -0.153 OA
ATOM     13  O   UNL     1      35.026 -23.075 -16.530  0.00  0.00    -0.153 OA
BRANCH  11  14
ATOM     14  N   UNL     1      32.521 -22.520 -16.439  0.00  0.00    -0.170 NA
ATOM     15  H   UNL     1      31.883 -22.078 -17.100  0.00  0.00    +0.149 HD
BRANCH  14  16
ATOM     16  C   UNL     1      31.711 -23.442 -15.613  0.00  0.00    +0.174 C 
BRANCH  16  18
ATOM     17  O   UNL     1      32.365 -24.768 -13.682  0.00  0.00    -0.249 OA
ATOM     18  C   UNL     1      32.494 -23.757 -14.360  0.00  0.00    +0.330 C 
BRANCH  18  19
ATOM     19  O   UNL     1      33.396 -22.786 -14.063  0.00  0.00    -0.479 OA
ATOM     20  H   UNL     1      34.313 -22.974 -14.096  0.00  0.00    +0.295 HD
ENDBRANCH  18  19
ENDBRANCH  16  18
BRANCH  16  21
ATOM     21  C   UNL     1      30.318 -22.854 -15.364  0.00  0.00    +0.040 C 
BRANCH  21  22
ATOM     22  C   UNL     1      29.128 -23.769 -15.668  0.00  0.00    +0.111 C 
BRANCH  22  24
ATOM     23  O   UNL     1      27.807 -21.935 -16.521  0.00  0.00    -0.250 OA
ATOM     24  C   UNL     1      28.072 -23.130 -16.535  0.00  0.00    +0.314 C 
BRANCH  24  25
ATOM     25  O   UNL     1      27.430 -24.027 -17.327  0.00  0.00    -0.480 OA
ATOM     26  H   UNL     1      26.983 -23.734 -18.097  0.00  0.00    +0.295 HD
ENDBRANCH  24  25
ENDBRANCH  22  24
ENDBRANCH  21  22
ENDBRANCH  16  21
ENDBRANCH  14  16
ENDBRANCH  11  14
ENDBRANCH   1  11
BRANCH   9  27
ATOM     27  O   UNL     1      35.858 -17.475 -22.837  0.00  0.00    -0.471 OA
BRANCH  27  28
ATOM     28  C   UNL     1      34.715 -17.192 -23.641  0.00  0.00    +0.232 C 
BRANCH  28  29
ATOM     29  C   UNL     1      34.378 -15.735 -23.519  0.00  0.00    +0.021 C 
ATOM     30  C   UNL     1      34.658 -15.052 -22.336  0.00  0.00    -0.000 C 
ATOM     31  C   UNL     1      33.782 -15.064 -24.587  0.00  0.00    -0.000 C 
ATOM     32  C   UNL     1      34.344 -13.698 -22.221  0.00  0.00    +0.010 C 
ATOM     33  C   UNL     1      33.469 -13.711 -24.473  0.00  0.00    +0.010 C 
ATOM     34  C   UNL     1      33.749 -13.028 -23.290  0.00  0.00    +0.068 C 
BRANCH  34  36
ATOM     35  N   UNL     1      33.167 -10.513 -23.077  0.00  0.00    -0.191 NA
ATOM     36  C   UNL     1      33.428 -11.639 -23.173  0.00  0.00    +0.100 C 
ENDBRANCH  34  36
ENDBRANCH  28  29
ENDBRANCH  27  28
ENDBRANCH   9  27
TORSDOF 13
ENDMDL
MODEL 2
REMARK VINA RESULT:     -11.3      4.284      6.422
REMARK  Name = 24755471
REMARK  13 active torsions:
REMARK  status: ('A' for Active; 'I' for Inactive)
REMARK    1  A    between atoms: C_1  and  S_11
REMARK    2  A    between atoms: C_9  and  O_27
REMARK    3  A    between atoms: S_11  and  N_14
REMARK    4  A    between atoms: N_14  and  C_16
REMARK    5  A    between atoms: C_16  and  C_18
REMARK    6  A    between atoms: C_16  and  C_21
REMARK    7  A    between atoms: C_18  and  O_19
REMARK    8  A    between atoms: C_21  and  C_22
REMARK    9  A    between atoms: C_22  and  C_24
REMARK   10  A    between atoms: C_24  and  O_25
REMARK   11  A    between atoms: O_27  and  C_28
REMARK   12  A    between atoms: C_28  and  C_29
REMARK   13  A    between atoms: C_34  and  C_36
REMARK                            x       y       z     vdW  Elec       q    Type
REMARK                         _______ _______ _______ _____ _____    ______ ____
ROOT
ATOM      1  C   UNL     1      36.664 -23.177 -14.646  0.00  0.00    +0.122 C 
ATOM      2  C   UNL     1      35.257 -22.590 -16.542  0.00  0.00    +0.002 C 
ATOM      3  C   UNL     1      35.432 -23.219 -15.299  0.00  0.00    +0.020 C 
ATOM      4  C   UNL     1      36.348 -21.907 -17.132  0.00  0.00    +0.003 C 
ATOM      5  C   UNL     1      37.736 -22.506 -15.226  0.00  0.00    +0.020 C 
ATOM      6  C   UNL     1      37.581 -21.875 -16.461  0.00  0.00    +0.001 C 
ATOM      7  C   UNL     1      36.173 -21.278 -18.375  0.00  0.00    +0.037 C 
ATOM      8  C   UNL     1      34.023 -22.623 -17.214  0.00  0.00    +0.003 C 
ATOM      9  C   UNL     1      34.941 -21.321 -19.027  0.00  0.00    +0.139 C 
ATOM     10  C   UNL     1      33.868 -21.992 -18.448  0.00  0.00    +0.037 C 
ENDROOT
BRANCH   1  11
ATOM     11  S   UNL     1      36.863 -23.976 -13.082  0.00  0.00    +0.061 S 
ATOM     12  O   UNL     1      36.782 -22.961 -12.049  0.00  0.00    -0.153 OA
ATOM     13  O   UNL     1      35.955 -25.107 -13.067  0.00  0.00    -0.153 OA
BRANCH  11  14
ATOM     14  N   UNL     1      38.459 -24.553 -13.184  0.00  0.00    -0.170 NA
ATOM     15  H   UNL     1      38.714 -24.877 -12.252  0.00  0.00    +0.149 HD
BRANCH  14  16
ATOM     16  C   UNL     1      38.789 -25.646 -14.124  0.00  0.00    +0.174 C 
BRANCH  16  18
ATOM     17  O   UNL     1      40.984 -24.604 -14.231  0.00  0.00    -0.249 OA
ATOM     18  C   UNL     1      40.151 -25.362 -14.712  0.00  0.00    +0.330 C 
BRANCH  18  19
ATOM     19  O   UNL     1      40.374 -26.067 -15.850  0.00  0.00    -0.479 OA
ATOM     20  H   UNL     1      39.908 -25.853 -16.634  0.00  0.00    +0.295 HD
ENDBRANCH  18  19
ENDBRANCH  16  18
BRANCH  16  21
ATOM     21  C   UNL     1      38.666 -27.006 -13.427  0.00  0.00    +0.040 C 
BRANCH  21  22
ATOM     22  C   UNL     1      37.813 -28.061 -14.137  0.00  0.00    +0.111 C 
BRANCH  22  24
ATOM     23  O   UNL     1      36.258 -27.066 -15.696  0.00  0.00    -0.250 OA
ATOM     24  C   UNL     1      37.324 -27.635 -15.499  0.00  0.00    +0.314 C 
BRANCH  24  25
ATOM     25  O   UNL     1      38.187 -27.964 -16.493  0.00  0.00    -0.480 OA
ATOM     26  H   UNL     1      37.859 -28.186 -17.342  0.00  0.00    +0.295 HD
ENDBRANCH  24  25
ENDBRANCH  22  24
ENDBRANCH  21  22
ENDBRANCH  16  21
ENDBRANCH  14  16
ENDBRANCH  11  14
ENDBRANCH   1  11
BRANCH   9  27
ATOM     27  O   UNL     1      34.787 -20.704 -20.231  0.00  0.00    -0.471 OA
BRANCH  27  28
ATOM     28  C   UNL     1      35.930 -20.045 -20.774  0.00  0.00    +0.232 C 
BRANCH  28  29
ATOM     29  C   UNL     1      35.476 -18.992 -21.741  0.00  0.00    +0.021 C 
ATOM     30  C   UNL     1      34.782 -19.358 -22.895  0.00  0.00    -0.000 C 
ATOM     31  C   UNL     1      35.749 -17.648 -21.489  0.00  0.00    -0.000 C 
ATOM     32  C   UNL     1      34.360 -18.380 -23.794  0.00  0.00    +0.010 C 
ATOM     33  C   UNL     1      35.328 -16.670 -22.389  0.00  0.00    +0.010 C 
ATOM     34  C   UNL     1      34.633 -17.036 -23.542  0.00  0.00    +0.068 C 
BRANCH  34  36
ATOM     35  N   UNL     1      33.848 -15.220 -25.213  0.00  0.00    -0.191 NA
ATOM     36  C   UNL     1      34.200 -16.033 -24.464  0.00  0.00    +0.100 C 
ENDBRANCH  34  36
ENDBRANCH  28  29
ENDBRANCH  27  28
ENDBRANCH   9  27
TORSDOF 13
ENDMDL
MODEL 3
REMARK VINA RESULT:     -11.2      4.132      6.522
REMARK  Name = 24755471
REMARK  13 active torsions:
REMARK  status: ('A' for Active; 'I' for Inactive)
REMARK    1  A    between atoms: C_1  and  S_11
REMARK    2  A    between atoms: C_9  and  O_27
REMARK    3  A    between atoms: S_11  and  N_14
REMARK    4  A    between atoms: N_14  and  C_16
REMARK    5  A    between atoms: C_16  and  C_18
REMARK    6  A    between atoms: C_16  and  C_21
REMARK    7  A    between atoms: C_18  and  O_19
REMARK    8  A    between atoms: C_21  and  C_22
REMARK    9  A    between atoms: C_22  and  C_24
REMARK   10  A    between atoms: C_24  and  O_25
REMARK   11  A    between atoms: O_27  and  C_28
REMARK   12  A    between atoms: C_28  and  C_29
REMARK   13  A    between atoms: C_34  and  C_36
REMARK                            x       y       z     vdW  Elec       q    Type
REMARK                         _______ _______ _______ _____ _____    ______ ____
ROOT
ATOM      1  C   UNL     1      35.379 -23.246 -14.423  0.00  0.00    +0.122 C 
ATOM      2  C   UNL     1      34.530 -22.638 -16.621  0.00  0.00    +0.002 C 
ATOM      3  C   UNL     1      34.339 -23.211 -15.354  0.00  0.00    +0.020 C 
ATOM      4  C   UNL     1      35.793 -22.091 -16.950  0.00  0.00    +0.003 C 
ATOM      5  C   UNL     1      36.621 -22.709 -14.748  0.00  0.00    +0.020 C 
ATOM      6  C   UNL     1      36.828 -22.134 -16.002  0.00  0.00    +0.001 C 
ATOM      7  C   UNL     1      35.983 -21.517 -18.218  0.00  0.00    +0.037 C 
ATOM      8  C   UNL     1      33.494 -22.595 -17.569  0.00  0.00    +0.003 C 
ATOM      9  C   UNL     1      34.943 -21.483 -19.147  0.00  0.00    +0.139 C 
ATOM     10  C   UNL     1      33.701 -22.021 -18.824  0.00  0.00    +0.037 C 
ENDROOT
BRANCH   1  11
ATOM     11  S   UNL     1      35.118 -23.973 -12.833  0.00  0.00    +0.061 S 
ATOM     12  O   UNL     1      35.898 -23.225 -11.867  0.00  0.00    -0.153 OA
ATOM     13  O   UNL     1      33.685 -24.113 -12.664  0.00  0.00    -0.153 OA
BRANCH  11  14
ATOM     14  N   UNL     1      35.802 -25.516 -13.038  0.00  0.00    -0.170 NA
ATOM     15  H   UNL     1      35.628 -25.788 -14.005  0.00  0.00    +0.149 HD
BRANCH  14  16
ATOM     16  C   UNL     1      37.245 -25.723 -12.786  0.00  0.00    +0.174 C 
BRANCH  16  18
ATOM     17  O   UNL     1      37.428 -27.578 -11.225  0.00  0.00    -0.249 OA
ATOM     18  C   UNL     1      37.395 -26.371 -11.431  0.00  0.00    +0.330 C 
BRANCH  18  19
ATOM     19  O   UNL     1      37.513 -25.455 -10.436  0.00  0.00    -0.479 OA
ATOM     20  H   UNL     1      36.889 -24.762 -10.360  0.00  0.00    +0.295 HD
ENDBRANCH  18  19
ENDBRANCH  16  18
BRANCH  16  21
ATOM     21  C   UNL     1      37.883 -26.503 -13.942  0.00  0.00    +0.040 C 
BRANCH  21  22
ATOM     22  C   UNL     1      39.381 -26.798 -13.819  0.00  0.00    +0.111 C 
BRANCH  22  24
ATOM     23  O   UNL     1      40.708 -24.805 -14.134  0.00  0.00    -0.250 OA
ATOM     24  C   UNL     1      40.256 -25.845 -14.594  0.00  0.00    +0.314 C 
BRANCH  24  25
ATOM     25  O   UNL     1      40.478 -26.254 -15.869  0.00  0.00    -0.480 OA
ATOM     26  H   UNL     1      41.305 -26.627 -16.103  0.00  0.00    +0.295 HD
ENDBRANCH  24  25
ENDBRANCH  22  24
ENDBRANCH  21  22
ENDBRANCH  16  21
ENDBRANCH  14  16
ENDBRANCH  11  14
ENDBRANCH   1  11
BRANCH   9  27
ATOM     27  O   UNL     1      35.143 -20.922 -20.371  0.00  0.00    -0.471 OA
BRANCH  27  28
ATOM     28  C   UNL     1      36.065 -19.836 -20.445  0.00  0.00    +0.232 C 
BRANCH  28  29
ATOM     29  C   UNL     1      35.592 -18.860 -21.482  0.00  0.00    +0.021 C 
ATOM     30  C   UNL     1      35.754 -17.490 -21.276  0.00  0.00    -0.000 C 
ATOM     31  C   UNL     1      34.989 -19.323 -22.651  0.00  0.00    -0.000 C 
ATOM     32  C   UNL     1      35.314 -16.584 -22.239  0.00  0.00    +0.010 C 
ATOM     33  C   UNL     1      34.548 -18.417 -23.615  0.00  0.00    +0.010 C 
ATOM     34  C   UNL     1      34.711 -17.046 -23.408  0.00  0.00    +0.068 C 
BRANCH  34  36
ATOM     35  N   UNL     1      33.895 -15.362 -25.199  0.00  0.00    -0.191 NA
ATOM     36  C   UNL     1      34.260 -16.117 -24.396  0.00  0.00    +0.100 C 
ENDBRANCH  34  36
ENDBRANCH  28  29
ENDBRANCH  27  28
ENDBRANCH   9  27
TORSDOF 13
ENDMDL
MODEL 4
REMARK VINA RESULT:     -11.1      1.288      2.242
REMARK  Name = 24755471
REMARK  13 active torsions:
REMARK  status: ('A' for Active; 'I' for Inactive)
REMARK    1  A    between atoms: C_1  and  S_11
REMARK    2  A    between atoms: C_9  and  O_27
REMARK    3  A    between atoms: S_11  and  N_14
REMARK    4  A    between atoms: N_14  and  C_16
REMARK    5  A    between atoms: C_16  and  C_18
REMARK    6  A    between atoms: C_16  and  C_21
REMARK    7  A    between atoms: C_18  and  O_19
REMARK    8  A    between atoms: C_21  and  C_22
REMARK    9  A    between atoms: C_22  and  C_24
REMARK   10  A    between atoms: C_24  and  O_25
REMARK   11  A    between atoms: O_27  and  C_28
REMARK   12  A    between atoms: C_28  and  C_29
REMARK   13  A    between atoms: C_34  and  C_36
REMARK                            x       y       z     vdW  Elec       q    Type
REMARK                         _______ _______ _______ _____ _____    ______ ____
ROOT
ATOM      1  C   UNL     1      35.012 -22.381 -16.907  0.00  0.00    +0.122 C 
ATOM      2  C   UNL     1      33.948 -21.353 -18.839  0.00  0.00    +0.002 C 
ATOM      3  C   UNL     1      33.861 -22.058 -17.627  0.00  0.00    +0.020 C 
ATOM      4  C   UNL     1      35.219 -20.969 -19.327  0.00  0.00    +0.003 C 
ATOM      5  C   UNL     1      36.263 -22.004 -17.388  0.00  0.00    +0.020 C 
ATOM      6  C   UNL     1      36.367 -21.303 -18.590  0.00  0.00    +0.001 C 
ATOM      7  C   UNL     1      35.306 -20.265 -20.539  0.00  0.00    +0.037 C 
ATOM      8  C   UNL     1      32.799 -21.020 -19.577  0.00  0.00    +0.003 C 
ATOM      9  C   UNL     1      34.155 -19.942 -21.258  0.00  0.00    +0.139 C 
ATOM     10  C   UNL     1      32.904 -20.319 -20.779  0.00  0.00    +0.037 C 
ENDROOT
BRANCH   1  11
ATOM     11  S   UNL     1      34.881 -23.268 -15.384  0.00  0.00    +0.061 S 
ATOM     12  O   UNL     1      34.821 -24.683 -15.696  0.00  0.00    -0.153 OA
ATOM     13  O   UNL     1      35.917 -22.757 -14.507  0.00  0.00    -0.153 OA
BRANCH  11  14
ATOM     14  N   UNL     1      33.367 -22.752 -14.808  0.00  0.00    -0.170 NA
ATOM     15  H   UNL     1      33.085 -21.963 -15.389  0.00  0.00    +0.149 HD
BRANCH  14  16
ATOM     16  C   UNL     1      32.227 -23.694 -14.782  0.00  0.00    +0.174 C 
BRANCH  16  18
ATOM     17  O   UNL     1      31.849 -23.399 -12.397  0.00  0.00    -0.249 OA
ATOM     18  C   UNL     1      32.024 -24.143 -13.354  0.00  0.00    +0.330 C 
BRANCH  18  19
ATOM     19  O   UNL     1      32.037 -25.496 -13.237  0.00  0.00    -0.479 OA
ATOM     20  H   UNL     1      31.272 -25.992 -13.449  0.00  0.00    +0.295 HD
ENDBRANCH  18  19
ENDBRANCH  16  18
BRANCH  16  21
ATOM     21  C   UNL     1      30.993 -23.059 -15.432  0.00  0.00    +0.040 C 
BRANCH  21  22
ATOM     22  C   UNL     1      29.708 -23.892 -15.414  0.00  0.00    +0.111 C 
BRANCH  22  24
ATOM     23  O   UNL     1      27.814 -24.098 -16.899  0.00  0.00    -0.250 OA
ATOM     24  C   UNL     1      28.635 -23.381 -16.343  0.00  0.00    +0.314 C 
BRANCH  24  25
ATOM     25  O   UNL     1      28.686 -22.036 -16.513  0.00  0.00    -0.480 OA
ATOM     26  H   UNL     1      28.058 -21.486 -16.086  0.00  0.00    +0.295 HD
ENDBRANCH  24  25
ENDBRANCH  22  24
ENDBRANCH  21  22
ENDBRANCH  16  21
ENDBRANCH  14  16
ENDBRANCH  11  14
ENDBRANCH   1  11
BRANCH   9  27
ATOM     27  O   UNL     1      34.255 -19.257 -22.430  0.00  0.00    -0.471 OA
BRANCH  27  28
ATOM     28  C   UNL     1      35.420 -18.454 -22.615  0.00  0.00    +0.232 C 
BRANCH  28  29
ATOM     29  C   UNL     1      35.004 -17.031 -22.843  0.00  0.00    +0.021 C 
ATOM     30  C   UNL     1      35.041 -16.117 -21.790  0.00  0.00    -0.000 C 
ATOM     31  C   UNL     1      34.578 -16.622 -24.107  0.00  0.00    -0.000 C 
ATOM     32  C   UNL     1      34.653 -14.795 -22.001  0.00  0.00    +0.010 C 
ATOM     33  C   UNL     1      34.190 -15.300 -24.318  0.00  0.00    +0.010 C 
ATOM     34  C   UNL     1      34.227 -14.386 -23.264  0.00  0.00    +0.068 C 
BRANCH  34  36
ATOM     35  N   UNL     1      33.509 -11.928 -23.656  0.00  0.00    -0.191 NA
ATOM     36  C   UNL     1      33.831 -13.029 -23.481  0.00  0.00    +0.100 C 
ENDBRANCH  34  36
ENDBRANCH  28  29
ENDBRANCH  27  28
ENDBRANCH   9  27
TORSDOF 13
ENDMDL
MODEL 5
REMARK VINA RESULT:     -11.1      3.078      5.594
REMARK  Name = 24755471
REMARK  13 active torsions:
REMARK  status: ('A' for Active; 'I' for Inactive)
REMARK    1  A    between atoms: C_1  and  S_11
REMARK    2  A    between atoms: C_9  and  O_27
REMARK    3  A    between atoms: S_11  and  N_14
REMARK    4  A    between atoms: N_14  and  C_16
REMARK    5  A    between atoms: C_16  and  C_18
REMARK    6  A    between atoms: C_16  and  C_21
REMARK    7  A    between atoms: C_18  and  O_19
REMARK    8  A    between atoms: C_21  and  C_22
REMARK    9  A    between atoms: C_22  and  C_24
REMARK   10  A    between atoms: C_24  and  O_25
REMARK   11  A    between atoms: O_27  and  C_28
REMARK   12  A    between atoms: C_28  and  C_29
REMARK   13  A    between atoms: C_34  and  C_36
REMARK                            x       y       z     vdW  Elec       q    Type
REMARK                         _______ _______ _______ _____ _____    ______ ____
ROOT
ATOM      1  C   UNL     1      33.038 -23.526 -14.809  0.00  0.00    +0.122 C 
ATOM      2  C   UNL     1      34.459 -22.577 -16.542  0.00  0.00    +0.002 C 
ATOM      3  C   UNL     1      34.300 -23.143 -15.267  0.00  0.00    +0.020 C 
ATOM      4  C   UNL     1      33.322 -22.399 -17.367  0.00  0.00    +0.003 C 
ATOM      5  C   UNL     1      31.921 -23.350 -15.620  0.00  0.00    +0.020 C 
ATOM      6  C   UNL     1      32.060 -22.790 -16.890  0.00  0.00    +0.001 C 
ATOM      7  C   UNL     1      33.481 -21.833 -18.642  0.00  0.00    +0.037 C 
ATOM      8  C   UNL     1      35.721 -22.185 -17.018  0.00  0.00    +0.003 C 
ATOM      9  C   UNL     1      34.742 -21.450 -19.098  0.00  0.00    +0.139 C 
ATOM     10  C   UNL     1      35.860 -21.625 -18.288  0.00  0.00    +0.037 C 
ENDROOT
BRANCH   1  11
ATOM     11  S   UNL     1      32.861 -24.236 -13.200  0.00  0.00    +0.061 S 
ATOM     12  O   UNL     1      32.430 -23.189 -12.295  0.00  0.00    -0.153 OA
ATOM     13  O   UNL     1      32.067 -25.440 -13.355  0.00  0.00    -0.153 OA
BRANCH  11  14
ATOM     14  N   UNL     1      34.462 -24.676 -12.834  0.00  0.00    -0.170 NA
ATOM     15  H   UNL     1      34.978 -24.666 -13.713  0.00  0.00    +0.149 HD
BRANCH  14  16
ATOM     16  C   UNL     1      35.245 -23.873 -11.869  0.00  0.00    +0.174 C 
BRANCH  16  18
ATOM     17  O   UNL     1      35.542 -24.588  -9.563  0.00  0.00    -0.249 OA
ATOM     18  C   UNL     1      35.703 -24.790 -10.760  0.00  0.00    +0.330 C 
BRANCH  18  19
ATOM     19  O   UNL     1      36.313 -25.905 -11.238  0.00  0.00    -0.479 OA
ATOM     20  H   UNL     1      37.246 -25.930 -11.321  0.00  0.00    +0.295 HD
ENDBRANCH  18  19
ENDBRANCH  16  18
BRANCH  16  21
ATOM     21  C   UNL     1      36.374 -23.125 -12.587  0.00  0.00    +0.040 C 
BRANCH  21  22
ATOM     22  C   UNL     1      37.627 -23.941 -12.920  0.00  0.00    +0.111 C 
BRANCH  22  24
ATOM     23  O   UNL     1      36.824 -25.159 -14.845  0.00  0.00    -0.250 OA
ATOM     24  C   UNL     1      37.674 -24.434 -14.344  0.00  0.00    +0.314 C 
BRANCH  24  25
ATOM     25  O   UNL     1      38.773 -24.002 -15.014  0.00  0.00    -0.480 OA
ATOM     26  H   UNL     1      39.271 -24.603 -15.532  0.00  0.00    +0.295 HD
ENDBRANCH  24  25
ENDBRANCH  22  24
ENDBRANCH  21  22
ENDBRANCH  16  21
ENDBRANCH  14  16
ENDBRANCH  11  14
ENDBRANCH   1  11
BRANCH   9  27
ATOM     27  O   UNL     1      34.880 -20.905 -20.338  0.00  0.00    -0.471 OA
BRANCH  27  28
ATOM     28  C   UNL     1      35.914 -19.937 -20.512  0.00  0.00    +0.232 C 
BRANCH  28  29
ATOM     29  C   UNL     1      35.481 -18.937 -21.542  0.00  0.00    +0.021 C 
ATOM     30  C   UNL     1      34.883 -19.369 -22.726  0.00  0.00    -0.000 C 
ATOM     31  C   UNL     1      35.680 -17.574 -21.318  0.00  0.00    -0.000 C 
ATOM     32  C   UNL     1      34.481 -18.439 -23.684  0.00  0.00    +0.010 C 
ATOM     33  C   UNL     1      35.278 -16.644 -22.277  0.00  0.00    +0.010 C 
ATOM     34  C   UNL     1      34.680 -17.077 -23.460  0.00  0.00    +0.068 C 
BRANCH  34  36
ATOM     35  N   UNL     1      33.932 -15.350 -25.240  0.00  0.00    -0.191 NA
ATOM     36  C   UNL     1      34.267 -16.124 -24.442  0.00  0.00    +0.100 C 
ENDBRANCH  34  36
ENDBRANCH  28  29
ENDBRANCH  27  28
ENDBRANCH   9  27
TORSDOF 13
ENDMDL
MODEL 6
REMARK VINA RESULT:     -11.0      3.731      5.862
REMARK  Name = 24755471
REMARK  13 active torsions:
REMARK  status: ('A' for Active; 'I' for Inactive)
REMARK    1  A    between atoms: C_1  and  S_11
REMARK    2  A    between atoms: C_9  and  O_27
REMARK    3  A    between atoms: S_11  and  N_14
REMARK    4  A    between atoms: N_14  and  C_16
REMARK    5  A    between atoms: C_16  and  C_18
REMARK    6  A    between atoms: C_16  and  C_21
REMARK    7  A    between atoms: C_18  and  O_19
REMARK    8  A    between atoms: C_21  and  C_22
REMARK    9  A    between atoms: C_22  and  C_24
REMARK   10  A    between atoms: C_24  and  O_25
REMARK   11  A    between atoms: O_27  and  C_28
REMARK   12  A    between atoms: C_28  and  C_29
REMARK   13  A    between atoms: C_34  and  C_36
REMARK                            x       y       z     vdW  Elec       q    Type
REMARK                         _______ _______ _______ _____ _____    ______ ____
ROOT
ATOM      1  C   UNL     1      35.722 -22.781 -16.075  0.00  0.00    +0.122 C 
ATOM      2  C   UNL     1      34.495 -21.892 -17.979  0.00  0.00    +0.002 C 
ATOM      3  C   UNL     1      34.525 -22.612 -16.775  0.00  0.00    +0.020 C 
ATOM      4  C   UNL     1      35.693 -21.333 -18.483  0.00  0.00    +0.003 C 
ATOM      5  C   UNL     1      36.900 -22.232 -16.571  0.00  0.00    +0.020 C 
ATOM      6  C   UNL     1      36.888 -21.513 -17.766  0.00  0.00    +0.001 C 
ATOM      7  C   UNL     1      35.663 -20.613 -19.687  0.00  0.00    +0.037 C 
ATOM      8  C   UNL     1      33.299 -21.713 -18.696  0.00  0.00    +0.003 C 
ATOM      9  C   UNL     1      34.467 -20.445 -20.386  0.00  0.00    +0.139 C 
ATOM     10  C   UNL     1      33.287 -20.994 -19.892  0.00  0.00    +0.037 C 
ENDROOT
BRANCH   1  11
ATOM     11  S   UNL     1      35.738 -23.692 -14.560  0.00  0.00    +0.061 S 
ATOM     12  O   UNL     1      36.372 -22.867 -13.551  0.00  0.00    -0.153 OA
ATOM     13  O   UNL     1      34.394 -24.194 -14.355  0.00  0.00    -0.153 OA
BRANCH  11  14
ATOM     14  N   UNL     1      36.760 -24.995 -14.948  0.00  0.00    -0.170 NA
ATOM     15  H   UNL     1      37.686 -24.603 -15.111  0.00  0.00    +0.149 HD
BRANCH  14  16
ATOM     16  C   UNL     1      36.928 -26.110 -13.990  0.00  0.00    +0.174 C 
BRANCH  16  18
ATOM     17  O   UNL     1      36.860 -27.542 -15.955  0.00  0.00    -0.249 OA
ATOM     18  C   UNL     1      36.742 -27.405 -14.744  0.00  0.00    +0.330 C 
BRANCH  18  19
ATOM     19  O   UNL     1      36.441 -28.439 -13.917  0.00  0.00    -0.479 OA
ATOM     20  H   UNL     1      35.779 -29.056 -14.159  0.00  0.00    +0.295 HD
ENDBRANCH  18  19
ENDBRANCH  16  18
BRANCH  16  21
ATOM     21  C   UNL     1      38.268 -25.986 -13.255  0.00  0.00    +0.040 C 
BRANCH  21  22
ATOM     22  C   UNL     1      39.455 -26.731 -13.873  0.00  0.00    +0.111 C 
BRANCH  22  24
ATOM     23  O   UNL     1      40.905 -24.868 -14.386  0.00  0.00    -0.250 OA
ATOM     24  C   UNL     1      40.317 -25.873 -14.764  0.00  0.00    +0.314 C 
BRANCH  24  25
ATOM     25  O   UNL     1      40.362 -26.324 -16.044  0.00  0.00    -0.480 OA
ATOM     26  H   UNL     1      39.592 -26.683 -16.440  0.00  0.00    +0.295 HD
ENDBRANCH  24  25
ENDBRANCH  22  24
ENDBRANCH  21  22
ENDBRANCH  16  21
ENDBRANCH  14  16
ENDBRANCH  11  14
ENDBRANCH   1  11
BRANCH   9  27
ATOM     27  O   UNL     1      34.453 -19.742 -21.552  0.00  0.00    -0.471 OA
BRANCH  27  28
ATOM     28  C   UNL     1      35.562 -18.880 -21.803  0.00  0.00    +0.232 C 
BRANCH  28  29
ATOM     29  C   UNL     1      35.080 -17.663 -22.536  0.00  0.00    +0.021 C 
ATOM     30  C   UNL     1      35.169 -16.407 -21.936  0.00  0.00    -0.000 C 
ATOM     31  C   UNL     1      34.542 -17.787 -23.817  0.00  0.00    -0.000 C 
ATOM     32  C   UNL     1      34.721 -15.276 -22.617  0.00  0.00    +0.010 C 
ATOM     33  C   UNL     1      34.093 -16.656 -24.498  0.00  0.00    +0.010 C 
ATOM     34  C   UNL     1      34.183 -15.400 -23.898  0.00  0.00    +0.068 C 
BRANCH  34  36
ATOM     35  N   UNL     1      33.351 -13.299 -25.163  0.00  0.00    -0.191 NA
ATOM     36  C   UNL     1      33.724 -14.240 -24.596  0.00  0.00    +0.100 C 
ENDBRANCH  34  36
ENDBRANCH  28  29
ENDBRANCH  27  28
ENDBRANCH   9  27
TORSDOF 13
ENDMDL
MODEL 7
REMARK VINA RESULT:     -10.8      3.357      5.193
REMARK  Name = 24755471
REMARK  13 active torsions:
REMARK  status: ('A' for Active; 'I' for Inactive)
REMARK    1  A    between atoms: C_1  and  S_11
REMARK    2  A    between atoms: C_9  and  O_27
REMARK    3  A    between atoms: S_11  and  N_14
REMARK    4  A    between atoms: N_14  and  C_16
REMARK    5  A    between atoms: C_16  and  C_18
REMARK    6  A    between atoms: C_16  and  C_21
REMARK    7  A    between atoms: C_18  and  O_19
REMARK    8  A    between atoms: C_21  and  C_22
REMARK    9  A    between atoms: C_22  and  C_24
REMARK   10  A    between atoms: C_24  and  O_25
REMARK   11  A    between atoms: O_27  and  C_28
REMARK   12  A    between atoms: C_28  and  C_29
REMARK   13  A    between atoms: C_34  and  C_36
REMARK                            x       y       z     vdW  Elec       q    Type
REMARK                         _______ _______ _______ _____ _____    ______ ____
ROOT
ATOM      1  C   UNL     1      34.856 -23.164 -16.118  0.00  0.00    +0.122 C 
ATOM      2  C   UNL     1      35.484 -21.755 -17.999  0.00  0.00    +0.002 C 
ATOM      3  C   UNL     1      35.827 -22.466 -16.838  0.00  0.00    +0.020 C 
ATOM      4  C   UNL     1      34.139 -21.753 -18.438  0.00  0.00    +0.003 C 
ATOM      5  C   UNL     1      33.534 -23.161 -16.549  0.00  0.00    +0.020 C 
ATOM      6  C   UNL     1      33.175 -22.461 -17.701  0.00  0.00    +0.001 C 
ATOM      7  C   UNL     1      33.796 -21.042 -19.599  0.00  0.00    +0.037 C 
ATOM      8  C   UNL     1      36.448 -21.046 -18.736  0.00  0.00    +0.003 C 
ATOM      9  C   UNL     1      34.767 -20.344 -20.318  0.00  0.00    +0.139 C 
ATOM     10  C   UNL     1      36.090 -20.345 -19.888  0.00  0.00    +0.037 C 
ENDROOT
BRANCH   1  11
ATOM     11  S   UNL     1      35.309 -24.053 -14.658  0.00  0.00    +0.061 S 
ATOM     12  O   UNL     1      34.636 -23.434 -13.532  0.00  0.00    -0.153 OA
ATOM     13  O   UNL     1      35.112 -25.461 -14.943  0.00  0.00    -0.153 OA
BRANCH  11  14
ATOM     14  N   UNL     1      36.977 -23.738 -14.561  0.00  0.00    -0.170 NA
ATOM     15  H   UNL     1      37.076 -22.768 -14.263  0.00  0.00    +0.149 HD
BRANCH  14  16
ATOM     16  C   UNL     1      37.830 -24.551 -13.666  0.00  0.00    +0.174 C 
BRANCH  16  18
ATOM     17  O   UNL     1      40.204 -25.080 -13.704  0.00  0.00    -0.249 OA
ATOM     18  C   UNL     1      39.232 -24.550 -14.228  0.00  0.00    +0.330 C 
BRANCH  18  19
ATOM     19  O   UNL     1      39.306 -23.900 -15.418  0.00  0.00    -0.479 OA
ATOM     20  H   UNL     1      40.131 -23.589 -15.732  0.00  0.00    +0.295 HD
ENDBRANCH  18  19
ENDBRANCH  16  18
BRANCH  16  21
ATOM     21  C   UNL     1      37.721 -24.048 -12.221  0.00  0.00    +0.040 C 
BRANCH  21  22
ATOM     22  C   UNL     1      37.339 -25.088 -11.165  0.00  0.00    +0.111 C 
BRANCH  22  24
ATOM     23  O   UNL     1      36.127 -24.331  -9.217  0.00  0.00    -0.250 OA
ATOM     24  C   UNL     1      36.106 -24.730 -10.374  0.00  0.00    +0.314 C 
BRANCH  24  25
ATOM     25  O   UNL     1      34.959 -24.914 -11.077  0.00  0.00    -0.480 OA
ATOM     26  H   UNL     1      34.828 -24.459 -11.885  0.00  0.00    +0.295 HD
ENDBRANCH  24  25
ENDBRANCH  22  24
ENDBRANCH  21  22
ENDBRANCH  16  21
ENDBRANCH  14  16
ENDBRANCH  11  14
ENDBRANCH   1  11
BRANCH   9  27
ATOM     27  O   UNL     1      34.419 -19.661 -21.444  0.00  0.00    -0.471 OA
BRANCH  27  28
ATOM     28  C   UNL     1      35.477 -19.077 -22.202  0.00  0.00    +0.232 C 
BRANCH  28  29
ATOM     29  C   UNL     1      35.074 -17.694 -22.622  0.00  0.00    +0.021 C 
ATOM     30  C   UNL     1      34.636 -17.461 -23.926  0.00  0.00    -0.000 C 
ATOM     31  C   UNL     1      35.138 -16.641 -21.709  0.00  0.00    -0.000 C 
ATOM     32  C   UNL     1      34.262 -16.176 -24.316  0.00  0.00    +0.010 C 
ATOM     33  C   UNL     1      34.764 -15.356 -22.100  0.00  0.00    +0.010 C 
ATOM     34  C   UNL     1      34.326 -15.123 -23.404  0.00  0.00    +0.068 C 
BRANCH  34  36
ATOM     35  N   UNL     1      33.630 -12.737 -24.130  0.00  0.00    -0.191 NA
ATOM     36  C   UNL     1      33.942 -13.806 -23.804  0.00  0.00    +0.100 C 
ENDBRANCH  34  36
ENDBRANCH  28  29
ENDBRANCH  27  28
ENDBRANCH   9  27
TORSDOF 13
ENDMDL
MODEL 8
REMARK VINA RESULT:     -10.7      1.015      2.382
REMARK  Name = 24755471
REMARK  13 active torsions:
REMARK  status: ('A' for Active; 'I' for Inactive)
REMARK    1  A    between atoms: C_1  and  S_11
REMARK    2  A    between atoms: C_9  and  O_27
REMARK    3  A    between atoms: S_11  and  N_14
REMARK    4  A    between atoms: N_14  and  C_16
REMARK    5  A    between atoms: C_16  and  C_18
REMARK    6  A    between atoms: C_16  and  C_21
REMARK    7  A    between atoms: C_18  and  O_19
REMARK    8  A    between atoms: C_21  and  C_22
REMARK    9  A    between atoms: C_22  and  C_24
REMARK   10  A    between atoms: C_24  and  O_25
REMARK   11  A    between atoms: O_27  and  C_28
REMARK   12  A    between atoms: C_28  and  C_29
REMARK   13  A    between atoms: C_34  and  C_36
REMARK                            x       y       z     vdW  Elec       q    Type
REMARK                         _______ _______ _______ _____ _____    ______ ____
ROOT
ATOM      1  C   UNL     1      33.643 -21.837 -18.728  0.00  0.00    +0.122 C 
ATOM      2  C   UNL     1      35.209 -20.406 -19.920  0.00  0.00    +0.002 C 
ATOM      3  C   UNL     1      34.949 -21.408 -18.971  0.00  0.00    +0.020 C 
ATOM      4  C   UNL     1      34.130 -19.832 -20.634  0.00  0.00    +0.003 C 
ATOM      5  C   UNL     1      32.583 -21.272 -19.429  0.00  0.00    +0.020 C 
ATOM      6  C   UNL     1      32.823 -20.276 -20.377  0.00  0.00    +0.001 C 
ATOM      7  C   UNL     1      34.391 -18.830 -21.583  0.00  0.00    +0.037 C 
ATOM      8  C   UNL     1      36.517 -19.962 -20.176  0.00  0.00    +0.003 C 
ATOM      9  C   UNL     1      35.696 -18.402 -21.825  0.00  0.00    +0.139 C 
ATOM     10  C   UNL     1      36.757 -18.966 -21.123  0.00  0.00    +0.037 C 
ENDROOT
BRANCH   1  11
ATOM     11  S   UNL     1      33.337 -23.099 -17.528  0.00  0.00    +0.061 S 
ATOM     12  O   UNL     1      33.629 -24.379 -18.143  0.00  0.00    -0.153 OA
ATOM     13  O   UNL     1      34.019 -22.700 -16.312  0.00  0.00    -0.153 OA
BRANCH  11  14
ATOM     14  N   UNL     1      31.660 -22.956 -17.291  0.00  0.00    -0.170 NA
ATOM     15  H   UNL     1      31.240 -23.819 -17.635  0.00  0.00    +0.149 HD
BRANCH  14  16
ATOM     16  C   UNL     1      31.124 -22.732 -15.930  0.00  0.00    +0.174 C 
BRANCH  16  18
ATOM     17  O   UNL     1      28.805 -22.016 -16.092  0.00  0.00    -0.249 OA
ATOM     18  C   UNL     1      29.626 -22.918 -15.981  0.00  0.00    +0.330 C 
BRANCH  18  19
ATOM     19  O   UNL     1      29.270 -24.227 -15.909  0.00  0.00    -0.479 OA
ATOM     20  H   UNL     1      28.817 -24.549 -15.156  0.00  0.00    +0.295 HD
ENDBRANCH  18  19
ENDBRANCH  16  18
BRANCH  16  21
ATOM     21  C   UNL     1      31.844 -23.629 -14.917  0.00  0.00    +0.040 C 
BRANCH  21  22
ATOM     22  C   UNL     1      31.631 -23.293 -13.438  0.00  0.00    +0.111 C 
BRANCH  22  24
ATOM     23  O   UNL     1      30.367 -24.124 -11.555  0.00  0.00    -0.250 OA
ATOM     24  C   UNL     1      30.735 -24.265 -12.714  0.00  0.00    +0.314 C 
BRANCH  24  25
ATOM     25  O   UNL     1      30.388 -25.331 -13.480  0.00  0.00    -0.480 OA
ATOM     26  H   UNL     1      30.592 -25.335 -14.395  0.00  0.00    +0.295 HD
ENDBRANCH  24  25
ENDBRANCH  22  24
ENDBRANCH  21  22
ENDBRANCH  16  21
ENDBRANCH  14  16
ENDBRANCH  11  14
ENDBRANCH   1  11
BRANCH   9  27
ATOM     27  O   UNL     1      35.932 -17.431 -22.750  0.00  0.00    -0.471 OA
BRANCH  27  28
ATOM     28  C   UNL     1      34.884 -17.147 -23.675  0.00  0.00    +0.232 C 
BRANCH  28  29
ATOM     29  C   UNL     1      34.477 -15.710 -23.529  0.00  0.00    +0.021 C 
ATOM     30  C   UNL     1      33.842 -15.055 -24.584  0.00  0.00    -0.000 C 
ATOM     31  C   UNL     1      34.734 -15.030 -22.339  0.00  0.00    -0.000 C 
ATOM     32  C   UNL     1      33.464 -13.720 -24.448  0.00  0.00    +0.010 C 
ATOM     33  C   UNL     1      34.357 -13.695 -22.203  0.00  0.00    +0.010 C 
ATOM     34  C   UNL     1      33.722 -13.039 -23.258  0.00  0.00    +0.068 C 
BRANCH  34  36
ATOM     35  N   UNL     1      33.018 -10.559 -23.006  0.00  0.00    -0.191 NA
ATOM     36  C   UNL     1      33.333 -11.670 -23.119  0.00  0.00    +0.100 C 
ENDBRANCH  34  36
ENDBRANCH  28  29
ENDBRANCH  27  28
ENDBRANCH   9  27
TORSDOF 13
ENDMDL
MODEL 9
REMARK VINA RESULT:     -10.6      2.180      3.030
REMARK  Name = 24755471
REMARK  13 active torsions:
REMARK  status: ('A' for Active; 'I' for Inactive)
REMARK    1  A    between atoms: C_1  and  S_11
REMARK    2  A    between atoms: C_9  and  O_27
REMARK    3  A    between atoms: S_11  and  N_14
REMARK    4  A    between atoms: N_14  and  C_16
REMARK    5  A    between atoms: C_16  and  C_18
REMARK    6  A    between atoms: C_16  and  C_21
REMARK    7  A    between atoms: C_18  and  O_19
REMARK    8  A    between atoms: C_21  and  C_22
REMARK    9  A    between atoms: C_22  and  C_24
REMARK   10  A    between atoms: C_24  and  O_25
REMARK   11  A    between atoms: O_27  and  C_28
REMARK   12  A    between atoms: C_28  and  C_29
REMARK   13  A    between atoms: C_34  and  C_36
REMARK                            x       y       z     vdW  Elec       q    Type
REMARK                         _______ _______ _______ _____ _____    ______ ____
ROOT
ATOM      1  C   UNL     1      35.674 -22.619 -16.462  0.00  0.00    +0.122 C 
ATOM      2  C   UNL     1      35.963 -21.257 -18.458  0.00  0.00    +0.002 C 
ATOM      3  C   UNL     1      36.486 -21.847 -17.296  0.00  0.00    +0.020 C 
ATOM      4  C   UNL     1      34.599 -21.451 -18.780  0.00  0.00    +0.003 C 
ATOM      5  C   UNL     1      34.333 -22.809 -16.779  0.00  0.00    +0.020 C 
ATOM      6  C   UNL     1      33.797 -22.230 -17.930  0.00  0.00    +0.001 C 
ATOM      7  C   UNL     1      34.077 -20.860 -19.942  0.00  0.00    +0.037 C 
ATOM      8  C   UNL     1      36.766 -20.477 -19.308  0.00  0.00    +0.003 C 
ATOM      9  C   UNL     1      34.889 -20.089 -20.775  0.00  0.00    +0.139 C 
ATOM     10  C   UNL     1      36.230 -19.897 -20.458  0.00  0.00    +0.037 C 
ENDROOT
BRANCH   1  11
ATOM     11  S   UNL     1      36.352 -23.354 -15.004  0.00  0.00    +0.061 S 
ATOM     12  O   UNL     1      36.391 -24.789 -15.205  0.00  0.00    -0.153 OA
ATOM     13  O   UNL     1      37.566 -22.626 -14.690  0.00  0.00    -0.153 OA
BRANCH  11  14
ATOM     14  N   UNL     1      35.169 -22.978 -13.842  0.00  0.00    -0.170 NA
ATOM     15  H   UNL     1      34.390 -22.552 -14.343  0.00  0.00    +0.149 HD
BRANCH  14  16
ATOM     16  C   UNL     1      34.600 -24.049 -12.995  0.00  0.00    +0.174 C 
BRANCH  16  18
ATOM     17  O   UNL     1      36.178 -23.232 -11.334  0.00  0.00    -0.249 OA
ATOM     18  C   UNL     1      35.374 -24.081 -11.699  0.00  0.00    +0.330 C 
BRANCH  18  19
ATOM     19  O   UNL     1      35.066 -25.168 -10.945  0.00  0.00    -0.479 OA
ATOM     20  H   UNL     1      34.194 -25.282 -10.622  0.00  0.00    +0.295 HD
ENDBRANCH  18  19
ENDBRANCH  16  18
BRANCH  16  21
ATOM     21  C   UNL     1      33.088 -23.855 -12.831  0.00  0.00    +0.040 C 
BRANCH  21  22
ATOM     22  C   UNL     1      32.214 -24.292 -14.010  0.00  0.00    +0.111 C 
BRANCH  22  24
ATOM     23  O   UNL     1      30.046 -23.259 -14.275  0.00  0.00    -0.250 OA
ATOM     24  C   UNL     1      30.734 -24.133 -13.765  0.00  0.00    +0.314 C 
BRANCH  24  25
ATOM     25  O   UNL     1      30.243 -25.056 -12.899  0.00  0.00    -0.480 OA
ATOM     26  H   UNL     1      30.805 -25.436 -12.253  0.00  0.00    +0.295 HD
ENDBRANCH  24  25
ENDBRANCH  22  24
ENDBRANCH  21  22
ENDBRANCH  16  21
ENDBRANCH  14  16
ENDBRANCH  11  14
ENDBRANCH   1  11
BRANCH   9  27
ATOM     27  O   UNL     1      34.368 -19.525 -21.899  0.00  0.00    -0.471 OA
BRANCH  27  28
ATOM     28  C   UNL     1      35.288 -18.942 -22.819  0.00  0.00    +0.232 C 
BRANCH  28  29
ATOM     29  C   UNL     1      34.952 -17.491 -22.998  0.00  0.00    +0.021 C 
ATOM     30  C   UNL     1      35.130 -16.599 -21.940  0.00  0.00    -0.000 C 
ATOM     31  C   UNL     1      34.458 -17.034 -24.220  0.00  0.00    -0.000 C 
ATOM     32  C   UNL     1      34.816 -15.251 -22.106  0.00  0.00    +0.010 C 
ATOM     33  C   UNL     1      34.145 -15.686 -24.385  0.00  0.00    +0.010 C 
ATOM     34  C   UNL     1      34.323 -14.794 -23.328  0.00  0.00    +0.068 C 
BRANCH  34  36
ATOM     35  N   UNL     1      33.742 -12.288 -23.635  0.00  0.00    -0.191 NA
ATOM     36  C   UNL     1      34.002 -13.411 -23.497  0.00  0.00    +0.100 C 
ENDBRANCH  34  36
ENDBRANCH  28  29
ENDBRANCH  27  28
ENDBRANCH   9  27
TORSDOF 13
ENDMDL
