MODEL 1
REMARK VINA RESULT:     -11.0      0.000      0.000
REMARK  Name = 9911830
REMARK  5 active torsions:
REMARK  status: ('A' for Active; 'I' for Inactive)
REMARK    1  A    between atoms: C_2  and  O_20
REMARK    2  A    between atoms: C_3  and  N_10
REMARK    3  A    between atoms: O_20  and  C_24
REMARK    4  A    between atoms: C_26  and  O_31
REMARK    5  A    between atoms: C_28  and  O_33
REMARK                            x       y       z     vdW  Elec       q    Type
REMARK                         _______ _______ _______ _____ _____    ______ ____
ROOT
ATOM      1 CL   UNL     1      34.632 -16.446 -24.973  0.00  0.00    -0.081 Cl
ATOM      2  C   UNL     1      35.372 -18.170 -21.467  0.00  0.00    +0.146 C 
ATOM      3  C   UNL     1      34.841 -15.612 -22.382  0.00  0.00    +0.062 C 
ATOM      4  C   UNL     1      35.162 -17.966 -22.819  0.00  0.00    +0.050 C 
ATOM      5  C   UNL     1      35.324 -17.124 -20.561  0.00  0.00    +0.039 C 
ATOM      6  C   UNL     1      34.894 -16.678 -23.281  0.00  0.00    +0.074 C 
ATOM      7  C   UNL     1      35.055 -15.836 -21.023  0.00  0.00    +0.019 C 
ENDROOT
BRANCH   3  10
ATOM      8  O   UNL     1      31.591  -9.600 -21.954  0.00  0.00    -0.357 OA
ATOM      9  O   UNL     1      32.948 -13.576 -21.292  0.00  0.00    -0.252 OA
ATOM     10  N   UNL     1      34.573 -14.309 -22.812  0.00  0.00    -0.267 N 
ATOM     11  N   UNL     1      33.709 -12.179 -23.005  0.00  0.00    -0.251 N 
ATOM     12  N   UNL     1      32.092 -10.888 -21.812  0.00  0.00    -0.062 NA
ATOM     13  C   UNL     1      33.666 -13.371 -22.266  0.00  0.00    +0.309 C 
ATOM     14  C   UNL     1      32.964 -10.994 -22.794  0.00  0.00    +0.177 C 
ATOM     15  C   UNL     1      33.084  -9.866 -23.588  0.00  0.00    +0.073 C 
ATOM     16  C   UNL     1      32.189  -9.001 -23.016  0.00  0.00    +0.156 C 
ATOM     17  C   UNL     1      31.774  -7.624 -23.312  0.00  0.00    +0.075 C 
ATOM     18  H   UNL     1      35.083 -14.004 -23.596  0.00  0.00    +0.156 HD
ATOM     19  H   UNL     1      34.337 -12.164 -23.764  0.00  0.00    +0.158 HD
ENDBRANCH   3  10
BRANCH   2  20
ATOM     20  O   UNL     1      35.640 -19.446 -21.008  0.00  0.00    -0.453 OA
BRANCH  20  24
ATOM     21  N   UNL     1      32.493 -21.489 -19.242  0.00  0.00    -0.244 NA
ATOM     22  C   UNL     1      34.837 -20.934 -19.283  0.00  0.00    +0.055 C 
ATOM     23  C   UNL     1      33.730 -21.605 -18.725  0.00  0.00    +0.087 C 
ATOM     24  C   UNL     1      34.620 -20.128 -20.410  0.00  0.00    +0.148 C 
ATOM     25  C   UNL     1      36.115 -21.078 -18.717  0.00  0.00    +0.045 C 
ATOM     26  C   UNL     1      36.302 -21.884 -17.598  0.00  0.00    +0.173 C 
ATOM     27  C   UNL     1      33.946 -22.406 -17.606  0.00  0.00    +0.059 C 
ATOM     28  C   UNL     1      35.216 -22.548 -17.042  0.00  0.00    +0.174 C 
ATOM     29  C   UNL     1      33.347 -20.007 -20.946  0.00  0.00    +0.058 C 
ATOM     30  C   UNL     1      32.326 -20.702 -20.330  0.00  0.00    +0.102 C 
BRANCH  26  31
ATOM     31  O   UNL     1      37.547 -22.013 -17.060  0.00  0.00    -0.468 OA
ATOM     32  C   UNL     1      37.942 -21.040 -16.095  0.00  0.00    +0.253 C 
ENDBRANCH  26  31
BRANCH  28  33
ATOM     33  O   UNL     1      35.376 -23.343 -15.946  0.00  0.00    -0.468 OA
ATOM     34  C   UNL     1      34.342 -23.311 -14.966  0.00  0.00    +0.253 C 
ENDBRANCH  28  33
ENDBRANCH  20  24
ENDBRANCH   2  20
TORSDOF 5
ENDMDL
MODEL 2
REMARK VINA RESULT:     -10.8      5.003     13.850
REMARK  Name = 9911830
REMARK  5 active torsions:
REMARK  status: ('A' for Active; 'I' for Inactive)
REMARK    1  A    between atoms: C_2  and  O_20
REMARK    2  A    between atoms: C_3  and  N_10
REMARK    3  A    between atoms: O_20  and  C_24
REMARK    4  A    between atoms: C_26  and  O_31
REMARK    5  A    between atoms: C_28  and  O_33
REMARK                            x       y       z     vdW  Elec       q    Type
REMARK                         _______ _______ _______ _____ _____    ______ ____
ROOT
ATOM      1 CL   UNL     1      31.636 -11.056 -21.764  0.00  0.00    -0.081 Cl
ATOM      2  C   UNL     1      33.996  -8.000 -22.711  0.00  0.00    +0.146 C 
ATOM      3  C   UNL     1      33.751 -10.658 -23.443  0.00  0.00    +0.062 C 
ATOM      4  C   UNL     1      33.006  -8.771 -22.130  0.00  0.00    +0.050 C 
ATOM      5  C   UNL     1      34.868  -8.526 -23.649  0.00  0.00    +0.039 C 
ATOM      6  C   UNL     1      32.881 -10.110 -22.499  0.00  0.00    +0.074 C 
ATOM      7  C   UNL     1      34.743  -9.865 -24.018  0.00  0.00    +0.019 C 
ENDROOT
BRANCH   3  10
ATOM      8  O   UNL     1      35.052 -17.340 -22.707  0.00  0.00    -0.357 OA
ATOM      9  O   UNL     1      34.884 -13.122 -22.193  0.00  0.00    -0.252 OA
ATOM     10  N   UNL     1      33.652 -11.996 -23.836  0.00  0.00    -0.267 N 
ATOM     11  N   UNL     1      33.860 -14.291 -23.940  0.00  0.00    -0.251 N 
ATOM     12  N   UNL     1      34.943 -15.958 -22.617  0.00  0.00    -0.062 NA
ATOM     13  C   UNL     1      34.204 -13.140 -23.214  0.00  0.00    +0.309 C 
ATOM     14  C   UNL     1      34.208 -15.634 -23.661  0.00  0.00    +0.177 C 
ATOM     15  C   UNL     1      33.814 -16.703 -24.448  0.00  0.00    +0.073 C 
ATOM     16  C   UNL     1      34.375 -17.773 -23.802  0.00  0.00    +0.156 C 
ATOM     17  C   UNL     1      34.385 -19.220 -24.050  0.00  0.00    +0.075 C 
ATOM     18  H   UNL     1      33.127 -12.164 -24.652  0.00  0.00    +0.156 HD
ATOM     19  H   UNL     1      33.307 -14.146 -24.743  0.00  0.00    +0.158 HD
ENDBRANCH   3  10
BRANCH   2  20
ATOM     20  O   UNL     1      34.122  -6.672 -22.345  0.00  0.00    -0.453 OA
BRANCH  20  24
ATOM     21  N   UNL     1      30.741  -4.287 -22.617  0.00  0.00    -0.244 NA
ATOM     22  C   UNL     1      32.775  -5.116 -23.607  0.00  0.00    +0.055 C 
ATOM     23  C   UNL     1      31.610  -4.323 -23.645  0.00  0.00    +0.087 C 
ATOM     24  C   UNL     1      33.016  -5.879 -22.457  0.00  0.00    +0.148 C 
ATOM     25  C   UNL     1      33.660  -5.129 -24.699  0.00  0.00    +0.045 C 
ATOM     26  C   UNL     1      33.396  -4.361 -25.829  0.00  0.00    +0.173 C 
ATOM     27  C   UNL     1      31.370  -3.564 -24.788  0.00  0.00    +0.059 C 
ATOM     28  C   UNL     1      32.250  -3.578 -25.873  0.00  0.00    +0.174 C 
ATOM     29  C   UNL     1      32.123  -5.844 -21.396  0.00  0.00    +0.058 C 
ATOM     30  C   UNL     1      31.010  -5.039 -21.525  0.00  0.00    +0.102 C 
BRANCH  26  31
ATOM     31  O   UNL     1      34.264  -4.386 -26.879  0.00  0.00    -0.468 OA
ATOM     32  C   UNL     1      35.627  -4.070 -26.601  0.00  0.00    +0.253 C 
ENDBRANCH  26  31
BRANCH  28  33
ATOM     33  O   UNL     1      31.971  -2.818 -26.970  0.00  0.00    -0.468 OA
ATOM     34  C   UNL     1      31.000  -1.786 -26.813  0.00  0.00    +0.253 C 
ENDBRANCH  28  33
ENDBRANCH  20  24
ENDBRANCH   2  20
TORSDOF 5
ENDMDL
MODEL 3
REMARK VINA RESULT:     -10.8      3.695     10.340
REMARK  Name = 9911830
REMARK  5 active torsions:
REMARK  status: ('A' for Active; 'I' for Inactive)
REMARK    1  A    between atoms: C_2  and  O_20
REMARK    2  A    between atoms: C_3  and  N_10
REMARK    3  A    between atoms: O_20  and  C_24
REMARK    4  A    between atoms: C_26  and  O_31
REMARK    5  A    between atoms: C_28  and  O_33
REMARK                            x       y       z     vdW  Elec       q    Type
REMARK                         _______ _______ _______ _____ _____    ______ ____
ROOT
ATOM      1 CL   UNL     1      36.791 -22.008 -17.613  0.00  0.00    -0.081 Cl
ATOM      2  C   UNL     1      35.491 -19.738 -20.607  0.00  0.00    +0.146 C 
ATOM      3  C   UNL     1      34.372 -21.460 -18.752  0.00  0.00    +0.062 C 
ATOM      4  C   UNL     1      36.312 -20.367 -19.688  0.00  0.00    +0.050 C 
ATOM      5  C   UNL     1      34.123 -19.950 -20.621  0.00  0.00    +0.039 C 
ATOM      6  C   UNL     1      35.748 -21.234 -18.753  0.00  0.00    +0.074 C 
ATOM      7  C   UNL     1      33.559 -20.817 -19.685  0.00  0.00    +0.019 C 
ENDROOT
BRANCH   3  10
ATOM      8  O   UNL     1      29.030 -23.793 -15.158  0.00  0.00    -0.357 OA
ATOM      9  O   UNL     1      31.545 -21.604 -17.798  0.00  0.00    -0.252 OA
ATOM     10  N   UNL     1      33.775 -22.322 -17.827  0.00  0.00    -0.267 N 
ATOM     11  N   UNL     1      32.253 -23.384 -16.457  0.00  0.00    -0.251 N 
ATOM     12  N   UNL     1      29.923 -23.134 -15.993  0.00  0.00    -0.062 NA
ATOM     13  C   UNL     1      32.427 -22.359 -17.400  0.00  0.00    +0.309 C 
ATOM     14  C   UNL     1      31.065 -23.758 -15.785  0.00  0.00    +0.177 C 
ATOM     15  C   UNL     1      31.002 -24.792 -14.866  0.00  0.00    +0.073 C 
ATOM     16  C   UNL     1      29.684 -24.779 -14.491  0.00  0.00    +0.156 C 
ATOM     17  C   UNL     1      28.884 -25.582 -13.558  0.00  0.00    +0.075 C 
ATOM     18  H   UNL     1      34.371 -22.992 -17.420  0.00  0.00    +0.156 HD
ATOM     19  H   UNL     1      33.057 -23.910 -16.237  0.00  0.00    +0.158 HD
ENDBRANCH   3  10
BRANCH   2  20
ATOM     20  O   UNL     1      36.048 -18.879 -21.537  0.00  0.00    -0.453 OA
BRANCH  20  24
ATOM     21  N   UNL     1      33.868 -18.165 -24.991  0.00  0.00    -0.244 NA
ATOM     22  C   UNL     1      34.870 -17.329 -22.965  0.00  0.00    +0.055 C 
ATOM     23  C   UNL     1      34.134 -17.145 -24.153  0.00  0.00    +0.087 C 
ATOM     24  C   UNL     1      35.329 -18.620 -22.667  0.00  0.00    +0.148 C 
ATOM     25  C   UNL     1      35.129 -16.241 -22.114  0.00  0.00    +0.045 C 
ATOM     26  C   UNL     1      34.662 -14.970 -22.434  0.00  0.00    +0.173 C 
ATOM     27  C   UNL     1      33.678 -15.862 -24.449  0.00  0.00    +0.059 C 
ATOM     28  C   UNL     1      33.935 -14.781 -23.603  0.00  0.00    +0.174 C 
ATOM     29  C   UNL     1      35.056 -19.673 -23.528  0.00  0.00    +0.058 C 
ATOM     30  C   UNL     1      34.328 -19.395 -24.667  0.00  0.00    +0.102 C 
BRANCH  26  31
ATOM     31  O   UNL     1      34.922 -13.926 -21.599  0.00  0.00    -0.468 OA
ATOM     32  C   UNL     1      34.050 -13.755 -20.482  0.00  0.00    +0.253 C 
ENDBRANCH  26  31
BRANCH  28  33
ATOM     33  O   UNL     1      33.469 -13.544 -23.937  0.00  0.00    -0.468 OA
ATOM     34  C   UNL     1      33.464 -13.205 -25.322  0.00  0.00    +0.253 C 
ENDBRANCH  28  33
ENDBRANCH  20  24
ENDBRANCH   2  20
TORSDOF 5
ENDMDL
MODEL 4
REMARK VINA RESULT:     -10.2      2.394      3.871
REMARK  Name = 9911830
REMARK  5 active torsions:
REMARK  status: ('A' for Active; 'I' for Inactive)
REMARK    1  A    between atoms: C_2  and  O_20
REMARK    2  A    between atoms: C_3  and  N_10
REMARK    3  A    between atoms: O_20  and  C_24
REMARK    4  A    between atoms: C_26  and  O_31
REMARK    5  A    between atoms: C_28  and  O_33
REMARK                            x       y       z     vdW  Elec       q    Type
REMARK                         _______ _______ _______ _____ _____    ______ ____
ROOT
ATOM      1 CL   UNL     1      37.633 -18.528 -21.413  0.00  0.00    -0.081 Cl
ATOM      2  C   UNL     1      35.459 -21.173 -19.392  0.00  0.00    +0.146 C 
ATOM      3  C   UNL     1      34.979 -19.126 -21.192  0.00  0.00    +0.062 C 
ATOM      4  C   UNL     1      36.527 -20.450 -19.892  0.00  0.00    +0.050 C 
ATOM      5  C   UNL     1      34.156 -20.897 -19.771  0.00  0.00    +0.039 C 
ATOM      6  C   UNL     1      36.286 -19.419 -20.799  0.00  0.00    +0.074 C 
ATOM      7  C   UNL     1      33.915 -19.866 -20.678  0.00  0.00    +0.019 C 
ENDROOT
BRANCH   3  10
ATOM      8  O   UNL     1      34.320 -12.535 -22.930  0.00  0.00    -0.357 OA
ATOM      9  O   UNL     1      34.994 -16.163 -20.815  0.00  0.00    -0.252 OA
ATOM     10  N   UNL     1      34.704 -18.100 -22.101  0.00  0.00    -0.267 N 
ATOM     11  N   UNL     1      34.383 -16.031 -23.069  0.00  0.00    -0.251 N 
ATOM     12  N   UNL     1      34.521 -13.767 -22.320  0.00  0.00    -0.062 NA
ATOM     13  C   UNL     1      34.723 -16.702 -21.884  0.00  0.00    +0.309 C 
ATOM     14  C   UNL     1      34.286 -14.635 -23.283  0.00  0.00    +0.177 C 
ATOM     15  C   UNL     1      33.940 -14.072 -24.500  0.00  0.00    +0.073 C 
ATOM     16  C   UNL     1      33.975 -12.730 -24.229  0.00  0.00    +0.156 C 
ATOM     17  C   UNL     1      33.724 -11.525 -25.029  0.00  0.00    +0.075 C 
ATOM     18  H   UNL     1      34.468 -18.388 -23.012  0.00  0.00    +0.156 HD
ATOM     19  H   UNL     1      34.190 -16.601 -23.848  0.00  0.00    +0.158 HD
ENDBRANCH   3  10
BRANCH   2  20
ATOM     20  O   UNL     1      35.696 -22.195 -18.491  0.00  0.00    -0.453 OA
BRANCH  20  24
ATOM     21  N   UNL     1      32.669 -23.031 -15.782  0.00  0.00    -0.244 NA
ATOM     22  C   UNL     1      35.019 -22.763 -16.243  0.00  0.00    +0.055 C 
ATOM     23  C   UNL     1      33.950 -23.040 -15.367  0.00  0.00    +0.087 C 
ATOM     24  C   UNL     1      34.717 -22.474 -17.581  0.00  0.00    +0.148 C 
ATOM     25  C   UNL     1      36.344 -22.781 -15.775  0.00  0.00    +0.045 C 
ATOM     26  C   UNL     1      36.616 -23.072 -14.442  0.00  0.00    +0.173 C 
ATOM     27  C   UNL     1      34.250 -23.328 -14.038  0.00  0.00    +0.059 C 
ATOM     28  C   UNL     1      35.567 -23.345 -13.572  0.00  0.00    +0.174 C 
ATOM     29  C   UNL     1      33.398 -22.464 -18.012  0.00  0.00    +0.058 C 
ATOM     30  C   UNL     1      32.420 -22.747 -17.081  0.00  0.00    +0.102 C 
BRANCH  26  31
ATOM     31  O   UNL     1      37.906 -23.085 -14.004  0.00  0.00    -0.468 OA
ATOM     32  C   UNL     1      38.672 -24.256 -14.277  0.00  0.00    +0.253 C 
ENDBRANCH  26  31
BRANCH  28  33
ATOM     33  O   UNL     1      35.810 -23.632 -12.262  0.00  0.00    -0.468 OA
ATOM     34  C   UNL     1      35.962 -25.007 -11.916  0.00  0.00    +0.253 C 
ENDBRANCH  28  33
ENDBRANCH  20  24
ENDBRANCH   2  20
TORSDOF 5
ENDMDL
MODEL 5
REMARK VINA RESULT:      -9.9      4.961     13.893
REMARK  Name = 9911830
REMARK  5 active torsions:
REMARK  status: ('A' for Active; 'I' for Inactive)
REMARK    1  A    between atoms: C_2  and  O_20
REMARK    2  A    between atoms: C_3  and  N_10
REMARK    3  A    between atoms: O_20  and  C_24
REMARK    4  A    between atoms: C_26  and  O_31
REMARK    5  A    between atoms: C_28  and  O_33
REMARK                            x       y       z     vdW  Elec       q    Type
REMARK                         _______ _______ _______ _____ _____    ______ ____
ROOT
ATOM      1 CL   UNL     1      31.833 -11.086 -22.003  0.00  0.00    -0.081 Cl
ATOM      2  C   UNL     1      34.206  -8.102 -23.133  0.00  0.00    +0.146 C 
ATOM      3  C   UNL     1      33.898 -10.780 -23.762  0.00  0.00    +0.062 C 
ATOM      4  C   UNL     1      33.223  -8.837 -22.494  0.00  0.00    +0.050 C 
ATOM      5  C   UNL     1      35.039  -8.675 -24.079  0.00  0.00    +0.039 C 
ATOM      6  C   UNL     1      33.067 -10.186 -22.811  0.00  0.00    +0.074 C 
ATOM      7  C   UNL     1      34.882 -10.024 -24.396  0.00  0.00    +0.019 C 
ENDROOT
BRANCH   3  10
ATOM      8  O   UNL     1      34.941 -17.466 -22.708  0.00  0.00    -0.357 OA
ATOM      9  O   UNL     1      34.901 -13.226 -22.372  0.00  0.00    -0.252 OA
ATOM     10  N   UNL     1      33.766 -12.130 -24.104  0.00  0.00    -0.267 N 
ATOM     11  N   UNL     1      33.899 -14.432 -24.106  0.00  0.00    -0.251 N 
ATOM     12  N   UNL     1      34.877 -16.078 -22.679  0.00  0.00    -0.062 NA
ATOM     13  C   UNL     1      34.257 -13.264 -23.416  0.00  0.00    +0.309 C 
ATOM     14  C   UNL     1      34.191 -15.773 -23.761  0.00  0.00    +0.177 C 
ATOM     15  C   UNL     1      33.788 -16.861 -24.518  0.00  0.00    +0.073 C 
ATOM     16  C   UNL     1      34.288 -17.921 -23.809  0.00  0.00    +0.156 C 
ATOM     17  C   UNL     1      34.257 -19.376 -23.997  0.00  0.00    +0.075 C 
ATOM     18  H   UNL     1      33.265 -12.314 -24.930  0.00  0.00    +0.156 HD
ATOM     19  H   UNL     1      33.380 -14.304 -24.934  0.00  0.00    +0.158 HD
ENDBRANCH   3  10
BRANCH   2  20
ATOM     20  O   UNL     1      34.363  -6.765 -22.818  0.00  0.00    -0.453 OA
BRANCH  20  24
ATOM     21  N   UNL     1      34.034  -4.046 -25.932  0.00  0.00    -0.244 NA
ATOM     22  C   UNL     1      33.233  -4.879 -23.818  0.00  0.00    +0.055 C 
ATOM     23  C   UNL     1      33.168  -3.981 -24.903  0.00  0.00    +0.087 C 
ATOM     24  C   UNL     1      34.235  -5.859 -23.832  0.00  0.00    +0.148 C 
ATOM     25  C   UNL     1      32.312  -4.782 -22.760  0.00  0.00    +0.045 C 
ATOM     26  C   UNL     1      31.328  -3.799 -22.772  0.00  0.00    +0.173 C 
ATOM     27  C   UNL     1      32.173  -3.007 -24.889  0.00  0.00    +0.059 C 
ATOM     28  C   UNL     1      31.258  -2.911 -23.838  0.00  0.00    +0.174 C 
ATOM     29  C   UNL     1      35.128  -5.929 -24.891  0.00  0.00    +0.058 C 
ATOM     30  C   UNL     1      34.986  -5.007 -25.908  0.00  0.00    +0.102 C 
BRANCH  26  31
ATOM     31  O   UNL     1      30.443  -3.719 -21.739  0.00  0.00    -0.468 OA
ATOM     32  C   UNL     1      30.529  -4.724 -20.731  0.00  0.00    +0.253 C 
ENDBRANCH  26  31
BRANCH  28  33
ATOM     33  O   UNL     1      30.302  -1.940 -23.870  0.00  0.00    -0.468 OA
ATOM     34  C   UNL     1      29.575  -1.785 -25.086  0.00  0.00    +0.253 C 
ENDBRANCH  28  33
ENDBRANCH  20  24
ENDBRANCH   2  20
TORSDOF 5
ENDMDL
MODEL 6
REMARK VINA RESULT:      -9.8      3.054      4.724
REMARK  Name = 9911830
REMARK  5 active torsions:
REMARK  status: ('A' for Active; 'I' for Inactive)
REMARK    1  A    between atoms: C_2  and  O_20
REMARK    2  A    between atoms: C_3  and  N_10
REMARK    3  A    between atoms: O_20  and  C_24
REMARK    4  A    between atoms: C_26  and  O_31
REMARK    5  A    between atoms: C_28  and  O_33
REMARK                            x       y       z     vdW  Elec       q    Type
REMARK                         _______ _______ _______ _____ _____    ______ ____
ROOT
ATOM      1 CL   UNL     1      37.731 -18.327 -20.953  0.00  0.00    -0.081 Cl
ATOM      2  C   UNL     1      35.308 -21.114 -19.481  0.00  0.00    +0.146 C 
ATOM      3  C   UNL     1      35.035 -18.620 -20.650  0.00  0.00    +0.062 C 
ATOM      4  C   UNL     1      36.441 -20.425 -19.876  0.00  0.00    +0.050 C 
ATOM      5  C   UNL     1      34.041 -20.585 -19.657  0.00  0.00    +0.039 C 
ATOM      6  C   UNL     1      36.304 -19.169 -20.466  0.00  0.00    +0.074 C 
ATOM      7  C   UNL     1      33.904 -19.328 -20.247  0.00  0.00    +0.019 C 
ENDROOT
BRANCH   3  10
ATOM      8  O   UNL     1      33.747 -14.509 -25.973  0.00  0.00    -0.357 OA
ATOM      9  O   UNL     1      34.406 -17.889 -23.477  0.00  0.00    -0.252 OA
ATOM     10  N   UNL     1      34.863 -17.364 -21.240  0.00  0.00    -0.267 N 
ATOM     11  N   UNL     1      34.476 -15.666 -22.753  0.00  0.00    -0.251 N 
ATOM     12  N   UNL     1      33.975 -15.553 -25.085  0.00  0.00    -0.062 NA
ATOM     13  C   UNL     1      34.563 -17.058 -22.588  0.00  0.00    +0.309 C 
ATOM     14  C   UNL     1      34.196 -14.945 -23.938  0.00  0.00    +0.177 C 
ATOM     15  C   UNL     1      34.134 -13.562 -23.992  0.00  0.00    +0.073 C 
ATOM     16  C   UNL     1      33.844 -13.328 -25.310  0.00  0.00    +0.156 C 
ATOM     17  C   UNL     1      33.630 -12.111 -26.104  0.00  0.00    +0.075 C 
ATOM     18  H   UNL     1      34.961 -16.592 -20.637  0.00  0.00    +0.156 HD
ATOM     19  H   UNL     1      34.628 -15.125 -21.944  0.00  0.00    +0.158 HD
ENDBRANCH   3  10
BRANCH   2  20
ATOM     20  O   UNL     1      35.442 -22.359 -18.895  0.00  0.00    -0.453 OA
BRANCH  20  24
ATOM     21  N   UNL     1      36.271 -22.468 -14.833  0.00  0.00    -0.244 NA
ATOM     22  C   UNL     1      34.684 -22.715 -16.630  0.00  0.00    +0.055 C 
ATOM     23  C   UNL     1      35.023 -22.738 -15.261  0.00  0.00    +0.087 C 
ATOM     24  C   UNL     1      35.691 -22.401 -17.553  0.00  0.00    +0.148 C 
ATOM     25  C   UNL     1      33.371 -23.002 -17.041  0.00  0.00    +0.045 C 
ATOM     26  C   UNL     1      32.391 -23.311 -16.103  0.00  0.00    +0.173 C 
ATOM     27  C   UNL     1      34.023 -23.050 -14.344  0.00  0.00    +0.059 C 
ATOM     28  C   UNL     1      32.718 -23.335 -14.753  0.00  0.00    +0.174 C 
ATOM     29  C   UNL     1      36.977 -22.123 -17.115  0.00  0.00    +0.058 C 
ATOM     30  C   UNL     1      37.213 -22.169 -15.756  0.00  0.00    +0.102 C 
BRANCH  26  31
ATOM     31  O   UNL     1      31.123 -23.587 -16.518  0.00  0.00    -0.468 OA
ATOM     32  C   UNL     1      30.085 -22.729 -16.049  0.00  0.00    +0.253 C 
ENDBRANCH  26  31
BRANCH  28  33
ATOM     33  O   UNL     1      31.774 -23.636 -13.817  0.00  0.00    -0.468 OA
ATOM     34  C   UNL     1      31.640 -25.007 -13.448  0.00  0.00    +0.253 C 
ENDBRANCH  28  33
ENDBRANCH  20  24
ENDBRANCH   2  20
TORSDOF 5
ENDMDL
MODEL 7
REMARK VINA RESULT:      -9.7      5.108      8.837
REMARK  Name = 9911830
REMARK  5 active torsions:
REMARK  status: ('A' for Active; 'I' for Inactive)
REMARK    1  A    between atoms: C_2  and  O_20
REMARK    2  A    between atoms: C_3  and  N_10
REMARK    3  A    between atoms: O_20  and  C_24
REMARK    4  A    between atoms: C_26  and  O_31
REMARK    5  A    between atoms: C_28  and  O_33
REMARK                            x       y       z     vdW  Elec       q    Type
REMARK                         _______ _______ _______ _____ _____    ______ ____
ROOT
ATOM      1 CL   UNL     1      31.704 -23.008 -16.702  0.00  0.00    -0.081 Cl
ATOM      2  C   UNL     1      35.002 -23.929 -14.680  0.00  0.00    +0.146 C 
ATOM      3  C   UNL     1      34.380 -22.563 -17.005  0.00  0.00    +0.062 C 
ATOM      4  C   UNL     1      33.678 -23.821 -15.067  0.00  0.00    +0.050 C 
ATOM      5  C   UNL     1      36.023 -23.369 -15.429  0.00  0.00    +0.039 C 
ATOM      6  C   UNL     1      33.364 -23.132 -16.238  0.00  0.00    +0.074 C 
ATOM      7  C   UNL     1      35.709 -22.680 -16.600  0.00  0.00    +0.019 C 
ENDROOT
BRANCH   3  10
ATOM      8  O   UNL     1      36.099 -18.486 -22.233  0.00  0.00    -0.357 OA
ATOM      9  O   UNL     1      36.146 -20.845 -18.694  0.00  0.00    -0.252 OA
ATOM     10  N   UNL     1      34.099 -21.864 -18.184  0.00  0.00    -0.267 N 
ATOM     11  N   UNL     1      34.277 -20.542 -20.066  0.00  0.00    -0.251 N 
ATOM     12  N   UNL     1      36.023 -19.277 -21.093  0.00  0.00    -0.062 NA
ATOM     13  C   UNL     1      34.967 -21.058 -18.958  0.00  0.00    +0.309 C 
ATOM     14  C   UNL     1      34.774 -19.695 -21.085  0.00  0.00    +0.177 C 
ATOM     15  C   UNL     1      34.003 -19.239 -22.141  0.00  0.00    +0.073 C 
ATOM     16  C   UNL     1      34.889 -18.472 -22.849  0.00  0.00    +0.156 C 
ATOM     17  C   UNL     1      34.790 -17.678 -24.080  0.00  0.00    +0.075 C 
ATOM     18  H   UNL     1      33.178 -21.944 -18.519  0.00  0.00    +0.156 HD
ATOM     19  H   UNL     1      33.330 -20.802 -20.145  0.00  0.00    +0.158 HD
ENDBRANCH   3  10
BRANCH   2  20
ATOM     20  O   UNL     1      35.315 -24.613 -13.520  0.00  0.00    -0.453 OA
BRANCH  20  24
ATOM     21  N   UNL     1      39.141 -24.153 -11.989  0.00  0.00    -0.244 NA
ATOM     22  C   UNL     1      37.644 -25.249 -13.526  0.00  0.00    +0.055 C 
ATOM     23  C   UNL     1      38.924 -25.051 -12.969  0.00  0.00    +0.087 C 
ATOM     24  C   UNL     1      36.582 -24.480 -13.031  0.00  0.00    +0.148 C 
ATOM     25  C   UNL     1      37.454 -26.196 -14.548  0.00  0.00    +0.045 C 
ATOM     26  C   UNL     1      38.526 -26.946 -15.021  0.00  0.00    +0.173 C 
ATOM     27  C   UNL     1      39.979 -25.816 -13.460  0.00  0.00    +0.059 C 
ATOM     28  C   UNL     1      39.790 -26.755 -14.476  0.00  0.00    +0.174 C 
ATOM     29  C   UNL     1      36.803 -23.554 -12.022  0.00  0.00    +0.058 C 
ATOM     30  C   UNL     1      38.090 -23.430 -11.539  0.00  0.00    +0.102 C 
BRANCH  26  31
ATOM     31  O   UNL     1      38.325 -27.858 -16.012  0.00  0.00    -0.468 OA
ATOM     32  C   UNL     1      37.624 -29.051 -15.664  0.00  0.00    +0.253 C 
ENDBRANCH  26  31
BRANCH  28  33
ATOM     33  O   UNL     1      40.854 -27.479 -14.924  0.00  0.00    -0.468 OA
ATOM     34  C   UNL     1      41.031 -28.782 -14.373  0.00  0.00    +0.253 C 
ENDBRANCH  28  33
ENDBRANCH  20  24
ENDBRANCH   2  20
TORSDOF 5
ENDMDL
MODEL 8
REMARK VINA RESULT:      -9.6      2.570      4.774
REMARK  Name = 9911830
REMARK  5 active torsions:
REMARK  status: ('A' for Active; 'I' for Inactive)
REMARK    1  A    between atoms: C_2  and  O_20
REMARK    2  A    between atoms: C_3  and  N_10
REMARK    3  A    between atoms: O_20  and  C_24
REMARK    4  A    between atoms: C_26  and  O_31
REMARK    5  A    between atoms: C_28  and  O_33
REMARK                            x       y       z     vdW  Elec       q    Type
REMARK                         _______ _______ _______ _____ _____    ______ ____
ROOT
ATOM      1 CL   UNL     1      37.425 -19.018 -20.942  0.00  0.00    -0.081 Cl
ATOM      2  C   UNL     1      34.985 -21.507 -19.028  0.00  0.00    +0.146 C 
ATOM      3  C   UNL     1      34.728 -19.426 -20.835  0.00  0.00    +0.062 C 
ATOM      4  C   UNL     1      36.122 -20.860 -19.479  0.00  0.00    +0.050 C 
ATOM      5  C   UNL     1      33.723 -21.138 -19.460  0.00  0.00    +0.039 C 
ATOM      6  C   UNL     1      35.993 -19.812 -20.390  0.00  0.00    +0.074 C 
ATOM      7  C   UNL     1      33.594 -20.091 -20.371  0.00  0.00    +0.019 C 
ENDROOT
BRANCH   3  10
ATOM      8  O   UNL     1      34.391 -12.798 -22.520  0.00  0.00    -0.357 OA
ATOM      9  O   UNL     1      34.776 -16.470 -20.410  0.00  0.00    -0.252 OA
ATOM     10  N   UNL     1      34.565 -18.381 -21.749  0.00  0.00    -0.267 N 
ATOM     11  N   UNL     1      34.386 -16.291 -22.709  0.00  0.00    -0.251 N 
ATOM     12  N   UNL     1      34.504 -14.042 -21.913  0.00  0.00    -0.062 NA
ATOM     13  C   UNL     1      34.595 -16.987 -21.508  0.00  0.00    +0.309 C 
ATOM     14  C   UNL     1      34.342 -14.891 -22.908  0.00  0.00    +0.177 C 
ATOM     15  C   UNL     1      34.127 -14.302 -24.143  0.00  0.00    +0.073 C 
ATOM     16  C   UNL     1      34.167 -12.965 -23.849  0.00  0.00    +0.156 C 
ATOM     17  C   UNL     1      34.021 -11.743 -24.648  0.00  0.00    +0.075 C 
ATOM     18  H   UNL     1      34.410 -18.650 -22.683  0.00  0.00    +0.156 HD
ATOM     19  H   UNL     1      34.255 -16.845 -23.513  0.00  0.00    +0.158 HD
ENDBRANCH   3  10
BRANCH   2  20
ATOM     20  O   UNL     1      35.112 -22.546 -18.124  0.00  0.00    -0.453 OA
BRANCH  20  24
ATOM     21  N   UNL     1      37.519 -21.855 -14.819  0.00  0.00    -0.244 NA
ATOM     22  C   UNL     1      35.524 -22.823 -15.760  0.00  0.00    +0.055 C 
ATOM     23  C   UNL     1      36.380 -22.558 -14.672  0.00  0.00    +0.087 C 
ATOM     24  C   UNL     1      35.888 -22.331 -17.021  0.00  0.00    +0.148 C 
ATOM     25  C   UNL     1      34.342 -23.560 -15.571  0.00  0.00    +0.045 C 
ATOM     26  C   UNL     1      34.005 -24.038 -14.308  0.00  0.00    +0.173 C 
ATOM     27  C   UNL     1      36.018 -23.047 -13.419  0.00  0.00    +0.059 C 
ATOM     28  C   UNL     1      34.844 -23.780 -13.232  0.00  0.00    +0.174 C 
ATOM     29  C   UNL     1      37.060 -21.606 -17.175  0.00  0.00    +0.058 C 
ATOM     30  C   UNL     1      37.834 -21.398 -16.052  0.00  0.00    +0.102 C 
BRANCH  26  31
ATOM     31  O   UNL     1      32.857 -24.751 -14.142  0.00  0.00    -0.468 OA
ATOM     32  C   UNL     1      31.629 -24.028 -14.200  0.00  0.00    +0.253 C 
ENDBRANCH  26  31
BRANCH  28  33
ATOM     33  O   UNL     1      34.534 -24.238 -11.986  0.00  0.00    -0.468 OA
ATOM     34  C   UNL     1      35.616 -24.428 -11.076  0.00  0.00    +0.253 C 
ENDBRANCH  28  33
ENDBRANCH  20  24
ENDBRANCH   2  20
TORSDOF 5
ENDMDL
MODEL 9
REMARK VINA RESULT:      -9.6      1.956      3.127
REMARK  Name = 9911830
REMARK  5 active torsions:
REMARK  status: ('A' for Active; 'I' for Inactive)
REMARK    1  A    between atoms: C_2  and  O_20
REMARK    2  A    between atoms: C_3  and  N_10
REMARK    3  A    between atoms: O_20  and  C_24
REMARK    4  A    between atoms: C_26  and  O_31
REMARK    5  A    between atoms: C_28  and  O_33
REMARK                            x       y       z     vdW  Elec       q    Type
REMARK                         _______ _______ _______ _____ _____    ______ ____
ROOT
ATOM      1 CL   UNL     1      33.537 -13.940 -25.689  0.00  0.00    -0.081 Cl
ATOM      2  C   UNL     1      34.399 -16.552 -22.818  0.00  0.00    +0.146 C 
ATOM      3  C   UNL     1      34.284 -13.798 -23.067  0.00  0.00    +0.062 C 
ATOM      4  C   UNL     1      34.043 -15.999 -24.035  0.00  0.00    +0.050 C 
ATOM      5  C   UNL     1      34.699 -15.761 -21.722  0.00  0.00    +0.039 C 
ATOM      6  C   UNL     1      33.984 -14.611 -24.161  0.00  0.00    +0.074 C 
ATOM      7  C   UNL     1      34.640 -14.374 -21.848  0.00  0.00    +0.019 C 
ENDROOT
BRANCH   3  10
ATOM      8  O   UNL     1      31.256  -7.733 -22.102  0.00  0.00    -0.357 OA
ATOM      9  O   UNL     1      32.161 -11.887 -22.196  0.00  0.00    -0.252 OA
ATOM     10  N   UNL     1      34.233 -12.404 -23.160  0.00  0.00    -0.267 N 
ATOM     11  N   UNL     1      33.560 -10.202 -23.016  0.00  0.00    -0.251 N 
ATOM     12  N   UNL     1      31.634  -9.067 -22.174  0.00  0.00    -0.062 NA
ATOM     13  C   UNL     1      33.205 -11.531 -22.732  0.00  0.00    +0.309 C 
ATOM     14  C   UNL     1      32.817  -9.027 -22.753  0.00  0.00    +0.177 C 
ATOM     15  C   UNL     1      33.262  -7.755 -23.075  0.00  0.00    +0.073 C 
ATOM     16  C   UNL     1      32.234  -6.960 -22.642  0.00  0.00    +0.156 C 
ATOM     17  C   UNL     1      31.997  -5.512 -22.649  0.00  0.00    +0.075 C 
ATOM     18  H   UNL     1      35.015 -11.974 -23.574  0.00  0.00    +0.156 HD
ATOM     19  H   UNL     1      34.434 -10.072 -23.451  0.00  0.00    +0.158 HD
ENDBRANCH   3  10
BRANCH   2  20
ATOM     20  O   UNL     1      34.459 -17.928 -22.693  0.00  0.00    -0.453 OA
BRANCH  20  24
ATOM     21  N   UNL     1      37.618 -19.467 -20.490  0.00  0.00    -0.244 NA
ATOM     22  C   UNL     1      35.262 -19.449 -20.997  0.00  0.00    +0.055 C 
ATOM     23  C   UNL     1      36.373 -19.935 -20.278  0.00  0.00    +0.087 C 
ATOM     24  C   UNL     1      35.483 -18.450 -21.956  0.00  0.00    +0.148 C 
ATOM     25  C   UNL     1      33.977 -19.960 -20.749  0.00  0.00    +0.045 C 
ATOM     26  C   UNL     1      33.786 -20.952 -19.792  0.00  0.00    +0.173 C 
ATOM     27  C   UNL     1      36.154 -20.927 -19.326  0.00  0.00    +0.059 C 
ATOM     28  C   UNL     1      34.876 -21.436 -19.080  0.00  0.00    +0.174 C 
ATOM     29  C   UNL     1      36.764 -17.966 -22.177  0.00  0.00    +0.058 C 
ATOM     30  C   UNL     1      37.788 -18.504 -21.424  0.00  0.00    +0.102 C 
BRANCH  26  31
ATOM     31  O   UNL     1      32.534 -21.437 -19.564  0.00  0.00    -0.468 OA
ATOM     32  C   UNL     1      32.144 -21.613 -18.203  0.00  0.00    +0.253 C 
ENDBRANCH  26  31
BRANCH  28  33
ATOM     33  O   UNL     1      34.713 -22.407 -18.138  0.00  0.00    -0.468 OA
ATOM     34  C   UNL     1      35.515 -22.313 -16.963  0.00  0.00    +0.253 C 
ENDBRANCH  28  33
ENDBRANCH  20  24
ENDBRANCH   2  20
TORSDOF 5
ENDMDL
