MODEL 1
REMARK VINA RESULT:     -11.0      0.000      0.000
REMARK  Name = 447653
REMARK  8 active torsions:
REMARK  status: ('A' for Active; 'I' for Inactive)
REMARK    1  A    between atoms: N_2  and  C_20
REMARK    2  A    between atoms: C_4  and  C_11
REMARK    3  A    between atoms: C_19  and  O_25
REMARK    4  A    between atoms: O_25  and  C_26
REMARK    5  A    between atoms: C_26  and  C_27
REMARK    6  A    between atoms: C_27  and  O_28
REMARK    7  A    between atoms: C_27  and  C_30
REMARK    8  A    between atoms: C_30  and  N_31
REMARK                            x       y       z     vdW  Elec       q    Type
REMARK                         _______ _______ _______ _____ _____    ______ ____
ROOT
ATOM      1  N   UNL     1      34.624 -23.214 -16.054  0.00  0.00    -0.340 NA
ATOM      2  N   UNL     1      32.801 -22.431 -17.307  0.00  0.00    -0.247 N 
ATOM      3  N   UNL     1      32.360 -23.648 -15.350  0.00  0.00    -0.170 NA
ATOM      4  C   UNL     1      35.046 -23.890 -14.969  0.00  0.00    +0.148 C 
ATOM      5  C   UNL     1      34.207 -24.466 -14.042  0.00  0.00    +0.052 C 
ATOM      6  C   UNL     1      33.285 -23.132 -16.182  0.00  0.00    +0.148 C 
ATOM      7  C   UNL     1      32.858 -24.312 -14.287  0.00  0.00    +0.114 C 
ATOM      8  H   UNL     1      31.818 -22.396 -17.359  0.00  0.00    +0.165 HD
ENDROOT
BRANCH   4  11
ATOM      9  N   UNL     1      37.159 -25.080 -14.386  0.00  0.00    -0.251 N 
ATOM     10  N   UNL     1      38.706 -23.530 -14.840  0.00  0.00    -0.393 NA
ATOM     11  C   UNL     1      36.482 -23.976 -14.836  0.00  0.00    +0.181 C 
ATOM     12  C   UNL     1      38.514 -24.759 -14.406  0.00  0.00    +0.187 C 
ATOM     13  C   UNL     1      37.452 -23.040 -15.108  0.00  0.00    +0.114 C 
ATOM     14  C   UNL     1      36.666 -26.314 -13.972  0.00  0.00    +0.068 C 
ATOM     15  C   UNL     1      39.425 -25.768 -13.974  0.00  0.00    +0.048 C 
ATOM     16  C   UNL     1      37.290 -21.669 -15.618  0.00  0.00    +0.064 C 
ATOM     17  C   UNL     1      37.530 -27.259 -13.567  0.00  0.00    +0.016 C 
ATOM     18  C   UNL     1      38.954 -26.964 -13.573  0.00  0.00    +0.005 C 
ENDBRANCH   4  11
BRANCH   2  20
ATOM     19  C   UNL     1      34.727 -20.458 -20.476  0.00  0.00    +0.139 C 
ATOM     20  C   UNL     1      33.447 -21.771 -18.369  0.00  0.00    +0.058 C 
ATOM     21  C   UNL     1      35.462 -21.262 -19.604  0.00  0.00    +0.038 C 
ATOM     22  C   UNL     1      33.352 -20.310 -20.294  0.00  0.00    +0.038 C 
ATOM     23  C   UNL     1      34.823 -21.917 -18.552  0.00  0.00    +0.018 C 
ATOM     24  C   UNL     1      32.713 -20.965 -19.242  0.00  0.00    +0.018 C 
BRANCH  19  25
ATOM     25  O   UNL     1      35.352 -19.819 -21.502  0.00  0.00    -0.473 OA
BRANCH  25  26
ATOM     26  C   UNL     1      34.554 -18.955 -22.310  0.00  0.00    +0.232 C 
BRANCH  26  27
ATOM     27  C   UNL     1      35.267 -17.613 -22.449  0.00  0.00    +0.133 C 
BRANCH  27  28
ATOM     28  O   UNL     1      36.678 -17.841 -22.455  0.00  0.00    -0.383 OA
ATOM     29  H   UNL     1      36.901 -18.475 -23.154  0.00  0.00    +0.210 HD
ENDBRANCH  27  28
BRANCH  27  30
ATOM     30  C   UNL     1      34.899 -16.862 -23.731  0.00  0.00    -0.044 C 
BRANCH  30  31
ATOM     31  N   UNL     1      34.831 -15.422 -23.523  0.00  0.00    +0.386 N 
ATOM     32  C   UNL     1      33.755 -14.834 -24.323  0.00  0.00    -0.101 C 
ATOM     33  C   UNL     1      34.634 -15.114 -22.105  0.00  0.00    -0.101 C 
ATOM     34  H   UNL     1      35.717 -15.016 -23.823  0.00  0.00    -0.080 HD
ENDBRANCH  30  31
ENDBRANCH  27  30
ENDBRANCH  26  27
ENDBRANCH  25  26
ENDBRANCH  19  25
ENDBRANCH   2  20
TORSDOF 8
ENDMDL
MODEL 2
REMARK VINA RESULT:     -10.7      1.553      1.854
REMARK  Name = 447653
REMARK  8 active torsions:
REMARK  status: ('A' for Active; 'I' for Inactive)
REMARK    1  A    between atoms: N_2  and  C_20
REMARK    2  A    between atoms: C_4  and  C_11
REMARK    3  A    between atoms: C_19  and  O_25
REMARK    4  A    between atoms: O_25  and  C_26
REMARK    5  A    between atoms: C_26  and  C_27
REMARK    6  A    between atoms: C_27  and  O_28
REMARK    7  A    between atoms: C_27  and  C_30
REMARK    8  A    between atoms: C_30  and  N_31
REMARK                            x       y       z     vdW  Elec       q    Type
REMARK                         _______ _______ _______ _____ _____    ______ ____
ROOT
ATOM      1  N   UNL     1      33.841 -22.910 -15.851  0.00  0.00    -0.340 NA
ATOM      2  N   UNL     1      32.300 -22.480 -17.567  0.00  0.00    -0.247 N 
ATOM      3  N   UNL     1      31.545 -23.621 -15.660  0.00  0.00    -0.170 NA
ATOM      4  C   UNL     1      34.063 -23.448 -14.636  0.00  0.00    +0.148 C 
ATOM      5  C   UNL     1      33.100 -24.078 -13.881  0.00  0.00    +0.052 C 
ATOM      6  C   UNL     1      32.575 -23.031 -16.297  0.00  0.00    +0.148 C 
ATOM      7  C   UNL     1      31.844 -24.136 -14.451  0.00  0.00    +0.114 C 
ATOM      8  H   UNL     1      31.364 -22.591 -17.853  0.00  0.00    +0.165 HD
ENDROOT
BRANCH   4  11
ATOM      9  N   UNL     1      35.858 -23.723 -12.926  0.00  0.00    -0.251 N 
ATOM     10  N   UNL     1      37.635 -22.860 -13.974  0.00  0.00    -0.393 NA
ATOM     11  C   UNL     1      35.421 -23.317 -14.161  0.00  0.00    +0.181 C 
ATOM     12  C   UNL     1      37.216 -23.422 -12.859  0.00  0.00    +0.187 C 
ATOM     13  C   UNL     1      36.529 -22.792 -14.783  0.00  0.00    +0.114 C 
ATOM     14  C   UNL     1      35.149 -24.323 -11.889  0.00  0.00    +0.068 C 
ATOM     15  C   UNL     1      37.894 -23.758 -11.650  0.00  0.00    +0.048 C 
ATOM     16  C   UNL     1      36.637 -22.208 -16.130  0.00  0.00    +0.064 C 
ATOM     17  C   UNL     1      35.795 -24.637 -10.754  0.00  0.00    +0.016 C 
ATOM     18  C   UNL     1      37.215 -24.340 -10.643  0.00  0.00    +0.005 C 
ENDBRANCH   4  11
BRANCH   2  20
ATOM     19  C   UNL     1      34.691 -20.462 -20.370  0.00  0.00    +0.139 C 
ATOM     20  C   UNL     1      33.101 -21.803 -18.506  0.00  0.00    +0.058 C 
ATOM     21  C   UNL     1      33.326 -20.183 -20.287  0.00  0.00    +0.038 C 
ATOM     22  C   UNL     1      35.261 -21.411 -19.522  0.00  0.00    +0.038 C 
ATOM     23  C   UNL     1      32.532 -20.853 -19.356  0.00  0.00    +0.018 C 
ATOM     24  C   UNL     1      34.467 -22.082 -18.591  0.00  0.00    +0.018 C 
BRANCH  19  25
ATOM     25  O   UNL     1      35.465 -19.807 -21.278  0.00  0.00    -0.473 OA
BRANCH  25  26
ATOM     26  C   UNL     1      34.790 -19.128 -22.336  0.00  0.00    +0.232 C 
BRANCH  26  27
ATOM     27  C   UNL     1      35.302 -17.691 -22.403  0.00  0.00    +0.133 C 
BRANCH  27  28
ATOM     28  O   UNL     1      36.728 -17.706 -22.298  0.00  0.00    -0.383 OA
ATOM     29  H   UNL     1      37.104 -18.172 -23.061  0.00  0.00    +0.210 HD
ENDBRANCH  27  28
BRANCH  27  30
ATOM     30  C   UNL     1      34.927 -16.976 -23.704  0.00  0.00    -0.044 C 
BRANCH  30  31
ATOM     31  N   UNL     1      34.872 -15.529 -23.537  0.00  0.00    +0.386 N 
ATOM     32  C   UNL     1      33.833 -14.951 -24.391  0.00  0.00    -0.101 C 
ATOM     33  C   UNL     1      34.629 -15.180 -22.136  0.00  0.00    -0.101 C 
ATOM     34  H   UNL     1      35.774 -15.144 -23.817  0.00  0.00    -0.080 HD
ENDBRANCH  30  31
ENDBRANCH  27  30
ENDBRANCH  26  27
ENDBRANCH  25  26
ENDBRANCH  19  25
ENDBRANCH   2  20
TORSDOF 8
ENDMDL
MODEL 3
REMARK VINA RESULT:     -10.3      2.139      3.512
REMARK  Name = 447653
REMARK  8 active torsions:
REMARK  status: ('A' for Active; 'I' for Inactive)
REMARK    1  A    between atoms: N_2  and  C_20
REMARK    2  A    between atoms: C_4  and  C_11
REMARK    3  A    between atoms: C_19  and  O_25
REMARK    4  A    between atoms: O_25  and  C_26
REMARK    5  A    between atoms: C_26  and  C_27
REMARK    6  A    between atoms: C_27  and  O_28
REMARK    7  A    between atoms: C_27  and  C_30
REMARK    8  A    between atoms: C_30  and  N_31
REMARK                            x       y       z     vdW  Elec       q    Type
REMARK                         _______ _______ _______ _____ _____    ______ ____
ROOT
ATOM      1  N   UNL     1      37.104 -24.835 -14.489  0.00  0.00    -0.340 NA
ATOM      2  N   UNL     1      35.414 -23.208 -14.484  0.00  0.00    -0.247 N 
ATOM      3  N   UNL     1      35.753 -24.459 -12.528  0.00  0.00    -0.170 NA
ATOM      4  C   UNL     1      37.759 -25.791 -13.801  0.00  0.00    +0.148 C 
ATOM      5  C   UNL     1      37.479 -26.137 -12.499  0.00  0.00    +0.052 C 
ATOM      6  C   UNL     1      36.125 -24.217 -13.800  0.00  0.00    +0.148 C 
ATOM      7  C   UNL     1      36.453 -25.429 -11.906  0.00  0.00    +0.114 C 
ATOM      8  H   UNL     1      34.709 -22.783 -13.943  0.00  0.00    +0.165 HD
ENDROOT
BRANCH   4  11
ATOM      9  N   UNL     1      38.657 -27.632 -15.224  0.00  0.00    -0.251 N 
ATOM     10  N   UNL     1      40.783 -27.002 -15.514  0.00  0.00    -0.393 NA
ATOM     11  C   UNL     1      38.808 -26.452 -14.543  0.00  0.00    +0.181 C 
ATOM     12  C   UNL     1      39.890 -27.927 -15.799  0.00  0.00    +0.187 C 
ATOM     13  C   UNL     1      40.119 -26.086 -14.737  0.00  0.00    +0.114 C 
ATOM     14  C   UNL     1      37.530 -28.438 -15.362  0.00  0.00    +0.068 C 
ATOM     15  C   UNL     1      39.976 -29.127 -16.566  0.00  0.00    +0.048 C 
ATOM     16  C   UNL     1      40.827 -24.899 -14.230  0.00  0.00    +0.064 C 
ATOM     17  C   UNL     1      37.619 -29.565 -16.086  0.00  0.00    +0.016 C 
ATOM     18  C   UNL     1      38.890 -29.910 -16.704  0.00  0.00    +0.005 C 
ENDBRANCH   4  11
BRANCH   2  20
ATOM     19  C   UNL     1      35.712 -21.657 -18.376  0.00  0.00    +0.139 C 
ATOM     20  C   UNL     1      35.515 -22.688 -15.789  0.00  0.00    +0.058 C 
ATOM     21  C   UNL     1      36.798 -21.567 -17.504  0.00  0.00    +0.038 C 
ATOM     22  C   UNL     1      34.528 -22.260 -17.955  0.00  0.00    +0.038 C 
ATOM     23  C   UNL     1      36.699 -22.083 -16.212  0.00  0.00    +0.018 C 
ATOM     24  C   UNL     1      34.428 -22.775 -16.662  0.00  0.00    +0.018 C 
BRANCH  19  25
ATOM     25  O   UNL     1      35.809 -21.153 -19.637  0.00  0.00    -0.473 OA
BRANCH  25  26
ATOM     26  C   UNL     1      34.658 -20.496 -20.164  0.00  0.00    +0.232 C 
BRANCH  26  27
ATOM     27  C   UNL     1      35.091 -19.181 -20.806  0.00  0.00    +0.133 C 
BRANCH  27  28
ATOM     28  O   UNL     1      36.371 -18.814 -20.283  0.00  0.00    -0.383 OA
ATOM     29  H   UNL     1      36.269 -18.494 -19.373  0.00  0.00    +0.210 HD
ENDBRANCH  27  28
BRANCH  27  30
ATOM     30  C   UNL     1      35.204 -19.260 -22.331  0.00  0.00    -0.044 C 
BRANCH  30  31
ATOM     31  N   UNL     1      34.371 -18.266 -22.994  0.00  0.00    +0.386 N 
ATOM     32  C   UNL     1      35.100 -17.006 -23.156  0.00  0.00    -0.101 C 
ATOM     33  C   UNL     1      33.917 -18.759 -24.296  0.00  0.00    -0.101 C 
ATOM     34  H   UNL     1      33.555 -18.096 -22.408  0.00  0.00    -0.080 HD
ENDBRANCH  30  31
ENDBRANCH  27  30
ENDBRANCH  26  27
ENDBRANCH  25  26
ENDBRANCH  19  25
ENDBRANCH   2  20
TORSDOF 8
ENDMDL
MODEL 4
REMARK VINA RESULT:      -9.7      3.154     12.117
REMARK  Name = 447653
REMARK  8 active torsions:
REMARK  status: ('A' for Active; 'I' for Inactive)
REMARK    1  A    between atoms: N_2  and  C_20
REMARK    2  A    between atoms: C_4  and  C_11
REMARK    3  A    between atoms: C_19  and  O_25
REMARK    4  A    between atoms: O_25  and  C_26
REMARK    5  A    between atoms: C_26  and  C_27
REMARK    6  A    between atoms: C_27  and  O_28
REMARK    7  A    between atoms: C_27  and  C_30
REMARK    8  A    between atoms: C_30  and  N_31
REMARK                            x       y       z     vdW  Elec       q    Type
REMARK                         _______ _______ _______ _____ _____    ______ ____
ROOT
ATOM      1  N   UNL     1      33.706 -14.537 -23.102  0.00  0.00    -0.340 NA
ATOM      2  N   UNL     1      34.567 -16.449 -24.152  0.00  0.00    -0.247 N 
ATOM      3  N   UNL     1      34.003 -14.607 -25.492  0.00  0.00    -0.170 NA
ATOM      4  C   UNL     1      33.234 -13.283 -23.240  0.00  0.00    +0.148 C 
ATOM      5  C   UNL     1      33.116 -12.629 -24.446  0.00  0.00    +0.052 C 
ATOM      6  C   UNL     1      34.068 -15.133 -24.254  0.00  0.00    +0.148 C 
ATOM      7  C   UNL     1      33.520 -13.349 -25.552  0.00  0.00    +0.114 C 
ATOM      8  H   UNL     1      34.819 -16.845 -25.018  0.00  0.00    +0.165 HD
ENDROOT
BRANCH   4  11
ATOM      9  N   UNL     1      32.478 -11.331 -21.883  0.00  0.00    -0.251 N 
ATOM     10  N   UNL     1      32.349 -12.212 -19.832  0.00  0.00    -0.393 NA
ATOM     11  C   UNL     1      32.847 -12.646 -22.002  0.00  0.00    +0.181 C 
ATOM     12  C   UNL     1      32.184 -11.114 -20.540  0.00  0.00    +0.187 C 
ATOM     13  C   UNL     1      32.759 -13.164 -20.731  0.00  0.00    +0.114 C 
ATOM     14  C   UNL     1      32.389 -10.344 -22.861  0.00  0.00    +0.068 C 
ATOM     15  C   UNL     1      31.771  -9.799 -20.172  0.00  0.00    +0.048 C 
ATOM     16  C   UNL     1      33.042 -14.535 -20.276  0.00  0.00    +0.064 C 
ATOM     17  C   UNL     1      32.000  -9.108 -22.506  0.00  0.00    +0.016 C 
ATOM     18  C   UNL     1      31.683  -8.840 -21.113  0.00  0.00    +0.005 C 
ENDBRANCH   4  11
BRANCH   2  20
ATOM     19  C   UNL     1      35.194 -19.011 -20.884  0.00  0.00    +0.139 C 
ATOM     20  C   UNL     1      34.777 -17.307 -23.057  0.00  0.00    +0.058 C 
ATOM     21  C   UNL     1      35.623 -17.685 -20.823  0.00  0.00    +0.038 C 
ATOM     22  C   UNL     1      34.557 -19.486 -22.030  0.00  0.00    +0.038 C 
ATOM     23  C   UNL     1      35.414 -16.834 -21.909  0.00  0.00    +0.018 C 
ATOM     24  C   UNL     1      34.349 -18.635 -23.116  0.00  0.00    +0.018 C 
BRANCH  19  25
ATOM     25  O   UNL     1      35.397 -19.841 -19.824  0.00  0.00    -0.473 OA
BRANCH  25  26
ATOM     26  C   UNL     1      34.876 -21.165 -19.928  0.00  0.00    +0.232 C 
BRANCH  26  27
ATOM     27  C   UNL     1      33.701 -21.310 -18.965  0.00  0.00    +0.133 C 
BRANCH  27  28
ATOM     28  O   UNL     1      32.485 -21.134 -19.695  0.00  0.00    -0.383 OA
ATOM     29  H   UNL     1      32.633 -20.516 -20.428  0.00  0.00    +0.210 HD
ENDBRANCH  27  28
BRANCH  27  30
ATOM     30  C   UNL     1      33.649 -22.674 -18.273  0.00  0.00    -0.044 C 
BRANCH  30  31
ATOM     31  N   UNL     1      33.290 -22.561 -16.865  0.00  0.00    +0.386 N 
ATOM     32  C   UNL     1      31.880 -22.903 -16.664  0.00  0.00    -0.101 C 
ATOM     33  C   UNL     1      34.142 -23.424 -16.044  0.00  0.00    -0.101 C 
ATOM     34  H   UNL     1      33.433 -21.594 -16.579  0.00  0.00    -0.080 HD
ENDBRANCH  30  31
ENDBRANCH  27  30
ENDBRANCH  26  27
ENDBRANCH  25  26
ENDBRANCH  19  25
ENDBRANCH   2  20
TORSDOF 8
ENDMDL
MODEL 5
REMARK VINA RESULT:      -9.6      2.053      4.488
REMARK  Name = 447653
REMARK  8 active torsions:
REMARK  status: ('A' for Active; 'I' for Inactive)
REMARK    1  A    between atoms: N_2  and  C_20
REMARK    2  A    between atoms: C_4  and  C_11
REMARK    3  A    between atoms: C_19  and  O_25
REMARK    4  A    between atoms: O_25  and  C_26
REMARK    5  A    between atoms: C_26  and  C_27
REMARK    6  A    between atoms: C_27  and  O_28
REMARK    7  A    between atoms: C_27  and  C_30
REMARK    8  A    between atoms: C_30  and  N_31
REMARK                            x       y       z     vdW  Elec       q    Type
REMARK                         _______ _______ _______ _____ _____    ______ ____
ROOT
ATOM      1  N   UNL     1      35.122 -22.008 -17.265  0.00  0.00    -0.340 NA
ATOM      2  N   UNL     1      37.004 -21.072 -18.308  0.00  0.00    -0.247 N 
ATOM      3  N   UNL     1      37.336 -22.377 -16.386  0.00  0.00    -0.170 NA
ATOM      4  C   UNL     1      34.643 -22.764 -16.258  0.00  0.00    +0.148 C 
ATOM      5  C   UNL     1      35.427 -23.351 -15.291  0.00  0.00    +0.052 C 
ATOM      6  C   UNL     1      36.461 -21.858 -17.269  0.00  0.00    +0.148 C 
ATOM      7  C   UNL     1      36.782 -23.120 -15.406  0.00  0.00    +0.114 C 
ATOM      8  H   UNL     1      37.985 -20.990 -18.272  0.00  0.00    +0.165 HD
ENDROOT
BRANCH   4  11
ATOM      9  N   UNL     1      32.493 -23.558 -15.274  0.00  0.00    -0.251 N 
ATOM     10  N   UNL     1      31.003 -22.864 -16.791  0.00  0.00    -0.393 NA
ATOM     11  C   UNL     1      33.207 -22.923 -16.258  0.00  0.00    +0.181 C 
ATOM     12  C   UNL     1      31.152 -23.497 -15.645  0.00  0.00    +0.187 C 
ATOM     13  C   UNL     1      32.271 -22.507 -17.175  0.00  0.00    +0.114 C 
ATOM     14  C   UNL     1      32.942 -24.169 -14.107  0.00  0.00    +0.068 C 
ATOM     15  C   UNL     1      30.208 -24.101 -14.763  0.00  0.00    +0.048 C 
ATOM     16  C   UNL     1      32.480 -21.772 -18.433  0.00  0.00    +0.064 C 
ATOM     17  C   UNL     1      32.048 -24.736 -13.282  0.00  0.00    +0.016 C 
ATOM     18  C   UNL     1      30.637 -24.694 -13.632  0.00  0.00    +0.005 C 
ENDBRANCH   4  11
BRANCH   2  20
ATOM     19  C   UNL     1      35.261 -19.019 -21.531  0.00  0.00    +0.139 C 
ATOM     20  C   UNL     1      36.419 -20.384 -19.388  0.00  0.00    +0.058 C 
ATOM     21  C   UNL     1      34.581 -20.077 -20.928  0.00  0.00    +0.038 C 
ATOM     22  C   UNL     1      36.520 -18.643 -21.064  0.00  0.00    +0.038 C 
ATOM     23  C   UNL     1      35.159 -20.758 -19.857  0.00  0.00    +0.018 C 
ATOM     24  C   UNL     1      37.099 -19.325 -19.994  0.00  0.00    +0.018 C 
BRANCH  19  25
ATOM     25  O   UNL     1      34.696 -18.353 -22.576  0.00  0.00    -0.473 OA
BRANCH  25  26
ATOM     26  C   UNL     1      35.228 -17.067 -22.890  0.00  0.00    +0.232 C 
BRANCH  26  27
ATOM     27  C   UNL     1      34.540 -16.544 -24.148  0.00  0.00    +0.133 C 
BRANCH  27  28
ATOM     28  O   UNL     1      33.765 -17.600 -24.721  0.00  0.00    -0.383 OA
ATOM     29  H   UNL     1      33.546 -18.250 -24.035  0.00  0.00    +0.210 HD
ENDBRANCH  27  28
BRANCH  27  30
ATOM     30  C   UNL     1      33.609 -15.359 -23.881  0.00  0.00    -0.044 C 
BRANCH  30  31
ATOM     31  N   UNL     1      34.331 -14.196 -23.384  0.00  0.00    +0.386 N 
ATOM     32  C   UNL     1      33.836 -12.972 -24.018  0.00  0.00    -0.101 C 
ATOM     33  C   UNL     1      34.210 -14.096 -21.928  0.00  0.00    -0.101 C 
ATOM     34  H   UNL     1      35.315 -14.309 -23.622  0.00  0.00    -0.080 HD
ENDBRANCH  30  31
ENDBRANCH  27  30
ENDBRANCH  26  27
ENDBRANCH  25  26
ENDBRANCH  19  25
ENDBRANCH   2  20
TORSDOF 8
ENDMDL
MODEL 6
REMARK VINA RESULT:      -9.5      1.678      2.556
REMARK  Name = 447653
REMARK  8 active torsions:
REMARK  status: ('A' for Active; 'I' for Inactive)
REMARK    1  A    between atoms: N_2  and  C_20
REMARK    2  A    between atoms: C_4  and  C_11
REMARK    3  A    between atoms: C_19  and  O_25
REMARK    4  A    between atoms: O_25  and  C_26
REMARK    5  A    between atoms: C_26  and  C_27
REMARK    6  A    between atoms: C_27  and  O_28
REMARK    7  A    between atoms: C_27  and  C_30
REMARK    8  A    between atoms: C_30  and  N_31
REMARK                            x       y       z     vdW  Elec       q    Type
REMARK                         _______ _______ _______ _____ _____    ______ ____
ROOT
ATOM      1  N   UNL     1      34.061 -23.778 -15.255  0.00  0.00    -0.340 NA
ATOM      2  N   UNL     1      32.527 -22.675 -16.647  0.00  0.00    -0.247 N 
ATOM      3  N   UNL     1      31.702 -23.798 -14.759  0.00  0.00    -0.170 NA
ATOM      4  C   UNL     1      34.255 -24.523 -14.150  0.00  0.00    +0.148 C 
ATOM      5  C   UNL     1      33.248 -24.940 -13.310  0.00  0.00    +0.052 C 
ATOM      6  C   UNL     1      32.775 -23.455 -15.497  0.00  0.00    +0.148 C 
ATOM      7  C   UNL     1      31.976 -24.544 -13.669  0.00  0.00    +0.114 C 
ATOM      8  H   UNL     1      31.575 -22.463 -16.784  0.00  0.00    +0.165 HD
ENDROOT
BRANCH   4  11
ATOM      9  N   UNL     1      36.426 -24.265 -12.948  0.00  0.00    -0.251 N 
ATOM     10  N   UNL     1      37.696 -25.814 -13.943  0.00  0.00    -0.393 NA
ATOM     11  C   UNL     1      35.635 -24.866 -13.893  0.00  0.00    +0.181 C 
ATOM     12  C   UNL     1      37.675 -24.877 -13.017  0.00  0.00    +0.187 C 
ATOM     13  C   UNL     1      36.436 -25.812 -14.488  0.00  0.00    +0.114 C 
ATOM     14  C   UNL     1      36.119 -23.240 -12.058  0.00  0.00    +0.068 C 
ATOM     15  C   UNL     1      38.676 -24.410 -12.115  0.00  0.00    +0.048 C 
ATOM     16  C   UNL     1      36.101 -26.751 -15.572  0.00  0.00    +0.064 C 
ATOM     17  C   UNL     1      37.067 -22.805 -11.212  0.00  0.00    +0.016 C 
ATOM     18  C   UNL     1      38.385 -23.418 -11.252  0.00  0.00    +0.005 C 
ENDBRANCH   4  11
BRANCH   2  20
ATOM     19  C   UNL     1      35.054 -21.079 -19.597  0.00  0.00    +0.139 C 
ATOM     20  C   UNL     1      33.374 -22.139 -17.636  0.00  0.00    +0.058 C 
ATOM     21  C   UNL     1      33.673 -20.911 -19.697  0.00  0.00    +0.038 C 
ATOM     22  C   UNL     1      35.596 -21.776 -18.518  0.00  0.00    +0.038 C 
ATOM     23  C   UNL     1      32.834 -21.441 -18.717  0.00  0.00    +0.018 C 
ATOM     24  C   UNL     1      34.757 -22.307 -17.538  0.00  0.00    +0.018 C 
BRANCH  19  25
ATOM     25  O   UNL     1      35.873 -20.561 -20.554  0.00  0.00    -0.473 OA
BRANCH  25  26
ATOM     26  C   UNL     1      36.677 -19.442 -20.185  0.00  0.00    +0.232 C 
BRANCH  26  27
ATOM     27  C   UNL     1      36.739 -18.470 -21.360  0.00  0.00    +0.133 C 
BRANCH  27  28
ATOM     28  O   UNL     1      38.074 -18.456 -21.873  0.00  0.00    -0.383 OA
ATOM     29  H   UNL     1      38.246 -17.605 -22.306  0.00  0.00    +0.210 HD
ENDBRANCH  27  28
BRANCH  27  30
ATOM     30  C   UNL     1      35.792 -18.841 -22.504  0.00  0.00    -0.044 C 
BRANCH  30  31
ATOM     31  N   UNL     1      34.767 -17.828 -22.717  0.00  0.00    +0.386 N 
ATOM     32  C   UNL     1      35.231 -16.519 -22.251  0.00  0.00    -0.101 C 
ATOM     33  C   UNL     1      34.395 -17.759 -24.131  0.00  0.00    -0.101 C 
ATOM     34  H   UNL     1      33.944 -18.091 -22.176  0.00  0.00    -0.080 HD
ENDBRANCH  30  31
ENDBRANCH  27  30
ENDBRANCH  26  27
ENDBRANCH  25  26
ENDBRANCH  19  25
ENDBRANCH   2  20
TORSDOF 8
ENDMDL
MODEL 7
REMARK VINA RESULT:      -9.2      7.558     15.908
REMARK  Name = 447653
REMARK  8 active torsions:
REMARK  status: ('A' for Active; 'I' for Inactive)
REMARK    1  A    between atoms: N_2  and  C_20
REMARK    2  A    between atoms: C_4  and  C_11
REMARK    3  A    between atoms: C_19  and  O_25
REMARK    4  A    between atoms: O_25  and  C_26
REMARK    5  A    between atoms: C_26  and  C_27
REMARK    6  A    between atoms: C_27  and  O_28
REMARK    7  A    between atoms: C_27  and  C_30
REMARK    8  A    between atoms: C_30  and  N_31
REMARK                            x       y       z     vdW  Elec       q    Type
REMARK                         _______ _______ _______ _____ _____    ______ ____
ROOT
ATOM      1  N   UNL     1      32.647  -7.990 -21.314  0.00  0.00    -0.340 NA
ATOM      2  N   UNL     1      31.990  -9.797 -19.968  0.00  0.00    -0.247 N 
ATOM      3  N   UNL     1      31.759  -7.628 -19.102  0.00  0.00    -0.170 NA
ATOM      4  C   UNL     1      32.773  -6.654 -21.435  0.00  0.00    +0.148 C 
ATOM      5  C   UNL     1      32.423  -5.752 -20.456  0.00  0.00    +0.052 C 
ATOM      6  C   UNL     1      32.139  -8.403 -20.136  0.00  0.00    +0.148 C 
ATOM      7  C   UNL     1      31.916  -6.303 -19.297  0.00  0.00    +0.114 C 
ATOM      8  H   UNL     1      31.615 -10.052 -19.094  0.00  0.00    +0.165 HD
ENDROOT
BRANCH   4  11
ATOM      9  N   UNL     1      33.002  -5.031 -23.315  0.00  0.00    -0.251 N 
ATOM     10  N   UNL     1      34.473  -6.065 -24.645  0.00  0.00    -0.393 NA
ATOM     11  C   UNL     1      33.318  -6.215 -22.699  0.00  0.00    +0.181 C 
ATOM     12  C   UNL     1      33.732  -4.986 -24.500  0.00  0.00    +0.187 C 
ATOM     13  C   UNL     1      34.221  -6.830 -23.534  0.00  0.00    +0.114 C 
ATOM     14  C   UNL     1      32.136  -4.022 -22.904  0.00  0.00    +0.068 C 
ATOM     15  C   UNL     1      33.563  -3.831 -25.320  0.00  0.00    +0.048 C 
ATOM     16  C   UNL     1      34.891  -8.129 -23.366  0.00  0.00    +0.064 C 
ATOM     17  C   UNL     1      31.982  -2.938 -23.682  0.00  0.00    +0.016 C 
ATOM     18  C   UNL     1      32.727  -2.851 -24.928  0.00  0.00    +0.005 C 
ENDBRANCH   4  11
BRANCH   2  20
ATOM     19  C   UNL     1      32.830 -13.066 -22.467  0.00  0.00    +0.139 C 
ATOM     20  C   UNL     1      32.271 -10.893 -20.805  0.00  0.00    +0.058 C 
ATOM     21  C   UNL     1      32.544 -13.275 -21.118  0.00  0.00    +0.038 C 
ATOM     22  C   UNL     1      32.838 -11.771 -22.986  0.00  0.00    +0.038 C 
ATOM     23  C   UNL     1      32.264 -12.189 -20.288  0.00  0.00    +0.018 C 
ATOM     24  C   UNL     1      32.559 -10.686 -22.156  0.00  0.00    +0.018 C 
BRANCH  19  25
ATOM     25  O   UNL     1      33.102 -14.126 -23.277  0.00  0.00    -0.473 OA
BRANCH  25  26
ATOM     26  C   UNL     1      34.469 -14.518 -23.394  0.00  0.00    +0.232 C 
BRANCH  26  27
ATOM     27  C   UNL     1      34.538 -16.039 -23.504  0.00  0.00    +0.133 C 
BRANCH  27  28
ATOM     28  O   UNL     1      35.195 -16.381 -24.728  0.00  0.00    -0.383 OA
ATOM     29  H   UNL     1      34.821 -17.205 -25.077  0.00  0.00    +0.210 HD
ENDBRANCH  27  28
BRANCH  27  30
ATOM     30  C   UNL     1      35.302 -16.696 -22.353  0.00  0.00    -0.044 C 
BRANCH  30  31
ATOM     31  N   UNL     1      35.775 -18.030 -22.699  0.00  0.00    +0.386 N 
ATOM     32  C   UNL     1      36.870 -18.435 -21.816  0.00  0.00    -0.101 C 
ATOM     33  C   UNL     1      34.681 -19.000 -22.626  0.00  0.00    -0.101 C 
ATOM     34  H   UNL     1      36.123 -18.003 -23.657  0.00  0.00    -0.080 HD
ENDBRANCH  30  31
ENDBRANCH  27  30
ENDBRANCH  26  27
ENDBRANCH  25  26
ENDBRANCH  19  25
ENDBRANCH   2  20
TORSDOF 8
ENDMDL
MODEL 8
REMARK VINA RESULT:      -8.9      5.650      7.011
REMARK  Name = 447653
REMARK  8 active torsions:
REMARK  status: ('A' for Active; 'I' for Inactive)
REMARK    1  A    between atoms: N_2  and  C_20
REMARK    2  A    between atoms: C_4  and  C_11
REMARK    3  A    between atoms: C_19  and  O_25
REMARK    4  A    between atoms: O_25  and  C_26
REMARK    5  A    between atoms: C_26  and  C_27
REMARK    6  A    between atoms: C_27  and  O_28
REMARK    7  A    between atoms: C_27  and  C_30
REMARK    8  A    between atoms: C_30  and  N_31
REMARK                            x       y       z     vdW  Elec       q    Type
REMARK                         _______ _______ _______ _____ _____    ______ ____
ROOT
ATOM      1  N   UNL     1      36.066 -24.221 -14.549  0.00  0.00    -0.340 NA
ATOM      2  N   UNL     1      34.758 -22.686 -15.747  0.00  0.00    -0.247 N 
ATOM      3  N   UNL     1      37.092 -22.531 -15.926  0.00  0.00    -0.170 NA
ATOM      4  C   UNL     1      37.302 -24.653 -14.233  0.00  0.00    +0.148 C 
ATOM      5  C   UNL     1      38.464 -24.090 -14.710  0.00  0.00    +0.052 C 
ATOM      6  C   UNL     1      36.035 -23.169 -15.390  0.00  0.00    +0.148 C 
ATOM      7  C   UNL     1      38.296 -23.019 -15.564  0.00  0.00    +0.114 C 
ATOM      8  H   UNL     1      34.783 -21.918 -16.363  0.00  0.00    +0.165 HD
ENDROOT
BRANCH   4  11
ATOM      9  N   UNL     1      37.473 -27.088 -13.720  0.00  0.00    -0.251 N 
ATOM     10  N   UNL     1      37.308 -27.107 -11.490  0.00  0.00    -0.393 NA
ATOM     11  C   UNL     1      37.331 -25.781 -13.330  0.00  0.00    +0.181 C 
ATOM     12  C   UNL     1      37.452 -27.859 -12.561  0.00  0.00    +0.187 C 
ATOM     13  C   UNL     1      37.233 -25.820 -11.959  0.00  0.00    +0.114 C 
ATOM     14  C   UNL     1      37.615 -27.621 -14.998  0.00  0.00    +0.068 C 
ATOM     15  C   UNL     1      37.585 -29.271 -12.721  0.00  0.00    +0.048 C 
ATOM     16  C   UNL     1      37.066 -24.701 -11.018  0.00  0.00    +0.064 C 
ATOM     17  C   UNL     1      37.739 -28.951 -15.140  0.00  0.00    +0.016 C 
ATOM     18  C   UNL     1      37.722 -29.793 -13.955  0.00  0.00    +0.005 C 
ENDBRANCH   4  11
BRANCH   2  20
ATOM     19  C   UNL     1      30.870 -23.881 -14.700  0.00  0.00    +0.139 C 
ATOM     20  C   UNL     1      33.455 -23.085 -15.395  0.00  0.00    +0.058 C 
ATOM     21  C   UNL     1      31.797 -23.573 -13.704  0.00  0.00    +0.038 C 
ATOM     22  C   UNL     1      31.234 -23.792 -16.043  0.00  0.00    +0.038 C 
ATOM     23  C   UNL     1      33.088 -23.176 -14.052  0.00  0.00    +0.018 C 
ATOM     24  C   UNL     1      32.526 -23.395 -16.391  0.00  0.00    +0.018 C 
BRANCH  19  25
ATOM     25  O   UNL     1      29.610 -24.269 -14.361  0.00  0.00    -0.473 OA
BRANCH  25  26
ATOM     26  C   UNL     1      28.618 -24.223 -15.386  0.00  0.00    +0.232 C 
BRANCH  26  27
ATOM     27  C   UNL     1      27.906 -22.874 -15.322  0.00  0.00    +0.133 C 
BRANCH  27  28
ATOM     28  O   UNL     1      28.704 -21.970 -14.554  0.00  0.00    -0.383 OA
ATOM     29  H   UNL     1      29.642 -22.180 -14.678  0.00  0.00    +0.210 HD
ENDBRANCH  27  28
BRANCH  27  30
ATOM     30  C   UNL     1      27.667 -22.250 -16.699  0.00  0.00    -0.044 C 
BRANCH  30  31
ATOM     31  N   UNL     1      26.480 -21.406 -16.719  0.00  0.00    +0.386 N 
ATOM     32  C   UNL     1      25.780 -21.530 -18.000  0.00  0.00    -0.101 C 
ATOM     33  C   UNL     1      25.582 -21.751 -15.616  0.00  0.00    -0.101 C 
ATOM     34  H   UNL     1      26.779 -20.437 -16.606  0.00  0.00    -0.080 HD
ENDBRANCH  30  31
ENDBRANCH  27  30
ENDBRANCH  26  27
ENDBRANCH  25  26
ENDBRANCH  19  25
ENDBRANCH   2  20
TORSDOF 8
ENDMDL
MODEL 9
REMARK VINA RESULT:      -8.9      7.980     16.812
REMARK  Name = 447653
REMARK  8 active torsions:
REMARK  status: ('A' for Active; 'I' for Inactive)
REMARK    1  A    between atoms: N_2  and  C_20
REMARK    2  A    between atoms: C_4  and  C_11
REMARK    3  A    between atoms: C_19  and  O_25
REMARK    4  A    between atoms: O_25  and  C_26
REMARK    5  A    between atoms: C_26  and  C_27
REMARK    6  A    between atoms: C_27  and  O_28
REMARK    7  A    between atoms: C_27  and  C_30
REMARK    8  A    between atoms: C_30  and  N_31
REMARK                            x       y       z     vdW  Elec       q    Type
REMARK                         _______ _______ _______ _____ _____    ______ ____
ROOT
ATOM      1  N   UNL     1      32.446  -7.185 -22.196  0.00  0.00    -0.340 NA
ATOM      2  N   UNL     1      31.965  -8.985 -20.770  0.00  0.00    -0.247 N 
ATOM      3  N   UNL     1      31.540  -6.812 -19.994  0.00  0.00    -0.170 NA
ATOM      4  C   UNL     1      32.449  -5.850 -22.373  0.00  0.00    +0.148 C 
ATOM      5  C   UNL     1      32.023  -4.943 -21.430  0.00  0.00    +0.052 C 
ATOM      6  C   UNL     1      31.984  -7.593 -20.997  0.00  0.00    +0.148 C 
ATOM      7  C   UNL     1      31.574  -5.488 -20.245  0.00  0.00    +0.114 C 
ATOM      8  H   UNL     1      31.620  -9.237 -19.883  0.00  0.00    +0.165 HD
ENDROOT
BRANCH   4  11
ATOM      9  N   UNL     1      32.398  -4.404 -24.406  0.00  0.00    -0.251 N 
ATOM     10  N   UNL     1      34.137  -5.184 -25.576  0.00  0.00    -0.393 NA
ATOM     11  C   UNL     1      32.945  -5.417 -23.660  0.00  0.00    +0.181 C 
ATOM     12  C   UNL     1      33.160  -4.301 -25.566  0.00  0.00    +0.187 C 
ATOM     13  C   UNL     1      34.009  -5.878 -24.398  0.00  0.00    +0.114 C 
ATOM     14  C   UNL     1      31.300  -3.594 -24.130  0.00  0.00    +0.068 C 
ATOM     15  C   UNL     1      32.773  -3.302 -26.508  0.00  0.00    +0.048 C 
ATOM     16  C   UNL     1      34.952  -6.960 -24.075  0.00  0.00    +0.064 C 
ATOM     17  C   UNL     1      30.942  -2.655 -25.021  0.00  0.00    +0.016 C 
ATOM     18  C   UNL     1      31.713  -2.514 -26.247  0.00  0.00    +0.005 C 
ENDBRANCH   4  11
BRANCH   2  20
ATOM     19  C   UNL     1      33.085 -12.270 -23.136  0.00  0.00    +0.139 C 
ATOM     20  C   UNL     1      32.341 -10.086 -21.563  0.00  0.00    +0.058 C 
ATOM     21  C   UNL     1      33.387 -10.974 -23.554  0.00  0.00    +0.038 C 
ATOM     22  C   UNL     1      32.410 -12.475 -21.933  0.00  0.00    +0.038 C 
ATOM     23  C   UNL     1      33.016  -9.883 -22.768  0.00  0.00    +0.018 C 
ATOM     24  C   UNL     1      32.038 -11.384 -21.148  0.00  0.00    +0.018 C 
BRANCH  19  25
ATOM     25  O   UNL     1      33.448 -13.334 -23.904  0.00  0.00    -0.473 OA
BRANCH  25  26
ATOM     26  C   UNL     1      34.104 -14.416 -23.244  0.00  0.00    +0.232 C 
BRANCH  26  27
ATOM     27  C   UNL     1      33.917 -15.684 -24.073  0.00  0.00    +0.133 C 
BRANCH  27  28
ATOM     28  O   UNL     1      33.906 -15.330 -25.458  0.00  0.00    -0.383 OA
ATOM     29  H   UNL     1      34.388 -16.000 -25.968  0.00  0.00    +0.210 HD
ENDBRANCH  27  28
BRANCH  27  30
ATOM     30  C   UNL     1      35.024 -16.719 -23.854  0.00  0.00    -0.044 C 
BRANCH  30  31
ATOM     31  N   UNL     1      34.518 -17.943 -23.247  0.00  0.00    +0.386 N 
ATOM     32  C   UNL     1      33.994 -18.849 -24.271  0.00  0.00    -0.101 C 
ATOM     33  C   UNL     1      35.567 -18.607 -22.471  0.00  0.00    -0.101 C 
ATOM     34  H   UNL     1      33.756 -17.691 -22.617  0.00  0.00    -0.080 HD
ENDBRANCH  30  31
ENDBRANCH  27  30
ENDBRANCH  26  27
ENDBRANCH  25  26
ENDBRANCH  19  25
ENDBRANCH   2  20
TORSDOF 8
ENDMDL
