MODEL 1
REMARK VINA RESULT:     -11.3      0.000      0.000
REMARK  Name = 11998575
REMARK  7 active torsions:
REMARK  status: ('A' for Active; 'I' for Inactive)
REMARK    1  A    between atoms: C_6  and  C_18
REMARK    2  A    between atoms: C_14  and  O_22
REMARK    3  A    between atoms: C_15  and  O_16
REMARK    4  A    between atoms: C_18  and  O_20
REMARK    5  A    between atoms: O_22  and  C_23
REMARK    6  A    between atoms: C_23  and  C_24
REMARK    7  A    between atoms: C_29  and  O_30
REMARK                            x       y       z     vdW  Elec       q    Type
REMARK                         _______ _______ _______ _____ _____    ______ ____
ROOT
ATOM      1  O   UNL     1      32.627 -22.050 -18.434  0.00  0.00    -0.421 OA
ATOM      2  O   UNL     1      32.110 -20.883 -20.323  0.00  0.00    -0.244 OA
ATOM      3  C   UNL     1      35.326 -21.237 -18.667  0.00  0.00    +0.009 A 
ATOM      4  C   UNL     1      34.906 -22.100 -17.555  0.00  0.00    +0.038 A 
ATOM      5  C   UNL     1      34.374 -20.820 -19.614  0.00  0.00    +0.076 A 
ATOM      6  C   UNL     1      36.052 -19.573 -20.840  0.00  0.00    +0.004 C 
ATOM      7  C   UNL     1      33.565 -22.482 -17.472  0.00  0.00    +0.152 A 
ATOM      8  C   UNL     1      34.735 -19.994 -20.691  0.00  0.00    +0.004 C 
ATOM      9  C   UNL     1      36.651 -20.794 -18.844  0.00  0.00    +0.000 C 
ATOM     10  C   UNL     1      35.760 -22.581 -16.550  0.00  0.00    +0.043 C 
ATOM     11  C   UNL     1      37.010 -19.973 -19.917  0.00  0.00    -0.002 C 
ATOM     12  C   UNL     1      32.955 -21.236 -19.510  0.00  0.00    +0.346 A 
ATOM     13  C   UNL     1      33.069 -23.300 -16.453  0.00  0.00    +0.078 C 
ATOM     14  C   UNL     1      33.938 -23.762 -15.473  0.00  0.00    +0.176 C 
ATOM     15  C   UNL     1      35.282 -23.404 -15.521  0.00  0.00    +0.173 C 
ENDROOT
BRANCH  15  16
ATOM     16  O   UNL     1      36.148 -23.849 -14.567  0.00  0.00    -0.468 OA
ATOM     17  C   UNL     1      37.524 -23.516 -14.736  0.00  0.00    +0.253 C 
ENDBRANCH  15  16
BRANCH   6  18
ATOM     18  C   UNL     1      36.435 -18.698 -21.984  0.00  0.00    +0.133 C 
ATOM     19  C   UNL     1      35.604 -17.413 -22.052  0.00  0.00    +0.037 C 
BRANCH  18  20
ATOM     20  O   UNL     1      37.819 -18.339 -21.886  0.00  0.00    -0.380 OA
ATOM     21  H   UNL     1      38.089 -18.348 -20.954  0.00  0.00    +0.211 HD
ENDBRANCH  18  20
ENDBRANCH   6  18
BRANCH  14  22
ATOM     22  O   UNL     1      33.466 -24.562 -14.477  0.00  0.00    -0.467 OA
BRANCH  22  23
ATOM     23  C   UNL     1      32.644 -23.947 -13.486  0.00  0.00    +0.232 C 
BRANCH  23  24
ATOM     24  C   UNL     1      31.247 -23.820 -14.019  0.00  0.00    +0.021 C 
ATOM     25  C   UNL     1      30.519 -24.965 -14.321  0.00  0.00    +0.002 C 
ATOM     26  C   UNL     1      30.694 -22.558 -14.209  0.00  0.00    +0.002 C 
ATOM     27  C   UNL     1      29.220 -24.847 -14.818  0.00  0.00    +0.037 C 
ATOM     28  C   UNL     1      29.396 -22.440 -14.705  0.00  0.00    +0.037 C 
ATOM     29  C   UNL     1      28.659 -23.585 -15.009  0.00  0.00    +0.139 C 
BRANCH  29  30
ATOM     30  O   UNL     1      27.392 -23.470 -15.493  0.00  0.00    -0.471 OA
ATOM     31  C   UNL     1      27.104 -22.327 -16.296  0.00  0.00    +0.252 C 
ENDBRANCH  29  30
ENDBRANCH  23  24
ENDBRANCH  22  23
ENDBRANCH  14  22
TORSDOF 7
ENDMDL
MODEL 2
REMARK VINA RESULT:     -11.0      2.947      8.937
REMARK  Name = 11998575
REMARK  7 active torsions:
REMARK  status: ('A' for Active; 'I' for Inactive)
REMARK    1  A    between atoms: C_6  and  C_18
REMARK    2  A    between atoms: C_14  and  O_22
REMARK    3  A    between atoms: C_15  and  O_16
REMARK    4  A    between atoms: C_18  and  O_20
REMARK    5  A    between atoms: O_22  and  C_23
REMARK    6  A    between atoms: C_23  and  C_24
REMARK    7  A    between atoms: C_29  and  O_30
REMARK                            x       y       z     vdW  Elec       q    Type
REMARK                         _______ _______ _______ _____ _____    ______ ____
ROOT
ATOM      1  O   UNL     1      37.364 -21.945 -16.989  0.00  0.00    -0.421 OA
ATOM      2  O   UNL     1      38.587 -22.595 -15.178  0.00  0.00    -0.244 OA
ATOM      3  C   UNL     1      35.025 -22.983 -15.784  0.00  0.00    +0.009 A 
ATOM      4  C   UNL     1      34.958 -22.350 -17.107  0.00  0.00    +0.038 A 
ATOM      5  C   UNL     1      36.262 -23.069 -15.123  0.00  0.00    +0.076 A 
ATOM      6  C   UNL     1      35.242 -24.188 -13.231  0.00  0.00    +0.004 C 
ATOM      7  C   UNL     1      36.132 -21.849 -17.672  0.00  0.00    +0.152 A 
ATOM      8  C   UNL     1      36.369 -23.666 -13.856  0.00  0.00    +0.004 C 
ATOM      9  C   UNL     1      33.902 -23.520 -15.126  0.00  0.00    +0.000 C 
ATOM     10  C   UNL     1      33.785 -22.206 -17.866  0.00  0.00    +0.043 C 
ATOM     11  C   UNL     1      34.009 -24.116 -13.865  0.00  0.00    -0.002 C 
ATOM     12  C   UNL     1      37.500 -22.531 -15.738  0.00  0.00    +0.346 A 
ATOM     13  C   UNL     1      36.171 -21.231 -18.925  0.00  0.00    +0.078 C 
ATOM     14  C   UNL     1      34.995 -21.103 -19.653  0.00  0.00    +0.176 C 
ATOM     15  C   UNL     1      33.802 -21.590 -19.125  0.00  0.00    +0.173 C 
ENDROOT
BRANCH  15  16
ATOM     16  O   UNL     1      32.640 -21.473 -19.826  0.00  0.00    -0.468 OA
ATOM     17  C   UNL     1      32.270 -20.163 -20.252  0.00  0.00    +0.253 C 
ENDBRANCH  15  16
BRANCH   6  18
ATOM     18  C   UNL     1      35.356 -24.823 -11.887  0.00  0.00    +0.133 C 
ATOM     19  C   UNL     1      36.789 -25.250 -11.553  0.00  0.00    +0.037 C 
BRANCH  18  20
ATOM     20  O   UNL     1      34.905 -23.915 -10.875  0.00  0.00    -0.380 OA
ATOM     21  H   UNL     1      35.545 -23.900 -10.146  0.00  0.00    +0.211 HD
ENDBRANCH  18  20
ENDBRANCH   6  18
BRANCH  14  22
ATOM     22  O   UNL     1      35.021 -20.504 -20.875  0.00  0.00    -0.467 OA
BRANCH  22  23
ATOM     23  C   UNL     1      35.892 -19.384 -21.030  0.00  0.00    +0.232 C 
BRANCH  23  24
ATOM     24  C   UNL     1      35.349 -18.488 -22.106  0.00  0.00    +0.021 C 
ATOM     25  C   UNL     1      34.680 -19.042 -23.190  0.00  0.00    +0.002 C 
ATOM     26  C   UNL     1      35.523 -17.111 -22.007  0.00  0.00    +0.002 C 
ATOM     27  C   UNL     1      34.176 -18.209 -24.191  0.00  0.00    +0.037 C 
ATOM     28  C   UNL     1      35.020 -16.279 -23.007  0.00  0.00    +0.037 C 
ATOM     29  C   UNL     1      34.347 -16.828 -24.098  0.00  0.00    +0.139 C 
BRANCH  29  30
ATOM     30  O   UNL     1      33.855 -16.015 -25.073  0.00  0.00    -0.471 OA
ATOM     31  C   UNL     1      33.690 -14.636 -24.748  0.00  0.00    +0.252 C 
ENDBRANCH  29  30
ENDBRANCH  23  24
ENDBRANCH  22  23
ENDBRANCH  14  22
TORSDOF 7
ENDMDL
MODEL 3
REMARK VINA RESULT:     -10.6      1.913      8.928
REMARK  Name = 11998575
REMARK  7 active torsions:
REMARK  status: ('A' for Active; 'I' for Inactive)
REMARK    1  A    between atoms: C_6  and  C_18
REMARK    2  A    between atoms: C_14  and  O_22
REMARK    3  A    between atoms: C_15  and  O_16
REMARK    4  A    between atoms: C_18  and  O_20
REMARK    5  A    between atoms: O_22  and  C_23
REMARK    6  A    between atoms: C_23  and  C_24
REMARK    7  A    between atoms: C_29  and  O_30
REMARK                            x       y       z     vdW  Elec       q    Type
REMARK                         _______ _______ _______ _____ _____    ______ ____
ROOT
ATOM      1  O   UNL     1      35.965 -22.638 -16.624  0.00  0.00    -0.421 OA
ATOM      2  O   UNL     1      35.948 -23.763 -14.641  0.00  0.00    -0.244 OA
ATOM      3  C   UNL     1      33.137 -22.642 -16.653  0.00  0.00    +0.009 A 
ATOM      4  C   UNL     1      33.888 -22.016 -17.748  0.00  0.00    +0.038 A 
ATOM      5  C   UNL     1      33.837 -23.239 -15.590  0.00  0.00    +0.076 A 
ATOM      6  C   UNL     1      31.766 -23.870 -14.501  0.00  0.00    +0.004 C 
ATOM      7  C   UNL     1      35.284 -22.033 -17.701  0.00  0.00    +0.152 A 
ATOM      8  C   UNL     1      33.156 -23.848 -14.523  0.00  0.00    +0.004 C 
ATOM      9  C   UNL     1      31.730 -22.680 -16.603  0.00  0.00    +0.000 C 
ATOM     10  C   UNL     1      33.305 -21.390 -18.862  0.00  0.00    +0.043 C 
ATOM     11  C   UNL     1      31.053 -23.287 -15.541  0.00  0.00    -0.002 C 
ATOM     12  C   UNL     1      35.319 -23.249 -15.557  0.00  0.00    +0.346 A 
ATOM     13  C   UNL     1      36.086 -21.466 -18.695  0.00  0.00    +0.078 C 
ATOM     14  C   UNL     1      35.480 -20.853 -19.786  0.00  0.00    +0.176 C 
ATOM     15  C   UNL     1      34.092 -20.815 -19.870  0.00  0.00    +0.173 C 
ENDROOT
BRANCH  15  16
ATOM     16  O   UNL     1      33.482 -20.219 -20.933  0.00  0.00    -0.468 OA
ATOM     17  C   UNL     1      32.058 -20.166 -20.916  0.00  0.00    +0.253 C 
ENDBRANCH  15  16
BRANCH   6  18
ATOM     18  C   UNL     1      31.044 -24.518 -13.369  0.00  0.00    +0.133 C 
ATOM     19  C   UNL     1      29.859 -25.372 -13.833  0.00  0.00    +0.037 C 
BRANCH  18  20
ATOM     20  O   UNL     1      31.942 -25.352 -12.627  0.00  0.00    -0.380 OA
ATOM     21  H   UNL     1      31.811 -25.202 -11.678  0.00  0.00    +0.211 HD
ENDBRANCH  18  20
ENDBRANCH   6  18
BRANCH  14  22
ATOM     22  O   UNL     1      36.252 -20.299 -20.761  0.00  0.00    -0.467 OA
BRANCH  22  23
ATOM     23  C   UNL     1      36.533 -18.904 -20.650  0.00  0.00    +0.232 C 
BRANCH  23  24
ATOM     24  C   UNL     1      35.858 -18.179 -21.778  0.00  0.00    +0.021 C 
ATOM     25  C   UNL     1      35.482 -18.877 -22.919  0.00  0.00    +0.002 C 
ATOM     26  C   UNL     1      35.617 -16.812 -21.671  0.00  0.00    +0.002 C 
ATOM     27  C   UNL     1      34.855 -18.202 -23.967  0.00  0.00    +0.037 C 
ATOM     28  C   UNL     1      34.991 -16.138 -22.718  0.00  0.00    +0.037 C 
ATOM     29  C   UNL     1      34.610 -16.833 -23.866  0.00  0.00    +0.139 C 
BRANCH  29  30
ATOM     30  O   UNL     1      33.998 -16.175 -24.889  0.00  0.00    -0.471 OA
ATOM     31  C   UNL     1      33.754 -14.781 -24.711  0.00  0.00    +0.252 C 
ENDBRANCH  29  30
ENDBRANCH  23  24
ENDBRANCH  22  23
ENDBRANCH  14  22
TORSDOF 7
ENDMDL
MODEL 4
REMARK VINA RESULT:     -10.4      9.967     15.003
REMARK  Name = 11998575
REMARK  7 active torsions:
REMARK  status: ('A' for Active; 'I' for Inactive)
REMARK    1  A    between atoms: C_6  and  C_18
REMARK    2  A    between atoms: C_14  and  O_22
REMARK    3  A    between atoms: C_15  and  O_16
REMARK    4  A    between atoms: C_18  and  O_20
REMARK    5  A    between atoms: O_22  and  C_23
REMARK    6  A    between atoms: C_23  and  C_24
REMARK    7  A    between atoms: C_29  and  O_30
REMARK                            x       y       z     vdW  Elec       q    Type
REMARK                         _______ _______ _______ _____ _____    ______ ____
ROOT
ATOM      1  O   UNL     1      34.677  -7.354 -24.281  0.00  0.00    -0.421 OA
ATOM      2  O   UNL     1      34.980  -5.165 -24.844  0.00  0.00    -0.244 OA
ATOM      3  C   UNL     1      32.421  -6.645 -22.731  0.00  0.00    +0.009 A 
ATOM      4  C   UNL     1      32.844  -8.048 -22.824  0.00  0.00    +0.038 A 
ATOM      5  C   UNL     1      33.148  -5.658 -23.419  0.00  0.00    +0.076 A 
ATOM      6  C   UNL     1      31.672  -3.917 -22.604  0.00  0.00    +0.004 C 
ATOM      7  C   UNL     1      33.963  -8.361 -23.598  0.00  0.00    +0.152 A 
ATOM      8  C   UNL     1      32.775  -4.305 -23.356  0.00  0.00    +0.004 C 
ATOM      9  C   UNL     1      31.308  -6.222 -21.978  0.00  0.00    +0.000 C 
ATOM     10  C   UNL     1      32.203  -9.121 -22.184  0.00  0.00    +0.043 C 
ATOM     11  C   UNL     1      30.939  -4.874 -21.915  0.00  0.00    -0.002 C 
ATOM     12  C   UNL     1      34.334  -6.009 -24.236  0.00  0.00    +0.346 A 
ATOM     13  C   UNL     1      34.444  -9.665 -23.748  0.00  0.00    +0.078 C 
ATOM     14  C   UNL     1      33.789 -10.706 -23.102  0.00  0.00    +0.176 C 
ATOM     15  C   UNL     1      32.670 -10.435 -22.321  0.00  0.00    +0.173 C 
ENDROOT
BRANCH  15  16
ATOM     16  O   UNL     1      32.016 -11.445 -21.680  0.00  0.00    -0.468 OA
ATOM     17  C   UNL     1      31.656 -11.222 -20.319  0.00  0.00    +0.253 C 
ENDBRANCH  15  16
BRANCH   6  18
ATOM     18  C   UNL     1      31.278  -2.481 -22.537  0.00  0.00    +0.133 C 
ATOM     19  C   UNL     1      30.878  -1.911 -23.902  0.00  0.00    +0.037 C 
BRANCH  18  20
ATOM     20  O   UNL     1      30.176  -2.316 -21.636  0.00  0.00    -0.380 OA
ATOM     21  H   UNL     1      29.842  -1.408 -21.697  0.00  0.00    +0.211 HD
ENDBRANCH  18  20
ENDBRANCH   6  18
BRANCH  14  22
ATOM     22  O   UNL     1      34.250 -11.980 -23.240  0.00  0.00    -0.467 OA
BRANCH  22  23
ATOM     23  C   UNL     1      33.363 -12.931 -23.827  0.00  0.00    +0.232 C 
BRANCH  23  24
ATOM     24  C   UNL     1      33.903 -14.312 -23.594  0.00  0.00    +0.021 C 
ATOM     25  C   UNL     1      34.495 -14.624 -22.377  0.00  0.00    +0.002 C 
ATOM     26  C   UNL     1      33.808 -15.267 -24.602  0.00  0.00    +0.002 C 
ATOM     27  C   UNL     1      34.998 -15.908 -22.161  0.00  0.00    +0.037 C 
ATOM     28  C   UNL     1      34.311 -16.550 -24.387  0.00  0.00    +0.037 C 
ATOM     29  C   UNL     1      34.905 -16.870 -23.167  0.00  0.00    +0.139 C 
BRANCH  29  30
ATOM     30  O   UNL     1      35.395 -18.122 -22.956  0.00  0.00    -0.471 OA
ATOM     31  C   UNL     1      34.579 -19.217 -23.368  0.00  0.00    +0.252 C 
ENDBRANCH  29  30
ENDBRANCH  23  24
ENDBRANCH  22  23
ENDBRANCH  14  22
TORSDOF 7
ENDMDL
MODEL 5
REMARK VINA RESULT:     -10.3      7.916     12.729
REMARK  Name = 11998575
REMARK  7 active torsions:
REMARK  status: ('A' for Active; 'I' for Inactive)
REMARK    1  A    between atoms: C_6  and  C_18
REMARK    2  A    between atoms: C_14  and  O_22
REMARK    3  A    between atoms: C_15  and  O_16
REMARK    4  A    between atoms: C_18  and  O_20
REMARK    5  A    between atoms: O_22  and  C_23
REMARK    6  A    between atoms: C_23  and  C_24
REMARK    7  A    between atoms: C_29  and  O_30
REMARK                            x       y       z     vdW  Elec       q    Type
REMARK                         _______ _______ _______ _____ _____    ______ ____
ROOT
ATOM      1  O   UNL     1      31.987 -11.324 -20.622  0.00  0.00    -0.421 OA
ATOM      2  O   UNL     1      31.276  -9.774 -19.108  0.00  0.00    -0.244 OA
ATOM      3  C   UNL     1      32.687  -9.253 -22.416  0.00  0.00    +0.009 A 
ATOM      4  C   UNL     1      32.898 -10.658 -22.788  0.00  0.00    +0.038 A 
ATOM      5  C   UNL     1      32.133  -8.947 -21.161  0.00  0.00    +0.076 A 
ATOM      6  C   UNL     1      32.246  -6.571 -21.623  0.00  0.00    +0.004 C 
ATOM      7  C   UNL     1      32.541 -11.654 -21.877  0.00  0.00    +0.152 A 
ATOM      8  C   UNL     1      31.916  -7.617 -20.768  0.00  0.00    +0.004 C 
ATOM      9  C   UNL     1      33.012  -8.173 -23.260  0.00  0.00    +0.000 C 
ATOM     10  C   UNL     1      33.441 -11.089 -24.009  0.00  0.00    +0.043 C 
ATOM     11  C   UNL     1      32.794  -6.849 -22.868  0.00  0.00    -0.002 C 
ATOM     12  C   UNL     1      31.759 -10.018 -20.206  0.00  0.00    +0.346 A 
ATOM     13  C   UNL     1      32.703 -13.018 -22.138  0.00  0.00    +0.078 C 
ATOM     14  C   UNL     1      33.242 -13.414 -23.355  0.00  0.00    +0.176 C 
ATOM     15  C   UNL     1      33.611 -12.452 -24.291  0.00  0.00    +0.173 C 
ENDROOT
BRANCH  15  16
ATOM     16  O   UNL     1      34.140 -12.824 -25.490  0.00  0.00    -0.468 OA
ATOM     17  C   UNL     1      33.508 -12.315 -26.662  0.00  0.00    +0.253 C 
ENDBRANCH  15  16
BRANCH   6  18
ATOM     18  C   UNL     1      32.013  -5.159 -21.206  0.00  0.00    +0.133 C 
ATOM     19  C   UNL     1      31.658  -4.244 -22.382  0.00  0.00    +0.037 C 
BRANCH  18  20
ATOM     20  O   UNL     1      30.951  -5.099 -20.247  0.00  0.00    -0.380 OA
ATOM     21  H   UNL     1      31.032  -5.842 -19.628  0.00  0.00    +0.211 HD
ENDBRANCH  18  20
ENDBRANCH   6  18
BRANCH  14  22
ATOM     22  O   UNL     1      33.402 -14.740 -23.621  0.00  0.00    -0.467 OA
BRANCH  22  23
ATOM     23  C   UNL     1      34.740 -15.218 -23.753  0.00  0.00    +0.232 C 
BRANCH  23  24
ATOM     24  C   UNL     1      34.869 -16.520 -23.018  0.00  0.00    +0.021 C 
ATOM     25  C   UNL     1      34.527 -17.707 -23.654  0.00  0.00    +0.002 C 
ATOM     26  C   UNL     1      35.328 -16.526 -21.704  0.00  0.00    +0.002 C 
ATOM     27  C   UNL     1      34.647 -18.918 -22.970  0.00  0.00    +0.037 C 
ATOM     28  C   UNL     1      35.447 -17.736 -21.021  0.00  0.00    +0.037 C 
ATOM     29  C   UNL     1      35.107 -18.931 -21.654  0.00  0.00    +0.139 C 
BRANCH  29  30
ATOM     30  O   UNL     1      35.223 -20.112 -20.987  0.00  0.00    -0.471 OA
ATOM     31  C   UNL     1      34.208 -20.423 -20.034  0.00  0.00    +0.252 C 
ENDBRANCH  29  30
ENDBRANCH  23  24
ENDBRANCH  22  23
ENDBRANCH  14  22
TORSDOF 7
ENDMDL
MODEL 6
REMARK VINA RESULT:     -10.1      3.047      4.745
REMARK  Name = 11998575
REMARK  7 active torsions:
REMARK  status: ('A' for Active; 'I' for Inactive)
REMARK    1  A    between atoms: C_6  and  C_18
REMARK    2  A    between atoms: C_14  and  O_22
REMARK    3  A    between atoms: C_15  and  O_16
REMARK    4  A    between atoms: C_18  and  O_20
REMARK    5  A    between atoms: O_22  and  C_23
REMARK    6  A    between atoms: C_23  and  C_24
REMARK    7  A    between atoms: C_29  and  O_30
REMARK                            x       y       z     vdW  Elec       q    Type
REMARK                         _______ _______ _______ _____ _____    ______ ____
ROOT
ATOM      1  O   UNL     1      32.749 -21.333 -19.482  0.00  0.00    -0.421 OA
ATOM      2  O   UNL     1      31.766 -20.220 -21.212  0.00  0.00    -0.244 OA
ATOM      3  C   UNL     1      35.232 -20.138 -20.122  0.00  0.00    +0.009 A 
ATOM      4  C   UNL     1      35.128 -21.071 -18.992  0.00  0.00    +0.038 A 
ATOM      5  C   UNL     1      34.086 -19.846 -20.882  0.00  0.00    +0.076 A 
ATOM      6  C   UNL     1      35.346 -18.352 -22.316  0.00  0.00    +0.004 C 
ATOM      7  C   UNL     1      33.886 -21.641 -18.705  0.00  0.00    +0.152 A 
ATOM      8  C   UNL     1      34.144 -18.959 -21.970  0.00  0.00    +0.004 C 
ATOM      9  C   UNL     1      36.435 -19.508 -20.496  0.00  0.00    +0.000 C 
ATOM     10  C   UNL     1      36.197 -21.442 -18.161  0.00  0.00    +0.043 C 
ATOM     11  C   UNL     1      36.491 -18.626 -21.580  0.00  0.00    -0.002 C 
ATOM     12  C   UNL     1      32.776 -20.462 -20.563  0.00  0.00    +0.346 A 
ATOM     13  C   UNL     1      33.686 -22.539 -17.653  0.00  0.00    +0.078 C 
ATOM     14  C   UNL     1      34.763 -22.889 -16.848  0.00  0.00    +0.176 C 
ATOM     15  C   UNL     1      36.017 -22.341 -17.101  0.00  0.00    +0.173 C 
ENDROOT
BRANCH  15  16
ATOM     16  O   UNL     1      37.084 -22.674 -16.320  0.00  0.00    -0.468 OA
ATOM     17  C   UNL     1      37.762 -21.606 -15.663  0.00  0.00    +0.253 C 
ENDBRANCH  15  16
BRANCH   6  18
ATOM     18  C   UNL     1      35.407 -17.412 -23.472  0.00  0.00    +0.133 C 
ATOM     19  C   UNL     1      34.101 -17.372 -24.272  0.00  0.00    +0.037 C 
BRANCH  18  20
ATOM     20  O   UNL     1      35.698 -16.087 -23.011  0.00  0.00    -0.380 OA
ATOM     21  H   UNL     1      35.764 -16.089 -22.044  0.00  0.00    +0.211 HD
ENDBRANCH  18  20
ENDBRANCH   6  18
BRANCH  14  22
ATOM     22  O   UNL     1      34.580 -23.764 -15.821  0.00  0.00    -0.467 OA
BRANCH  22  23
ATOM     23  C   UNL     1      34.580 -23.223 -14.500  0.00  0.00    +0.232 C 
BRANCH  23  24
ATOM     24  C   UNL     1      35.346 -24.145 -13.595  0.00  0.00    +0.021 C 
ATOM     25  C   UNL     1      35.219 -24.018 -12.217  0.00  0.00    +0.002 C 
ATOM     26  C   UNL     1      36.177 -25.116 -14.145  0.00  0.00    +0.002 C 
ATOM     27  C   UNL     1      35.930 -24.875 -11.376  0.00  0.00    +0.037 C 
ATOM     28  C   UNL     1      36.888 -25.971 -13.304  0.00  0.00    +0.037 C 
ATOM     29  C   UNL     1      36.765 -25.851 -11.920  0.00  0.00    +0.139 C 
BRANCH  29  30
ATOM     30  O   UNL     1      37.459 -26.686 -11.100  0.00  0.00    -0.471 OA
ATOM     31  C   UNL     1      37.708 -28.007 -11.577  0.00  0.00    +0.252 C 
ENDBRANCH  29  30
ENDBRANCH  23  24
ENDBRANCH  22  23
ENDBRANCH  14  22
TORSDOF 7
ENDMDL
MODEL 7
REMARK VINA RESULT:     -10.1      3.136      5.561
REMARK  Name = 11998575
REMARK  7 active torsions:
REMARK  status: ('A' for Active; 'I' for Inactive)
REMARK    1  A    between atoms: C_6  and  C_18
REMARK    2  A    between atoms: C_14  and  O_22
REMARK    3  A    between atoms: C_15  and  O_16
REMARK    4  A    between atoms: C_18  and  O_20
REMARK    5  A    between atoms: O_22  and  C_23
REMARK    6  A    between atoms: C_23  and  C_24
REMARK    7  A    between atoms: C_29  and  O_30
REMARK                            x       y       z     vdW  Elec       q    Type
REMARK                         _______ _______ _______ _____ _____    ______ ____
ROOT
ATOM      1  O   UNL     1      33.516 -22.185 -18.109  0.00  0.00    -0.421 OA
ATOM      2  O   UNL     1      32.364 -21.393 -19.910  0.00  0.00    -0.244 OA
ATOM      3  C   UNL     1      35.843 -20.853 -19.009  0.00  0.00    +0.009 A 
ATOM      4  C   UNL     1      35.874 -21.643 -17.771  0.00  0.00    +0.038 A 
ATOM      5  C   UNL     1      34.647 -20.765 -19.741  0.00  0.00    +0.076 A 
ATOM      6  C   UNL     1      35.698 -19.350 -21.404  0.00  0.00    +0.004 C 
ATOM      7  C   UNL     1      34.706 -22.287 -17.357  0.00  0.00    +0.152 A 
ATOM      8  C   UNL     1      34.575 -20.019 -20.929  0.00  0.00    +0.004 C 
ATOM      9  C   UNL     1      36.963 -20.165 -19.514  0.00  0.00    +0.000 C 
ATOM     10  C   UNL     1      37.005 -21.807 -16.955  0.00  0.00    +0.043 C 
ATOM     11  C   UNL     1      36.891 -19.423 -20.698  0.00  0.00    -0.002 C 
ATOM     12  C   UNL     1      33.416 -21.456 -19.287  0.00  0.00    +0.346 A 
ATOM     13  C   UNL     1      34.635 -23.062 -16.196  0.00  0.00    +0.078 C 
ATOM     14  C   UNL     1      35.771 -23.206 -15.409  0.00  0.00    +0.176 C 
ATOM     15  C   UNL     1      36.955 -22.580 -15.787  0.00  0.00    +0.173 C 
ENDROOT
BRANCH  15  16
ATOM     16  O   UNL     1      38.078 -22.712 -15.026  0.00  0.00    -0.468 OA
ATOM     17  C   UNL     1      38.983 -23.753 -15.384  0.00  0.00    +0.253 C 
ENDBRANCH  15  16
BRANCH   6  18
ATOM     18  C   UNL     1      35.622 -18.560 -22.666  0.00  0.00    +0.133 C 
ATOM     19  C   UNL     1      34.307 -18.776 -23.422  0.00  0.00    +0.037 C 
BRANCH  18  20
ATOM     20  O   UNL     1      35.757 -17.163 -22.379  0.00  0.00    -0.380 OA
ATOM     21  H   UNL     1      35.618 -17.014 -21.431  0.00  0.00    +0.211 HD
ENDBRANCH  18  20
ENDBRANCH   6  18
BRANCH  14  22
ATOM     22  O   UNL     1      35.714 -23.960 -14.276  0.00  0.00    -0.467 OA
BRANCH  22  23
ATOM     23  C   UNL     1      35.311 -25.321 -14.423  0.00  0.00    +0.232 C 
BRANCH  23  24
ATOM     24  C   UNL     1      36.519 -26.204 -14.312  0.00  0.00    +0.021 C 
ATOM     25  C   UNL     1      37.308 -26.151 -13.169  0.00  0.00    +0.002 C 
ATOM     26  C   UNL     1      36.840 -27.066 -15.356  0.00  0.00    +0.002 C 
ATOM     27  C   UNL     1      38.433 -26.971 -13.067  0.00  0.00    +0.037 C 
ATOM     28  C   UNL     1      37.963 -27.886 -15.254  0.00  0.00    +0.037 C 
ATOM     29  C   UNL     1      38.759 -27.839 -14.109  0.00  0.00    +0.139 C 
BRANCH  29  30
ATOM     30  O   UNL     1      39.856 -28.639 -14.009  0.00  0.00    -0.471 OA
ATOM     31  C   UNL     1      40.948 -28.357 -14.882  0.00  0.00    +0.252 C 
ENDBRANCH  29  30
ENDBRANCH  23  24
ENDBRANCH  22  23
ENDBRANCH  14  22
TORSDOF 7
ENDMDL
MODEL 8
REMARK VINA RESULT:     -10.0      2.144      5.520
REMARK  Name = 11998575
REMARK  7 active torsions:
REMARK  status: ('A' for Active; 'I' for Inactive)
REMARK    1  A    between atoms: C_6  and  C_18
REMARK    2  A    between atoms: C_14  and  O_22
REMARK    3  A    between atoms: C_15  and  O_16
REMARK    4  A    between atoms: C_18  and  O_20
REMARK    5  A    between atoms: O_22  and  C_23
REMARK    6  A    between atoms: C_23  and  C_24
REMARK    7  A    between atoms: C_29  and  O_30
REMARK                            x       y       z     vdW  Elec       q    Type
REMARK                         _______ _______ _______ _____ _____    ______ ____
ROOT
ATOM      1  O   UNL     1      36.017 -22.210 -17.454  0.00  0.00    -0.421 OA
ATOM      2  O   UNL     1      37.358 -21.126 -18.947  0.00  0.00    -0.244 OA
ATOM      3  C   UNL     1      33.732 -21.368 -18.893  0.00  0.00    +0.009 A 
ATOM      4  C   UNL     1      33.586 -22.191 -17.686  0.00  0.00    +0.038 A 
ATOM      5  C   UNL     1      35.018 -21.003 -19.327  0.00  0.00    +0.076 A 
ATOM      6  C   UNL     1      34.103 -19.784 -21.211  0.00  0.00    +0.004 C 
ATOM      7  C   UNL     1      34.736 -22.588 -17.000  0.00  0.00    +0.152 A 
ATOM      8  C   UNL     1      35.201 -20.218 -20.477  0.00  0.00    +0.004 C 
ATOM      9  C   UNL     1      32.639 -20.915 -19.657  0.00  0.00    +0.000 C 
ATOM     10  C   UNL     1      32.358 -22.618 -17.153  0.00  0.00    +0.043 C 
ATOM     11  C   UNL     1      32.822 -20.132 -20.801  0.00  0.00    -0.002 C 
ATOM     12  C   UNL     1      36.229 -21.433 -18.586  0.00  0.00    +0.346 A 
ATOM     13  C   UNL     1      34.700 -23.370 -15.842  0.00  0.00    +0.078 C 
ATOM     14  C   UNL     1      33.471 -23.777 -15.339  0.00  0.00    +0.176 C 
ATOM     15  C   UNL     1      32.301 -23.402 -15.993  0.00  0.00    +0.173 C 
ENDROOT
BRANCH  15  16
ATOM     16  O   UNL     1      31.087 -23.793 -15.512  0.00  0.00    -0.468 OA
ATOM     17  C   UNL     1      29.981 -22.931 -15.768  0.00  0.00    +0.253 C 
ENDBRANCH  15  16
BRANCH   6  18
ATOM     18  C   UNL     1      34.297 -18.949 -22.430  0.00  0.00    +0.133 C 
ATOM     19  C   UNL     1      35.362 -17.864 -22.242  0.00  0.00    +0.037 C 
BRANCH  18  20
ATOM     20  O   UNL     1      34.683 -19.777 -23.535  0.00  0.00    -0.380 OA
ATOM     21  H   UNL     1      35.197 -20.531 -23.208  0.00  0.00    +0.211 HD
ENDBRANCH  18  20
ENDBRANCH   6  18
BRANCH  14  22
ATOM     22  O   UNL     1      33.424 -24.538 -14.211  0.00  0.00    -0.467 OA
BRANCH  22  23
ATOM     23  C   UNL     1      33.893 -23.938 -13.004  0.00  0.00    +0.232 C 
BRANCH  23  24
ATOM     24  C   UNL     1      35.368 -24.183 -12.877  0.00  0.00    +0.021 C 
ATOM     25  C   UNL     1      36.187 -23.196 -12.342  0.00  0.00    +0.002 C 
ATOM     26  C   UNL     1      35.903 -25.397 -13.298  0.00  0.00    +0.002 C 
ATOM     27  C   UNL     1      37.559 -23.425 -12.224  0.00  0.00    +0.037 C 
ATOM     28  C   UNL     1      37.273 -25.626 -13.180  0.00  0.00    +0.037 C 
ATOM     29  C   UNL     1      38.101 -24.640 -12.644  0.00  0.00    +0.139 C 
BRANCH  29  30
ATOM     30  O   UNL     1      39.439 -24.863 -12.529  0.00  0.00    -0.471 OA
ATOM     31  C   UNL     1      40.100 -25.442 -13.652  0.00  0.00    +0.252 C 
ENDBRANCH  29  30
ENDBRANCH  23  24
ENDBRANCH  22  23
ENDBRANCH  14  22
TORSDOF 7
ENDMDL
MODEL 9
REMARK VINA RESULT:      -9.8      4.383      7.413
REMARK  Name = 11998575
REMARK  7 active torsions:
REMARK  status: ('A' for Active; 'I' for Inactive)
REMARK    1  A    between atoms: C_6  and  C_18
REMARK    2  A    between atoms: C_14  and  O_22
REMARK    3  A    between atoms: C_15  and  O_16
REMARK    4  A    between atoms: C_18  and  O_20
REMARK    5  A    between atoms: O_22  and  C_23
REMARK    6  A    between atoms: C_23  and  C_24
REMARK    7  A    between atoms: C_29  and  O_30
REMARK                            x       y       z     vdW  Elec       q    Type
REMARK                         _______ _______ _______ _____ _____    ______ ____
ROOT
ATOM      1  O   UNL     1      36.364 -27.318 -15.622  0.00  0.00    -0.421 OA
ATOM      2  O   UNL     1      37.013 -29.288 -16.569  0.00  0.00    -0.244 OA
ATOM      3  C   UNL     1      38.989 -26.919 -14.647  0.00  0.00    +0.009 A 
ATOM      4  C   UNL     1      37.939 -25.929 -14.376  0.00  0.00    +0.038 A 
ATOM      5  C   UNL     1      38.676 -28.068 -15.395  0.00  0.00    +0.076 A 
ATOM      6  C   UNL     1      40.953 -28.878 -15.215  0.00  0.00    +0.004 C 
ATOM      7  C   UNL     1      36.655 -26.158 -14.873  0.00  0.00    +0.152 A 
ATOM      8  C   UNL     1      39.651 -29.038 -15.677  0.00  0.00    +0.004 C 
ATOM      9  C   UNL     1      40.315 -26.785 -14.193  0.00  0.00    +0.000 C 
ATOM     10  C   UNL     1      38.127 -24.746 -13.642  0.00  0.00    +0.043 C 
ATOM     11  C   UNL     1      41.285 -27.753 -14.473  0.00  0.00    -0.002 C 
ATOM     12  C   UNL     1      37.306 -28.295 -15.915  0.00  0.00    +0.346 A 
ATOM     13  C   UNL     1      35.590 -25.276 -14.667  0.00  0.00    +0.078 C 
ATOM     14  C   UNL     1      35.806 -24.114 -13.937  0.00  0.00    +0.176 C 
ATOM     15  C   UNL     1      37.072 -23.849 -13.424  0.00  0.00    +0.173 C 
ENDROOT
BRANCH  15  16
ATOM     16  O   UNL     1      37.300 -22.713 -12.705  0.00  0.00    -0.468 OA
ATOM     17  C   UNL     1      37.486 -22.864 -11.300  0.00  0.00    +0.253 C 
ENDBRANCH  15  16
BRANCH   6  18
ATOM     18  C   UNL     1      41.987 -29.910 -15.513  0.00  0.00    +0.133 C 
ATOM     19  C   UNL     1      42.435 -29.894 -16.978  0.00  0.00    +0.037 C 
BRANCH  18  20
ATOM     20  O   UNL     1      43.137 -29.705 -14.684  0.00  0.00    -0.380 OA
ATOM     21  H   UNL     1      43.636 -30.534 -14.613  0.00  0.00    +0.211 HD
ENDBRANCH  18  20
ENDBRANCH   6  18
BRANCH  14  22
ATOM     22  O   UNL     1      34.776 -23.249 -13.729  0.00  0.00    -0.467 OA
BRANCH  22  23
ATOM     23  C   UNL     1      33.564 -23.795 -13.209  0.00  0.00    +0.232 C 
BRANCH  23  24
ATOM     24  C   UNL     1      32.434 -23.444 -14.133  0.00  0.00    +0.021 C 
ATOM     25  C   UNL     1      32.690 -23.220 -15.480  0.00  0.00    +0.002 C 
ATOM     26  C   UNL     1      31.140 -23.345 -13.630  0.00  0.00    +0.002 C 
ATOM     27  C   UNL     1      31.639 -22.894 -16.338  0.00  0.00    +0.037 C 
ATOM     28  C   UNL     1      30.090 -23.019 -14.488  0.00  0.00    +0.037 C 
ATOM     29  C   UNL     1      30.339 -22.794 -15.841  0.00  0.00    +0.139 C 
BRANCH  29  30
ATOM     30  O   UNL     1      29.314 -22.476 -16.679  0.00  0.00    -0.471 OA
ATOM     31  C   UNL     1      27.999 -22.836 -16.261  0.00  0.00    +0.252 C 
ENDBRANCH  29  30
ENDBRANCH  23  24
ENDBRANCH  22  23
ENDBRANCH  14  22
TORSDOF 7
ENDMDL
