MODEL 1
REMARK VINA RESULT:     -11.4      0.000      0.000
REMARK  Name = 25058128
REMARK  13 active torsions:
REMARK  status: ('A' for Active; 'I' for Inactive)
REMARK    1  A    between atoms: C_1  and  S_11
REMARK    2  A    between atoms: C_9  and  O_27
REMARK    3  A    between atoms: S_11  and  N_14
REMARK    4  A    between atoms: N_14  and  C_16
REMARK    5  A    between atoms: C_16  and  C_18
REMARK    6  A    between atoms: C_16  and  C_21
REMARK    7  A    between atoms: C_18  and  O_19
REMARK    8  A    between atoms: C_21  and  C_22
REMARK    9  A    between atoms: C_22  and  C_24
REMARK   10  A    between atoms: C_24  and  O_25
REMARK   11  A    between atoms: O_27  and  C_28
REMARK   12  A    between atoms: C_28  and  C_30
REMARK   13  A    between atoms: C_35  and  C_37
REMARK                            x       y       z     vdW  Elec       q    Type
REMARK                         _______ _______ _______ _____ _____    ______ ____
ROOT
ATOM      1  C   UNL     1      35.578 -22.444 -16.639  0.00  0.00    +0.122 C 
ATOM      2  C   UNL     1      34.312 -21.522 -18.500  0.00  0.00    +0.002 C 
ATOM      3  C   UNL     1      34.361 -22.219 -17.281  0.00  0.00    +0.020 C 
ATOM      4  C   UNL     1      35.516 -21.049 -19.075  0.00  0.00    +0.003 C 
ATOM      5  C   UNL     1      36.761 -21.978 -17.203  0.00  0.00    +0.020 C 
ATOM      6  C   UNL     1      36.732 -21.284 -18.414  0.00  0.00    +0.001 C 
ATOM      7  C   UNL     1      35.468 -20.352 -20.293  0.00  0.00    +0.037 C 
ATOM      8  C   UNL     1      33.096 -21.286 -19.162  0.00  0.00    +0.003 C 
ATOM      9  C   UNL     1      34.250 -20.126 -20.936  0.00  0.00    +0.139 C 
ATOM     10  C   UNL     1      33.067 -20.592 -20.372  0.00  0.00    +0.037 C 
ENDROOT
BRANCH   1  11
ATOM     11  S   UNL     1      35.617 -23.323 -15.105  0.00  0.00    +0.061 S 
ATOM     12  O   UNL     1      35.526 -24.739 -15.398  0.00  0.00    -0.153 OA
ATOM     13  O   UNL     1      36.742 -22.804 -14.350  0.00  0.00    -0.153 OA
BRANCH  11  14
ATOM     14  N   UNL     1      34.176 -22.805 -14.369  0.00  0.00    -0.170 NA
ATOM     15  H   UNL     1      33.939 -21.904 -14.785  0.00  0.00    +0.149 HD
BRANCH  14  16
ATOM     16  C   UNL     1      32.961 -23.645 -14.450  0.00  0.00    +0.174 C 
BRANCH  16  18
ATOM     17  O   UNL     1      33.604 -24.356 -12.216  0.00  0.00    -0.249 OA
ATOM     18  C   UNL     1      32.895 -24.495 -13.204  0.00  0.00    +0.330 C 
BRANCH  18  19
ATOM     19  O   UNL     1      31.927 -25.445 -13.282  0.00  0.00    -0.479 OA
ATOM     20  H   UNL     1      31.698 -25.944 -12.523  0.00  0.00    +0.295 HD
ENDBRANCH  18  19
ENDBRANCH  16  18
BRANCH  16  21
ATOM     21  C   UNL     1      31.722 -22.775 -14.696  0.00  0.00    +0.040 C 
BRANCH  21  22
ATOM     22  C   UNL     1      30.986 -22.997 -16.020  0.00  0.00    +0.111 C 
BRANCH  22  24
ATOM     23  O   UNL     1      28.792 -22.125 -16.534  0.00  0.00    -0.250 OA
ATOM     24  C   UNL     1      29.485 -22.915 -15.905  0.00  0.00    +0.314 C 
BRANCH  24  25
ATOM     25  O   UNL     1      28.976 -23.802 -15.014  0.00  0.00    -0.480 OA
ATOM     26  H   UNL     1      28.588 -24.600 -15.317  0.00  0.00    +0.295 HD
ENDBRANCH  24  25
ENDBRANCH  22  24
ENDBRANCH  21  22
ENDBRANCH  16  21
ENDBRANCH  14  16
ENDBRANCH  11  14
ENDBRANCH   1  11
BRANCH   9  27
ATOM     27  O   UNL     1      34.219 -19.448 -22.116  0.00  0.00    -0.471 OA
BRANCH  27  28
ATOM     28  C   UNL     1      35.388 -18.712 -22.473  0.00  0.00    +0.234 C 
BRANCH  28  30
ATOM     29  F   UNL     1      35.327 -16.738 -20.445  0.00  0.00    -0.204 F 
ATOM     30  C   UNL     1      35.008 -17.284 -22.732  0.00  0.00    +0.049 C 
ATOM     31  C   UNL     1      34.997 -16.360 -21.688  0.00  0.00    +0.140 C 
ATOM     32  C   UNL     1      34.663 -16.881 -24.023  0.00  0.00    +0.002 C 
ATOM     33  C   UNL     1      34.642 -15.034 -21.933  0.00  0.00    +0.040 C 
ATOM     34  C   UNL     1      34.308 -15.555 -24.268  0.00  0.00    +0.010 C 
ATOM     35  C   UNL     1      34.297 -14.631 -23.223  0.00  0.00    +0.071 C 
BRANCH  35  37
ATOM     36  N   UNL     1      33.640 -12.168 -23.679  0.00  0.00    -0.191 NA
ATOM     37  C   UNL     1      33.935 -13.272 -23.474  0.00  0.00    +0.100 C 
ENDBRANCH  35  37
ENDBRANCH  28  30
ENDBRANCH  27  28
ENDBRANCH   9  27
TORSDOF 13
ENDMDL
MODEL 2
REMARK VINA RESULT:     -11.2      1.578      2.545
REMARK  Name = 25058128
REMARK  13 active torsions:
REMARK  status: ('A' for Active; 'I' for Inactive)
REMARK    1  A    between atoms: C_1  and  S_11
REMARK    2  A    between atoms: C_9  and  O_27
REMARK    3  A    between atoms: S_11  and  N_14
REMARK    4  A    between atoms: N_14  and  C_16
REMARK    5  A    between atoms: C_16  and  C_18
REMARK    6  A    between atoms: C_16  and  C_21
REMARK    7  A    between atoms: C_18  and  O_19
REMARK    8  A    between atoms: C_21  and  C_22
REMARK    9  A    between atoms: C_22  and  C_24
REMARK   10  A    between atoms: C_24  and  O_25
REMARK   11  A    between atoms: O_27  and  C_28
REMARK   12  A    between atoms: C_28  and  C_30
REMARK   13  A    between atoms: C_35  and  C_37
REMARK                            x       y       z     vdW  Elec       q    Type
REMARK                         _______ _______ _______ _____ _____    ______ ____
ROOT
ATOM      1  C   UNL     1      33.974 -21.849 -18.667  0.00  0.00    +0.122 C 
ATOM      2  C   UNL     1      35.387 -20.358 -19.971  0.00  0.00    +0.002 C 
ATOM      3  C   UNL     1      35.237 -21.357 -18.995  0.00  0.00    +0.020 C 
ATOM      4  C   UNL     1      34.237 -19.852 -20.624  0.00  0.00    +0.003 C 
ATOM      5  C   UNL     1      32.845 -21.352 -19.310  0.00  0.00    +0.020 C 
ATOM      6  C   UNL     1      32.974 -20.360 -20.282  0.00  0.00    +0.001 C 
ATOM      7  C   UNL     1      34.386 -18.853 -21.600  0.00  0.00    +0.037 C 
ATOM      8  C   UNL     1      36.650 -19.850 -20.313  0.00  0.00    +0.003 C 
ATOM      9  C   UNL     1      35.649 -18.360 -21.928  0.00  0.00    +0.139 C 
ATOM     10  C   UNL     1      36.779 -18.857 -21.285  0.00  0.00    +0.037 C 
ENDROOT
BRANCH   1  11
ATOM     11  S   UNL     1      33.809 -23.107 -17.436  0.00  0.00    +0.061 S 
ATOM     12  O   UNL     1      33.460 -24.344 -18.105  0.00  0.00    -0.153 OA
ATOM     13  O   UNL     1      34.992 -23.037 -16.600  0.00  0.00    -0.153 OA
BRANCH  11  14
ATOM     14  N   UNL     1      32.473 -22.550 -16.545  0.00  0.00    -0.170 NA
ATOM     15  H   UNL     1      31.784 -22.219 -17.222  0.00  0.00    +0.149 HD
BRANCH  14  16
ATOM     16  C   UNL     1      31.762 -23.466 -15.627  0.00  0.00    +0.174 C 
BRANCH  16  18
ATOM     17  O   UNL     1      32.704 -24.739 -13.780  0.00  0.00    -0.249 OA
ATOM     18  C   UNL     1      32.643 -23.698 -14.423  0.00  0.00    +0.330 C 
BRANCH  18  19
ATOM     19  O   UNL     1      33.399 -22.609 -14.124  0.00  0.00    -0.479 OA
ATOM     20  H   UNL     1      33.318 -21.828 -14.634  0.00  0.00    +0.295 HD
ENDBRANCH  18  19
ENDBRANCH  16  18
BRANCH  16  21
ATOM     21  C   UNL     1      30.366 -22.923 -15.301  0.00  0.00    +0.040 C 
BRANCH  21  22
ATOM     22  C   UNL     1      29.182 -23.816 -15.682  0.00  0.00    +0.111 C 
BRANCH  22  24
ATOM     23  O   UNL     1      27.935 -21.914 -16.495  0.00  0.00    -0.250 OA
ATOM     24  C   UNL     1      28.138 -23.122 -16.519  0.00  0.00    +0.314 C 
BRANCH  24  25
ATOM     25  O   UNL     1      27.428 -23.979 -17.294  0.00  0.00    -0.480 OA
ATOM     26  H   UNL     1      26.686 -24.427 -16.938  0.00  0.00    +0.295 HD
ENDBRANCH  24  25
ENDBRANCH  22  24
ENDBRANCH  21  22
ENDBRANCH  16  21
ENDBRANCH  14  16
ENDBRANCH  11  14
ENDBRANCH   1  11
BRANCH   9  27
ATOM     27  O   UNL     1      35.777 -17.393 -22.877  0.00  0.00    -0.471 OA
BRANCH  27  28
ATOM     28  C   UNL     1      34.625 -17.100 -23.665  0.00  0.00    +0.234 C 
BRANCH  28  30
ATOM     29  F   UNL     1      34.991 -15.586 -21.300  0.00  0.00    -0.204 F 
ATOM     30  C   UNL     1      34.336 -15.630 -23.581  0.00  0.00    +0.049 C 
ATOM     31  C   UNL     1      34.537 -14.943 -22.385  0.00  0.00    +0.140 C 
ATOM     32  C   UNL     1      33.864 -14.951 -24.705  0.00  0.00    +0.002 C 
ATOM     33  C   UNL     1      34.266 -13.576 -22.312  0.00  0.00    +0.040 C 
ATOM     34  C   UNL     1      33.592 -13.584 -24.631  0.00  0.00    +0.010 C 
ATOM     35  C   UNL     1      33.794 -12.897 -23.434  0.00  0.00    +0.071 C 
BRANCH  35  37
ATOM     36  N   UNL     1      33.296 -10.360 -23.298  0.00  0.00    -0.191 NA
ATOM     37  C   UNL     1      33.518 -11.497 -23.359  0.00  0.00    +0.100 C 
ENDBRANCH  35  37
ENDBRANCH  28  30
ENDBRANCH  27  28
ENDBRANCH   9  27
TORSDOF 13
ENDMDL
MODEL 3
REMARK VINA RESULT:     -11.1      2.905      4.806
REMARK  Name = 25058128
REMARK  13 active torsions:
REMARK  status: ('A' for Active; 'I' for Inactive)
REMARK    1  A    between atoms: C_1  and  S_11
REMARK    2  A    between atoms: C_9  and  O_27
REMARK    3  A    between atoms: S_11  and  N_14
REMARK    4  A    between atoms: N_14  and  C_16
REMARK    5  A    between atoms: C_16  and  C_18
REMARK    6  A    between atoms: C_16  and  C_21
REMARK    7  A    between atoms: C_18  and  O_19
REMARK    8  A    between atoms: C_21  and  C_22
REMARK    9  A    between atoms: C_22  and  C_24
REMARK   10  A    between atoms: C_24  and  O_25
REMARK   11  A    between atoms: O_27  and  C_28
REMARK   12  A    between atoms: C_28  and  C_30
REMARK   13  A    between atoms: C_35  and  C_37
REMARK                            x       y       z     vdW  Elec       q    Type
REMARK                         _______ _______ _______ _____ _____    ______ ____
ROOT
ATOM      1  C   UNL     1      35.670 -22.918 -15.945  0.00  0.00    +0.122 C 
ATOM      2  C   UNL     1      34.433 -22.027 -17.841  0.00  0.00    +0.002 C 
ATOM      3  C   UNL     1      34.473 -22.759 -16.643  0.00  0.00    +0.020 C 
ATOM      4  C   UNL     1      35.626 -21.448 -18.337  0.00  0.00    +0.003 C 
ATOM      5  C   UNL     1      36.842 -22.348 -16.433  0.00  0.00    +0.020 C 
ATOM      6  C   UNL     1      36.822 -21.617 -17.621  0.00  0.00    +0.001 C 
ATOM      7  C   UNL     1      35.587 -20.715 -19.534  0.00  0.00    +0.037 C 
ATOM      8  C   UNL     1      33.238 -21.857 -18.557  0.00  0.00    +0.003 C 
ATOM      9  C   UNL     1      34.389 -20.556 -20.233  0.00  0.00    +0.139 C 
ATOM     10  C   UNL     1      33.217 -21.126 -19.746  0.00  0.00    +0.037 C 
ENDROOT
BRANCH   1  11
ATOM     11  S   UNL     1      35.698 -23.844 -14.439  0.00  0.00    +0.061 S 
ATOM     12  O   UNL     1      36.143 -22.960 -13.379  0.00  0.00    -0.153 OA
ATOM     13  O   UNL     1      34.420 -24.521 -14.336  0.00  0.00    -0.153 OA
BRANCH  11  14
ATOM     14  N   UNL     1      36.906 -24.995 -14.759  0.00  0.00    -0.170 NA
ATOM     15  H   UNL     1      37.799 -24.501 -14.738  0.00  0.00    +0.149 HD
BRANCH  14  16
ATOM     16  C   UNL     1      37.053 -26.177 -13.881  0.00  0.00    +0.174 C 
BRANCH  16  18
ATOM     17  O   UNL     1      36.907 -27.471 -15.935  0.00  0.00    -0.249 OA
ATOM     18  C   UNL     1      36.813 -27.412 -14.715  0.00  0.00    +0.330 C 
BRANCH  18  19
ATOM     19  O   UNL     1      36.493 -28.490 -13.953  0.00  0.00    -0.479 OA
ATOM     20  H   UNL     1      37.168 -28.986 -13.534  0.00  0.00    +0.295 HD
ENDBRANCH  18  19
ENDBRANCH  16  18
BRANCH  16  21
ATOM     21  C   UNL     1      38.406 -26.146 -13.161  0.00  0.00    +0.040 C 
BRANCH  21  22
ATOM     22  C   UNL     1      39.577 -26.819 -13.882  0.00  0.00    +0.111 C 
BRANCH  22  24
ATOM     23  O   UNL     1      40.926 -24.880 -14.390  0.00  0.00    -0.250 OA
ATOM     24  C   UNL     1      40.355 -25.891 -14.781  0.00  0.00    +0.314 C 
BRANCH  24  25
ATOM     25  O   UNL     1      40.344 -26.284 -16.079  0.00  0.00    -0.480 OA
ATOM     26  H   UNL     1      41.087 -26.113 -16.625  0.00  0.00    +0.295 HD
ENDBRANCH  24  25
ENDBRANCH  22  24
ENDBRANCH  21  22
ENDBRANCH  16  21
ENDBRANCH  14  16
ENDBRANCH  11  14
ENDBRANCH   1  11
BRANCH   9  27
ATOM     27  O   UNL     1      34.367 -19.842 -21.391  0.00  0.00    -0.471 OA
BRANCH  27  28
ATOM     28  C   UNL     1      35.484 -18.994 -21.654  0.00  0.00    +0.234 C 
BRANCH  28  30
ATOM     29  F   UNL     1      34.389 -19.269 -24.250  0.00  0.00    -0.204 F 
ATOM     30  C   UNL     1      35.030 -17.826 -22.477  0.00  0.00    +0.049 C 
ATOM     31  C   UNL     1      34.499 -18.030 -23.751  0.00  0.00    +0.140 C 
ATOM     32  C   UNL     1      35.139 -16.532 -21.966  0.00  0.00    +0.002 C 
ATOM     33  C   UNL     1      34.078 -16.940 -24.514  0.00  0.00    +0.040 C 
ATOM     34  C   UNL     1      34.718 -15.443 -22.730  0.00  0.00    +0.010 C 
ATOM     35  C   UNL     1      34.188 -15.647 -24.004  0.00  0.00    +0.071 C 
BRANCH  35  37
ATOM     36  N   UNL     1      33.403 -13.627 -25.421  0.00  0.00    -0.191 NA
ATOM     37  C   UNL     1      33.755 -14.532 -24.785  0.00  0.00    +0.100 C 
ENDBRANCH  35  37
ENDBRANCH  28  30
ENDBRANCH  27  28
ENDBRANCH   9  27
TORSDOF 13
ENDMDL
MODEL 4
REMARK VINA RESULT:     -10.9      2.494      4.170
REMARK  Name = 25058128
REMARK  13 active torsions:
REMARK  status: ('A' for Active; 'I' for Inactive)
REMARK    1  A    between atoms: C_1  and  S_11
REMARK    2  A    between atoms: C_9  and  O_27
REMARK    3  A    between atoms: S_11  and  N_14
REMARK    4  A    between atoms: N_14  and  C_16
REMARK    5  A    between atoms: C_16  and  C_18
REMARK    6  A    between atoms: C_16  and  C_21
REMARK    7  A    between atoms: C_18  and  O_19
REMARK    8  A    between atoms: C_21  and  C_22
REMARK    9  A    between atoms: C_22  and  C_24
REMARK   10  A    between atoms: C_24  and  O_25
REMARK   11  A    between atoms: O_27  and  C_28
REMARK   12  A    between atoms: C_28  and  C_30
REMARK   13  A    between atoms: C_35  and  C_37
REMARK                            x       y       z     vdW  Elec       q    Type
REMARK                         _______ _______ _______ _____ _____    ______ ____
ROOT
ATOM      1  C   UNL     1      35.626 -22.978 -16.049  0.00  0.00    +0.122 C 
ATOM      2  C   UNL     1      34.413 -22.014 -17.924  0.00  0.00    +0.002 C 
ATOM      3  C   UNL     1      34.438 -22.791 -16.754  0.00  0.00    +0.020 C 
ATOM      4  C   UNL     1      35.612 -21.418 -18.384  0.00  0.00    +0.003 C 
ATOM      5  C   UNL     1      36.805 -22.391 -16.500  0.00  0.00    +0.020 C 
ATOM      6  C   UNL     1      36.799 -21.615 -17.660  0.00  0.00    +0.001 C 
ATOM      7  C   UNL     1      35.588 -20.640 -19.553  0.00  0.00    +0.037 C 
ATOM      8  C   UNL     1      33.226 -21.815 -18.648  0.00  0.00    +0.003 C 
ATOM      9  C   UNL     1      34.399 -20.453 -20.259  0.00  0.00    +0.139 C 
ATOM     10  C   UNL     1      33.221 -21.040 -19.808  0.00  0.00    +0.037 C 
ENDROOT
BRANCH   1  11
ATOM     11  S   UNL     1      35.636 -23.960 -14.578  0.00  0.00    +0.061 S 
ATOM     12  O   UNL     1      34.608 -23.448 -13.693  0.00  0.00    -0.153 OA
ATOM     13  O   UNL     1      35.614 -25.348 -14.998  0.00  0.00    -0.153 OA
BRANCH  11  14
ATOM     14  N   UNL     1      37.166 -23.605 -13.932  0.00  0.00    -0.170 NA
ATOM     15  H   UNL     1      37.071 -22.737 -13.404  0.00  0.00    +0.149 HD
BRANCH  14  16
ATOM     16  C   UNL     1      37.834 -24.577 -13.038  0.00  0.00    +0.174 C 
BRANCH  16  18
ATOM     17  O   UNL     1      40.208 -25.052 -13.268  0.00  0.00    -0.249 OA
ATOM     18  C   UNL     1      39.076 -25.078 -13.735  0.00  0.00    +0.330 C 
BRANCH  18  19
ATOM     19  O   UNL     1      38.802 -25.594 -14.961  0.00  0.00    -0.479 OA
ATOM     20  H   UNL     1      37.956 -25.469 -15.344  0.00  0.00    +0.295 HD
ENDBRANCH  18  19
ENDBRANCH  16  18
BRANCH  16  21
ATOM     21  C   UNL     1      38.084 -23.953 -11.659  0.00  0.00    +0.040 C 
BRANCH  21  22
ATOM     22  C   UNL     1      36.874 -23.316 -10.970  0.00  0.00    +0.111 C 
BRANCH  22  24
ATOM     23  O   UNL     1      36.018 -24.533  -9.068  0.00  0.00    -0.250 OA
ATOM     24  C   UNL     1      35.978 -24.306 -10.271  0.00  0.00    +0.314 C 
BRANCH  24  25
ATOM     25  O   UNL     1      35.127 -24.936 -11.118  0.00  0.00    -0.480 OA
ATOM     26  H   UNL     1      35.423 -25.675 -11.614  0.00  0.00    +0.295 HD
ENDBRANCH  24  25
ENDBRANCH  22  24
ENDBRANCH  21  22
ENDBRANCH  16  21
ENDBRANCH  14  16
ENDBRANCH  11  14
ENDBRANCH   1  11
BRANCH   9  27
ATOM     27  O   UNL     1      34.391 -19.696 -21.390  0.00  0.00    -0.471 OA
BRANCH  27  28
ATOM     28  C   UNL     1      35.572 -18.949 -21.680  0.00  0.00    +0.234 C 
BRANCH  28  30
ATOM     29  F   UNL     1      34.847 -18.331 -24.345  0.00  0.00    -0.204 F 
ATOM     30  C   UNL     1      35.182 -17.569 -22.122  0.00  0.00    +0.049 C 
ATOM     31  C   UNL     1      34.836 -17.332 -23.453  0.00  0.00    +0.140 C 
ATOM     32  C   UNL     1      35.166 -16.523 -21.200  0.00  0.00    +0.002 C 
ATOM     33  C   UNL     1      34.475 -16.047 -23.860  0.00  0.00    +0.040 C 
ATOM     34  C   UNL     1      34.806 -15.238 -21.609  0.00  0.00    +0.010 C 
ATOM     35  C   UNL     1      34.460 -15.001 -22.939  0.00  0.00    +0.071 C 
BRANCH  35  37
ATOM     36  N   UNL     1      33.786 -12.618 -23.695  0.00  0.00    -0.191 NA
ATOM     37  C   UNL     1      34.088 -13.686 -23.357  0.00  0.00    +0.100 C 
ENDBRANCH  35  37
ENDBRANCH  28  30
ENDBRANCH  27  28
ENDBRANCH   9  27
TORSDOF 13
ENDMDL
MODEL 5
REMARK VINA RESULT:     -10.5      2.161      3.815
REMARK  Name = 25058128
REMARK  13 active torsions:
REMARK  status: ('A' for Active; 'I' for Inactive)
REMARK    1  A    between atoms: C_1  and  S_11
REMARK    2  A    between atoms: C_9  and  O_27
REMARK    3  A    between atoms: S_11  and  N_14
REMARK    4  A    between atoms: N_14  and  C_16
REMARK    5  A    between atoms: C_16  and  C_18
REMARK    6  A    between atoms: C_16  and  C_21
REMARK    7  A    between atoms: C_18  and  O_19
REMARK    8  A    between atoms: C_21  and  C_22
REMARK    9  A    between atoms: C_22  and  C_24
REMARK   10  A    between atoms: C_24  and  O_25
REMARK   11  A    between atoms: O_27  and  C_28
REMARK   12  A    between atoms: C_28  and  C_30
REMARK   13  A    between atoms: C_35  and  C_37
REMARK                            x       y       z     vdW  Elec       q    Type
REMARK                         _______ _______ _______ _____ _____    ______ ____
ROOT
ATOM      1  C   UNL     1      34.989 -22.455 -16.845  0.00  0.00    +0.122 C 
ATOM      2  C   UNL     1      33.935 -21.406 -18.769  0.00  0.00    +0.002 C 
ATOM      3  C   UNL     1      33.843 -22.125 -17.566  0.00  0.00    +0.020 C 
ATOM      4  C   UNL     1      35.209 -21.015 -19.245  0.00  0.00    +0.003 C 
ATOM      5  C   UNL     1      36.242 -22.070 -17.312  0.00  0.00    +0.020 C 
ATOM      6  C   UNL     1      36.353 -21.354 -18.505  0.00  0.00    +0.001 C 
ATOM      7  C   UNL     1      35.302 -20.295 -20.447  0.00  0.00    +0.037 C 
ATOM      8  C   UNL     1      32.791 -21.066 -19.510  0.00  0.00    +0.003 C 
ATOM      9  C   UNL     1      34.155 -19.965 -21.170  0.00  0.00    +0.139 C 
ATOM     10  C   UNL     1      32.902 -20.350 -20.703  0.00  0.00    +0.037 C 
ENDROOT
BRANCH   1  11
ATOM     11  S   UNL     1      34.851 -23.361 -15.332  0.00  0.00    +0.061 S 
ATOM     12  O   UNL     1      33.697 -22.859 -14.614  0.00  0.00    -0.153 OA
ATOM     13  O   UNL     1      34.944 -24.768 -15.674  0.00  0.00    -0.153 OA
BRANCH  11  14
ATOM     14  N   UNL     1      36.269 -22.899 -14.518  0.00  0.00    -0.170 NA
ATOM     15  H   UNL     1      36.065 -22.017 -14.047  0.00  0.00    +0.149 HD
BRANCH  14  16
ATOM     16  C   UNL     1      36.864 -23.796 -13.503  0.00  0.00    +0.174 C 
BRANCH  16  18
ATOM     17  O   UNL     1      39.015 -23.922 -14.632  0.00  0.00    -0.249 OA
ATOM     18  C   UNL     1      38.052 -24.487 -14.128  0.00  0.00    +0.330 C 
BRANCH  18  19
ATOM     19  O   UNL     1      37.954 -25.840 -14.057  0.00  0.00    -0.479 OA
ATOM     20  H   UNL     1      37.438 -26.307 -14.685  0.00  0.00    +0.295 HD
ENDBRANCH  18  19
ENDBRANCH  16  18
BRANCH  16  21
ATOM     21  C   UNL     1      37.181 -23.019 -12.219  0.00  0.00    +0.040 C 
BRANCH  21  22
ATOM     22  C   UNL     1      37.390 -23.853 -10.952  0.00  0.00    +0.111 C 
BRANCH  22  24
ATOM     23  O   UNL     1      35.266 -24.919 -10.520  0.00  0.00    -0.250 OA
ATOM     24  C   UNL     1      36.446 -25.022 -10.829  0.00  0.00    +0.314 C 
BRANCH  24  25
ATOM     25  O   UNL     1      37.047 -26.212 -11.079  0.00  0.00    -0.480 OA
ATOM     26  H   UNL     1      36.541 -27.002 -11.074  0.00  0.00    +0.295 HD
ENDBRANCH  24  25
ENDBRANCH  22  24
ENDBRANCH  21  22
ENDBRANCH  16  21
ENDBRANCH  14  16
ENDBRANCH  11  14
ENDBRANCH   1  11
BRANCH   9  27
ATOM     27  O   UNL     1      34.261 -19.266 -22.333  0.00  0.00    -0.471 OA
BRANCH  27  28
ATOM     28  C   UNL     1      35.443 -18.489 -22.519  0.00  0.00    +0.234 C 
BRANCH  28  30
ATOM     29  F   UNL     1      35.243 -16.667 -20.362  0.00  0.00    -0.204 F 
ATOM     30  C   UNL     1      35.060 -17.050 -22.697  0.00  0.00    +0.049 C 
ATOM     31  C   UNL     1      34.979 -16.204 -21.591  0.00  0.00    +0.140 C 
ATOM     32  C   UNL     1      34.785 -16.558 -23.973  0.00  0.00    +0.002 C 
ATOM     33  C   UNL     1      34.622 -14.866 -21.762  0.00  0.00    +0.040 C 
ATOM     34  C   UNL     1      34.428 -15.220 -24.143  0.00  0.00    +0.010 C 
ATOM     35  C   UNL     1      34.346 -14.374 -23.037  0.00  0.00    +0.071 C 
BRANCH  35  37
ATOM     36  N   UNL     1      33.687 -11.890 -23.354  0.00  0.00    -0.191 NA
ATOM     37  C   UNL     1      33.983 -13.003 -23.211  0.00  0.00    +0.100 C 
ENDBRANCH  35  37
ENDBRANCH  28  30
ENDBRANCH  27  28
ENDBRANCH   9  27
TORSDOF 13
ENDMDL
MODEL 6
REMARK VINA RESULT:     -10.5      2.910      4.437
REMARK  Name = 25058128
REMARK  13 active torsions:
REMARK  status: ('A' for Active; 'I' for Inactive)
REMARK    1  A    between atoms: C_1  and  S_11
REMARK    2  A    between atoms: C_9  and  O_27
REMARK    3  A    between atoms: S_11  and  N_14
REMARK    4  A    between atoms: N_14  and  C_16
REMARK    5  A    between atoms: C_16  and  C_18
REMARK    6  A    between atoms: C_16  and  C_21
REMARK    7  A    between atoms: C_18  and  O_19
REMARK    8  A    between atoms: C_21  and  C_22
REMARK    9  A    between atoms: C_22  and  C_24
REMARK   10  A    between atoms: C_24  and  O_25
REMARK   11  A    between atoms: O_27  and  C_28
REMARK   12  A    between atoms: C_28  and  C_30
REMARK   13  A    between atoms: C_35  and  C_37
REMARK                            x       y       z     vdW  Elec       q    Type
REMARK                         _______ _______ _______ _____ _____    ______ ____
ROOT
ATOM      1  C   UNL     1      36.148 -23.087 -15.336  0.00  0.00    +0.122 C 
ATOM      2  C   UNL     1      34.708 -22.407 -17.174  0.00  0.00    +0.002 C 
ATOM      3  C   UNL     1      34.900 -23.083 -15.958  0.00  0.00    +0.020 C 
ATOM      4  C   UNL     1      35.799 -21.726 -17.766  0.00  0.00    +0.003 C 
ATOM      5  C   UNL     1      37.220 -22.417 -15.917  0.00  0.00    +0.020 C 
ATOM      6  C   UNL     1      37.048 -21.740 -17.125  0.00  0.00    +0.001 C 
ATOM      7  C   UNL     1      35.608 -21.049 -18.982  0.00  0.00    +0.037 C 
ATOM      8  C   UNL     1      33.460 -22.392 -17.817  0.00  0.00    +0.003 C 
ATOM      9  C   UNL     1      34.359 -21.045 -19.606  0.00  0.00    +0.139 C 
ATOM     10  C   UNL     1      33.288 -21.715 -19.025  0.00  0.00    +0.037 C 
ENDROOT
BRANCH   1  11
ATOM     11  S   UNL     1      36.368 -23.945 -13.805  0.00  0.00    +0.061 S 
ATOM     12  O   UNL     1      36.091 -23.015 -12.728  0.00  0.00    -0.153 OA
ATOM     13  O   UNL     1      35.626 -25.187 -13.906  0.00  0.00    -0.153 OA
BRANCH  11  14
ATOM     14  N   UNL     1      38.031 -24.293 -13.836  0.00  0.00    -0.170 NA
ATOM     15  H   UNL     1      38.518 -23.402 -13.932  0.00  0.00    +0.149 HD
BRANCH  14  16
ATOM     16  C   UNL     1      38.659 -25.003 -12.699  0.00  0.00    +0.174 C 
BRANCH  16  18
ATOM     17  O   UNL     1      38.957 -23.103 -11.211  0.00  0.00    -0.249 OA
ATOM     18  C   UNL     1      38.432 -24.182 -11.453  0.00  0.00    +0.330 C 
BRANCH  18  19
ATOM     19  O   UNL     1      37.544 -24.769 -10.608  0.00  0.00    -0.479 OA
ATOM     20  H   UNL     1      37.847 -25.351  -9.940  0.00  0.00    +0.295 HD
ENDBRANCH  18  19
ENDBRANCH  16  18
BRANCH  16  21
ATOM     21  C   UNL     1      38.145 -26.445 -12.617  0.00  0.00    +0.040 C 
BRANCH  21  22
ATOM     22  C   UNL     1      38.595 -27.394 -13.731  0.00  0.00    +0.111 C 
BRANCH  22  24
ATOM     23  O   UNL     1      36.884 -28.895 -14.540  0.00  0.00    -0.250 OA
ATOM     24  C   UNL     1      37.481 -27.831 -14.648  0.00  0.00    +0.314 C 
BRANCH  24  25
ATOM     25  O   UNL     1      37.215 -26.926 -15.623  0.00  0.00    -0.480 OA
ATOM     26  H   UNL     1      37.519 -26.043 -15.537  0.00  0.00    +0.295 HD
ENDBRANCH  24  25
ENDBRANCH  22  24
ENDBRANCH  21  22
ENDBRANCH  16  21
ENDBRANCH  14  16
ENDBRANCH  11  14
ENDBRANCH   1  11
BRANCH   9  27
ATOM     27  O   UNL     1      34.190 -20.384 -20.783  0.00  0.00    -0.471 OA
BRANCH  27  28
ATOM     28  C   UNL     1      35.367 -19.942 -21.456  0.00  0.00    +0.234 C 
BRANCH  28  30
ATOM     29  F   UNL     1      35.907 -17.278 -20.667  0.00  0.00    -0.204 F 
ATOM     30  C   UNL     1      35.030 -18.753 -22.306  0.00  0.00    +0.049 C 
ATOM     31  C   UNL     1      35.321 -17.465 -21.858  0.00  0.00    +0.140 C 
ATOM     32  C   UNL     1      34.421 -18.938 -23.548  0.00  0.00    +0.002 C 
ATOM     33  C   UNL     1      35.005 -16.362 -22.652  0.00  0.00    +0.040 C 
ATOM     34  C   UNL     1      34.104 -17.835 -24.341  0.00  0.00    +0.010 C 
ATOM     35  C   UNL     1      34.396 -16.547 -23.893  0.00  0.00    +0.071 C 
BRANCH  35  37
ATOM     36  N   UNL     1      33.814 -14.499 -25.367  0.00  0.00    -0.191 NA
ATOM     37  C   UNL     1      34.074 -15.417 -24.706  0.00  0.00    +0.100 C 
ENDBRANCH  35  37
ENDBRANCH  28  30
ENDBRANCH  27  28
ENDBRANCH   9  27
TORSDOF 13
ENDMDL
MODEL 7
REMARK VINA RESULT:     -10.3      3.649      9.981
REMARK  Name = 25058128
REMARK  13 active torsions:
REMARK  status: ('A' for Active; 'I' for Inactive)
REMARK    1  A    between atoms: C_1  and  S_11
REMARK    2  A    between atoms: C_9  and  O_27
REMARK    3  A    between atoms: S_11  and  N_14
REMARK    4  A    between atoms: N_14  and  C_16
REMARK    5  A    between atoms: C_16  and  C_18
REMARK    6  A    between atoms: C_16  and  C_21
REMARK    7  A    between atoms: C_18  and  O_19
REMARK    8  A    between atoms: C_21  and  C_22
REMARK    9  A    between atoms: C_22  and  C_24
REMARK   10  A    between atoms: C_24  and  O_25
REMARK   11  A    between atoms: O_27  and  C_28
REMARK   12  A    between atoms: C_28  and  C_30
REMARK   13  A    between atoms: C_35  and  C_37
REMARK                            x       y       z     vdW  Elec       q    Type
REMARK                         _______ _______ _______ _____ _____    ______ ____
ROOT
ATOM      1  C   UNL     1      35.124 -19.441 -21.088  0.00  0.00    +0.122 C 
ATOM      2  C   UNL     1      35.311 -20.965 -19.201  0.00  0.00    +0.002 C 
ATOM      3  C   UNL     1      35.897 -20.075 -20.116  0.00  0.00    +0.020 C 
ATOM      4  C   UNL     1      33.919 -21.213 -19.274  0.00  0.00    +0.003 C 
ATOM      5  C   UNL     1      33.756 -19.685 -21.159  0.00  0.00    +0.020 C 
ATOM      6  C   UNL     1      33.156 -20.566 -20.258  0.00  0.00    +0.001 C 
ATOM      7  C   UNL     1      33.332 -22.102 -18.359  0.00  0.00    +0.037 C 
ATOM      8  C   UNL     1      36.074 -21.613 -18.216  0.00  0.00    +0.003 C 
ATOM      9  C   UNL     1      34.106 -22.737 -17.386  0.00  0.00    +0.139 C 
ATOM     10  C   UNL     1      35.473 -22.493 -17.315  0.00  0.00    +0.037 C 
ENDROOT
BRANCH   1  11
ATOM     11  S   UNL     1      35.883 -18.325 -22.231  0.00  0.00    +0.061 S 
ATOM     12  O   UNL     1      37.154 -17.910 -21.673  0.00  0.00    -0.153 OA
ATOM     13  O   UNL     1      35.828 -18.955 -23.536  0.00  0.00    -0.153 OA
BRANCH  11  14
ATOM     14  N   UNL     1      34.801 -17.014 -22.208  0.00  0.00    -0.170 NA
ATOM     15  H   UNL     1      34.886 -16.578 -21.289  0.00  0.00    +0.149 HD
BRANCH  14  16
ATOM     16  C   UNL     1      34.930 -15.932 -23.208  0.00  0.00    +0.174 C 
BRANCH  16  18
ATOM     17  O   UNL     1      33.573 -17.217 -24.763  0.00  0.00    -0.249 OA
ATOM     18  C   UNL     1      33.871 -16.140 -24.262  0.00  0.00    +0.330 C 
BRANCH  18  19
ATOM     19  O   UNL     1      33.246 -14.981 -24.597  0.00  0.00    -0.479 OA
ATOM     20  H   UNL     1      32.346 -14.991 -24.855  0.00  0.00    +0.295 HD
ENDBRANCH  18  19
ENDBRANCH  16  18
BRANCH  16  21
ATOM     21  C   UNL     1      34.888 -14.560 -22.523  0.00  0.00    +0.040 C 
BRANCH  21  22
ATOM     22  C   UNL     1      34.143 -14.488 -21.188  0.00  0.00    +0.111 C 
BRANCH  22  24
ATOM     23  O   UNL     1      32.337 -13.230 -20.191  0.00  0.00    -0.250 OA
ATOM     24  C   UNL     1      32.974 -13.536 -21.192  0.00  0.00    +0.314 C 
BRANCH  24  25
ATOM     25  O   UNL     1      32.686 -13.061 -22.430  0.00  0.00    -0.480 OA
ATOM     26  H   UNL     1      32.420 -13.652 -23.107  0.00  0.00    +0.295 HD
ENDBRANCH  24  25
ENDBRANCH  22  24
ENDBRANCH  21  22
ENDBRANCH  16  21
ENDBRANCH  14  16
ENDBRANCH  11  14
ENDBRANCH   1  11
BRANCH   9  27
ATOM     27  O   UNL     1      33.522 -23.595 -16.506  0.00  0.00    -0.471 OA
BRANCH  27  28
ATOM     28  C   UNL     1      33.131 -23.062 -15.241  0.00  0.00    +0.234 C 
BRANCH  28  30
ATOM     29  F   UNL     1      31.651 -22.806 -12.842  0.00  0.00    -0.204 F 
ATOM     30  C   UNL     1      31.639 -22.909 -15.214  0.00  0.00    +0.049 C 
ATOM     31  C   UNL     1      30.969 -22.788 -13.996  0.00  0.00    +0.140 C 
ATOM     32  C   UNL     1      30.922 -22.887 -16.410  0.00  0.00    +0.002 C 
ATOM     33  C   UNL     1      29.582 -22.646 -13.975  0.00  0.00    +0.040 C 
ATOM     34  C   UNL     1      29.534 -22.746 -16.388  0.00  0.00    +0.010 C 
ATOM     35  C   UNL     1      28.864 -22.625 -15.170  0.00  0.00    +0.071 C 
BRANCH  35  37
ATOM     36  N   UNL     1      26.288 -22.359 -15.129  0.00  0.00    -0.191 NA
ATOM     37  C   UNL     1      27.443 -22.477 -15.148  0.00  0.00    +0.100 C 
ENDBRANCH  35  37
ENDBRANCH  28  30
ENDBRANCH  27  28
ENDBRANCH   9  27
TORSDOF 13
ENDMDL
MODEL 8
REMARK VINA RESULT:     -10.3      7.604     13.816
REMARK  Name = 25058128
REMARK  13 active torsions:
REMARK  status: ('A' for Active; 'I' for Inactive)
REMARK    1  A    between atoms: C_1  and  S_11
REMARK    2  A    between atoms: C_9  and  O_27
REMARK    3  A    between atoms: S_11  and  N_14
REMARK    4  A    between atoms: N_14  and  C_16
REMARK    5  A    between atoms: C_16  and  C_18
REMARK    6  A    between atoms: C_16  and  C_21
REMARK    7  A    between atoms: C_18  and  O_19
REMARK    8  A    between atoms: C_21  and  C_22
REMARK    9  A    between atoms: C_22  and  C_24
REMARK   10  A    between atoms: C_24  and  O_25
REMARK   11  A    between atoms: O_27  and  C_28
REMARK   12  A    between atoms: C_28  and  C_30
REMARK   13  A    between atoms: C_35  and  C_37
REMARK                            x       y       z     vdW  Elec       q    Type
REMARK                         _______ _______ _______ _____ _____    ______ ____
ROOT
ATOM      1  C   UNL     1      34.125  -8.903 -23.756  0.00  0.00    +0.122 C 
ATOM      2  C   UNL     1      33.447 -11.171 -23.197  0.00  0.00    +0.002 C 
ATOM      3  C   UNL     1      33.467  -9.796 -22.911  0.00  0.00    +0.020 C 
ATOM      4  C   UNL     1      34.104 -11.645 -24.358  0.00  0.00    +0.003 C 
ATOM      5  C   UNL     1      34.770  -9.369 -24.897  0.00  0.00    +0.020 C 
ATOM      6  C   UNL     1      34.760 -10.732 -25.198  0.00  0.00    +0.001 C 
ATOM      7  C   UNL     1      34.083 -13.020 -24.646  0.00  0.00    +0.037 C 
ATOM      8  C   UNL     1      32.790 -12.086 -22.358  0.00  0.00    +0.003 C 
ATOM      9  C   UNL     1      33.425 -13.914 -23.800  0.00  0.00    +0.139 C 
ATOM     10  C   UNL     1      32.780 -13.449 -22.659  0.00  0.00    +0.037 C 
ENDROOT
BRANCH   1  11
ATOM     11  S   UNL     1      34.138  -7.176 -23.377  0.00  0.00    +0.061 S 
ATOM     12  O   UNL     1      34.821  -7.001 -22.110  0.00  0.00    -0.153 OA
ATOM     13  O   UNL     1      34.611  -6.487 -24.562  0.00  0.00    -0.153 OA
BRANCH  11  14
ATOM     14  N   UNL     1      32.483  -6.850 -23.176  0.00  0.00    -0.170 NA
ATOM     15  H   UNL     1      32.129  -7.523 -22.495  0.00  0.00    +0.149 HD
BRANCH  14  16
ATOM     16  C   UNL     1      32.042  -5.513 -22.721  0.00  0.00    +0.174 C 
BRANCH  16  18
ATOM     17  O   UNL     1      30.793  -3.752 -23.841  0.00  0.00    -0.249 OA
ATOM     18  C   UNL     1      31.434  -4.794 -23.901  0.00  0.00    +0.330 C 
BRANCH  18  19
ATOM     19  O   UNL     1      31.694  -5.426 -25.075  0.00  0.00    -0.479 OA
ATOM     20  H   UNL     1      32.483  -5.239 -25.544  0.00  0.00    +0.295 HD
ENDBRANCH  18  19
ENDBRANCH  16  18
BRANCH  16  21
ATOM     21  C   UNL     1      31.117  -5.637 -21.504  0.00  0.00    +0.040 C 
BRANCH  21  22
ATOM     22  C   UNL     1      31.800  -5.742 -20.138  0.00  0.00    +0.111 C 
BRANCH  22  24
ATOM     23  O   UNL     1      31.935  -8.151 -20.264  0.00  0.00    -0.250 OA
ATOM     24  C   UNL     1      32.406  -7.095 -19.860  0.00  0.00    +0.314 C 
BRANCH  24  25
ATOM     25  O   UNL     1      33.524  -7.024 -19.096  0.00  0.00    -0.480 OA
ATOM     26  H   UNL     1      33.570  -6.409 -18.390  0.00  0.00    +0.295 HD
ENDBRANCH  24  25
ENDBRANCH  22  24
ENDBRANCH  21  22
ENDBRANCH  16  21
ENDBRANCH  14  16
ENDBRANCH  11  14
ENDBRANCH   1  11
BRANCH   9  27
ATOM     27  O   UNL     1      33.413 -15.243 -24.093  0.00  0.00    -0.471 OA
BRANCH  27  28
ATOM     28  C   UNL     1      34.677 -15.878 -24.282  0.00  0.00    +0.234 C 
BRANCH  28  30
ATOM     29  F   UNL     1      33.857 -18.545 -24.764  0.00  0.00    -0.204 F 
ATOM     30  C   UNL     1      34.830 -16.976 -23.272  0.00  0.00    +0.049 C 
ATOM     31  C   UNL     1      34.405 -18.270 -23.571  0.00  0.00    +0.140 C 
ATOM     32  C   UNL     1      35.401 -16.700 -22.029  0.00  0.00    +0.002 C 
ATOM     33  C   UNL     1      34.549 -19.288 -22.628  0.00  0.00    +0.040 C 
ATOM     34  C   UNL     1      35.544 -17.718 -21.085  0.00  0.00    +0.010 C 
ATOM     35  C   UNL     1      35.118 -19.012 -21.385  0.00  0.00    +0.071 C 
BRANCH  35  37
ATOM     36  N   UNL     1      35.388 -20.902 -19.636  0.00  0.00    -0.191 NA
ATOM     37  C   UNL     1      35.267 -20.056 -20.421  0.00  0.00    +0.100 C 
ENDBRANCH  35  37
ENDBRANCH  28  30
ENDBRANCH  27  28
ENDBRANCH   9  27
TORSDOF 13
ENDMDL
MODEL 9
REMARK VINA RESULT:     -10.2      4.746      8.090
REMARK  Name = 25058128
REMARK  13 active torsions:
REMARK  status: ('A' for Active; 'I' for Inactive)
REMARK    1  A    between atoms: C_1  and  S_11
REMARK    2  A    between atoms: C_9  and  O_27
REMARK    3  A    between atoms: S_11  and  N_14
REMARK    4  A    between atoms: N_14  and  C_16
REMARK    5  A    between atoms: C_16  and  C_18
REMARK    6  A    between atoms: C_16  and  C_21
REMARK    7  A    between atoms: C_18  and  O_19
REMARK    8  A    between atoms: C_21  and  C_22
REMARK    9  A    between atoms: C_22  and  C_24
REMARK   10  A    between atoms: C_24  and  O_25
REMARK   11  A    between atoms: O_27  and  C_28
REMARK   12  A    between atoms: C_28  and  C_30
REMARK   13  A    between atoms: C_35  and  C_37
REMARK                            x       y       z     vdW  Elec       q    Type
REMARK                         _______ _______ _______ _____ _____    ______ ____
ROOT
ATOM      1  C   UNL     1      34.992 -16.832 -22.334  0.00  0.00    +0.122 C 
ATOM      2  C   UNL     1      34.253 -14.915 -23.636  0.00  0.00    +0.002 C 
ATOM      3  C   UNL     1      34.628 -16.266 -23.556  0.00  0.00    +0.020 C 
ATOM      4  C   UNL     1      34.248 -14.128 -22.459  0.00  0.00    +0.003 C 
ATOM      5  C   UNL     1      34.986 -16.058 -21.178  0.00  0.00    +0.020 C 
ATOM      6  C   UNL     1      34.617 -14.714 -21.239  0.00  0.00    +0.001 C 
ATOM      7  C   UNL     1      33.873 -12.776 -22.539  0.00  0.00    +0.037 C 
ATOM      8  C   UNL     1      33.884 -14.327 -24.857  0.00  0.00    +0.003 C 
ATOM      9  C   UNL     1      33.508 -12.210 -23.761  0.00  0.00    +0.139 C 
ATOM     10  C   UNL     1      33.514 -12.983 -24.918  0.00  0.00    +0.037 C 
ENDROOT
BRANCH   1  11
ATOM     11  S   UNL     1      35.461 -18.535 -22.255  0.00  0.00    +0.061 S 
ATOM     12  O   UNL     1      34.649 -19.267 -23.207  0.00  0.00    -0.153 OA
ATOM     13  O   UNL     1      36.908 -18.579 -22.343  0.00  0.00    -0.153 OA
BRANCH  11  14
ATOM     14  N   UNL     1      34.993 -18.953 -20.676  0.00  0.00    -0.170 NA
ATOM     15  H   UNL     1      34.028 -18.642 -20.561  0.00  0.00    +0.149 HD
BRANCH  14  16
ATOM     16  C   UNL     1      35.041 -20.366 -20.240  0.00  0.00    +0.174 C 
BRANCH  16  18
ATOM     17  O   UNL     1      36.472 -21.512 -18.642  0.00  0.00    -0.249 OA
ATOM     18  C   UNL     1      36.254 -20.544 -19.360  0.00  0.00    +0.330 C 
BRANCH  18  19
ATOM     19  O   UNL     1      37.118 -19.499 -19.461  0.00  0.00    -0.479 OA
ATOM     20  H   UNL     1      37.905 -19.491 -18.953  0.00  0.00    +0.295 HD
ENDBRANCH  18  19
ENDBRANCH  16  18
BRANCH  16  21
ATOM     21  C   UNL     1      33.714 -20.771 -19.586  0.00  0.00    +0.040 C 
BRANCH  21  22
ATOM     22  C   UNL     1      33.525 -22.261 -19.294  0.00  0.00    +0.111 C 
BRANCH  22  24
ATOM     23  O   UNL     1      32.027 -22.465 -17.410  0.00  0.00    -0.250 OA
ATOM     24  C   UNL     1      33.162 -22.562 -17.862  0.00  0.00    +0.314 C 
BRANCH  24  25
ATOM     25  O   UNL     1      34.230 -22.937 -17.115  0.00  0.00    -0.480 OA
ATOM     26  H   UNL     1      34.905 -22.317 -16.920  0.00  0.00    +0.295 HD
ENDBRANCH  24  25
ENDBRANCH  22  24
ENDBRANCH  21  22
ENDBRANCH  16  21
ENDBRANCH  14  16
ENDBRANCH  11  14
ENDBRANCH   1  11
BRANCH   9  27
ATOM     27  O   UNL     1      33.146 -10.899 -23.822  0.00  0.00    -0.471 OA
BRANCH  27  28
ATOM     28  C   UNL     1      34.073  -9.944 -23.309  0.00  0.00    +0.234 C 
BRANCH  28  30
ATOM     29  F   UNL     1      35.387  -7.480 -22.845  0.00  0.00    -0.204 F 
ATOM     30  C   UNL     1      33.341  -8.676 -22.983  0.00  0.00    +0.049 C 
ATOM     31  C   UNL     1      34.049  -7.494 -22.765  0.00  0.00    +0.140 C 
ATOM     32  C   UNL     1      31.948  -8.680 -22.900  0.00  0.00    +0.002 C 
ATOM     33  C   UNL     1      33.364  -6.317 -22.462  0.00  0.00    +0.040 C 
ATOM     34  C   UNL     1      31.264  -7.503 -22.596  0.00  0.00    +0.010 C 
ATOM     35  C   UNL     1      31.972  -6.321 -22.377  0.00  0.00    +0.071 C 
BRANCH  35  37
ATOM     36  N   UNL     1      30.703  -4.134 -21.819  0.00  0.00    -0.191 NA
ATOM     37  C   UNL     1      31.271  -5.115 -22.069  0.00  0.00    +0.100 C 
ENDBRANCH  35  37
ENDBRANCH  28  30
ENDBRANCH  27  28
ENDBRANCH   9  27
TORSDOF 13
ENDMDL
