MODEL 1
REMARK VINA RESULT:     -11.5      0.000      0.000
REMARK  Name = 11507920
REMARK  4 active torsions:
REMARK  status: ('A' for Active; 'I' for Inactive)
REMARK    1  A    between atoms: C_1  and  C_8
REMARK    2  A    between atoms: C_2  and  C_17
REMARK    3  A    between atoms: C_17  and  N_18
REMARK    4  A    between atoms: N_18  and  C_21
REMARK                            x       y       z     vdW  Elec       q    Type
REMARK                         _______ _______ _______ _____ _____    ______ ____
ROOT
ATOM      1  C   UNL     1      34.614 -18.941 -21.893  0.00  0.00    -0.000 C 
ATOM      2  C   UNL     1      34.930 -16.706 -22.752  0.00  0.00    -0.003 C 
ATOM      3  C   UNL     1      34.947 -17.604 -21.684  0.00  0.00    -0.003 C 
ATOM      4  C   UNL     1      34.262 -19.383 -23.168  0.00  0.00    -0.000 C 
ATOM      5  C   UNL     1      34.578 -17.147 -24.028  0.00  0.00    -0.003 C 
ATOM      6  C   UNL     1      34.243 -18.486 -24.236  0.00  0.00    -0.000 C 
ENDROOT
BRANCH   1   8
ATOM      7  N   UNL     1      32.472 -21.860 -18.493  0.00  0.00    -0.312 N 
ATOM      8  C   UNL     1      34.630 -19.873 -20.784  0.00  0.00    +0.001 C 
ATOM      9  C   UNL     1      33.482 -21.242 -19.194  0.00  0.00    +0.048 C 
ATOM     10  C   UNL     1      34.690 -21.672 -18.640  0.00  0.00    +0.015 C 
ATOM     11  C   UNL     1      33.421 -20.343 -20.265  0.00  0.00    +0.015 C 
ATOM     12  C   UNL     1      35.851 -20.285 -20.251  0.00  0.00    +0.000 C 
ATOM     13  C   UNL     1      35.896 -21.183 -19.179  0.00  0.00    +0.001 C 
ATOM     14  C   UNL     1      34.367 -22.570 -17.584  0.00  0.00    +0.017 C 
ATOM     15  C   UNL     1      32.997 -22.664 -17.518  0.00  0.00    +0.062 C 
ATOM     16  H   UNL     1      31.510 -21.741 -18.668  0.00  0.00    +0.152 HD
ENDBRANCH   1   8
BRANCH   2  17
ATOM     17  C   UNL     1      35.286 -15.275 -22.531  0.00  0.00    +0.114 C 
BRANCH  17  18
ATOM     18  N   UNL     1      34.346 -14.376 -23.149  0.00  0.00    -0.327 N 
ATOM     19  H   UNL     1      34.250 -14.406 -24.128  0.00  0.00    +0.147 HD
BRANCH  18  21
ATOM     20  N   UNL     1      32.478 -11.297 -22.284  0.00  0.00    -0.228 NA
ATOM     21  C   UNL     1      33.567 -13.468 -22.443  0.00  0.00    +0.077 C 
ATOM     22  C   UNL     1      33.234 -12.206 -22.939  0.00  0.00    +0.139 C 
ATOM     23  C   UNL     1      33.070 -13.793 -21.175  0.00  0.00    +0.019 C 
ATOM     24  C   UNL     1      32.289 -12.884 -20.470  0.00  0.00    +0.022 C 
ATOM     25  C   UNL     1      32.024 -11.660 -21.063  0.00  0.00    +0.100 C 
ATOM     26  N   UNL     1      33.726 -11.854 -24.220  0.00  0.00    -0.342 N 
ATOM     27  H   UNL     1      33.512 -10.972 -24.604  0.00  0.00    +0.144 HD
ATOM     28  H   UNL     1      34.280 -12.489 -24.728  0.00  0.00    +0.144 HD
ENDBRANCH  18  21
ENDBRANCH  17  18
ENDBRANCH   2  17
TORSDOF 4
ENDMDL
MODEL 2
REMARK VINA RESULT:     -11.4      2.431      9.042
REMARK  Name = 11507920
REMARK  4 active torsions:
REMARK  status: ('A' for Active; 'I' for Inactive)
REMARK    1  A    between atoms: C_1  and  C_8
REMARK    2  A    between atoms: C_2  and  C_17
REMARK    3  A    between atoms: C_17  and  N_18
REMARK    4  A    between atoms: N_18  and  C_21
REMARK                            x       y       z     vdW  Elec       q    Type
REMARK                         _______ _______ _______ _____ _____    ______ ____
ROOT
ATOM      1  C   UNL     1      35.119 -20.144 -20.269  0.00  0.00    -0.000 C 
ATOM      2  C   UNL     1      34.150 -21.664 -18.661  0.00  0.00    -0.003 C 
ATOM      3  C   UNL     1      33.999 -20.770 -19.721  0.00  0.00    -0.003 C 
ATOM      4  C   UNL     1      36.388 -20.410 -19.758  0.00  0.00    -0.000 C 
ATOM      5  C   UNL     1      35.420 -21.930 -18.148  0.00  0.00    -0.003 C 
ATOM      6  C   UNL     1      36.539 -21.302 -18.696  0.00  0.00    -0.000 C 
ENDROOT
BRANCH   1   8
ATOM      7  N   UNL     1      35.166 -15.623 -22.325  0.00  0.00    -0.312 N 
ATOM      8  C   UNL     1      34.962 -19.215 -21.369  0.00  0.00    +0.001 C 
ATOM      9  C   UNL     1      35.019 -16.989 -22.243  0.00  0.00    +0.048 C 
ATOM     10  C   UNL     1      34.652 -17.440 -23.513  0.00  0.00    +0.015 C 
ATOM     11  C   UNL     1      35.181 -17.852 -21.153  0.00  0.00    +0.015 C 
ATOM     12  C   UNL     1      34.594 -19.694 -22.626  0.00  0.00    +0.000 C 
ATOM     13  C   UNL     1      34.435 -18.819 -23.707  0.00  0.00    +0.001 C 
ATOM     14  C   UNL     1      34.585 -16.297 -24.357  0.00  0.00    +0.017 C 
ATOM     15  C   UNL     1      34.906 -15.196 -23.599  0.00  0.00    +0.062 C 
ATOM     16  H   UNL     1      35.422 -15.038 -21.575  0.00  0.00    +0.152 HD
ENDBRANCH   1   8
BRANCH   2  17
ATOM     17  C   UNL     1      32.954 -22.334 -18.073  0.00  0.00    +0.114 C 
BRANCH  17  18
ATOM     18  N   UNL     1      33.259 -23.013 -16.840  0.00  0.00    -0.327 N 
ATOM     19  H   UNL     1      34.137 -23.449 -16.755  0.00  0.00    +0.147 HD
BRANCH  18  21
ATOM     20  N   UNL     1      31.996 -23.195 -13.363  0.00  0.00    -0.228 NA
ATOM     21  C   UNL     1      32.384 -23.089 -15.764  0.00  0.00    +0.077 C 
ATOM     22  C   UNL     1      32.815 -23.122 -14.436  0.00  0.00    +0.139 C 
ATOM     23  C   UNL     1      31.000 -23.135 -15.975  0.00  0.00    +0.019 C 
ATOM     24  C   UNL     1      30.126 -23.210 -14.896  0.00  0.00    +0.022 C 
ATOM     25  C   UNL     1      30.669 -23.237 -13.621  0.00  0.00    +0.100 C 
ATOM     26  N   UNL     1      34.211 -23.079 -14.198  0.00  0.00    -0.342 N 
ATOM     27  H   UNL     1      34.553 -23.100 -13.275  0.00  0.00    +0.144 HD
ATOM     28  H   UNL     1      34.839 -23.026 -14.954  0.00  0.00    +0.144 HD
ENDBRANCH  18  21
ENDBRANCH  17  18
ENDBRANCH   2  17
TORSDOF 4
ENDMDL
MODEL 3
REMARK VINA RESULT:     -11.2      1.413      2.468
REMARK  Name = 11507920
REMARK  4 active torsions:
REMARK  status: ('A' for Active; 'I' for Inactive)
REMARK    1  A    between atoms: C_1  and  C_8
REMARK    2  A    between atoms: C_2  and  C_17
REMARK    3  A    between atoms: C_17  and  N_18
REMARK    4  A    between atoms: N_18  and  C_21
REMARK                            x       y       z     vdW  Elec       q    Type
REMARK                         _______ _______ _______ _____ _____    ______ ____
ROOT
ATOM      1  C   UNL     1      35.318 -19.730 -20.613  0.00  0.00    -0.000 C 
ATOM      2  C   UNL     1      35.442 -18.301 -22.556  0.00  0.00    -0.003 C 
ATOM      3  C   UNL     1      34.694 -19.092 -21.684  0.00  0.00    -0.003 C 
ATOM      4  C   UNL     1      36.689 -19.580 -20.413  0.00  0.00    -0.000 C 
ATOM      5  C   UNL     1      36.815 -18.150 -22.357  0.00  0.00    -0.003 C 
ATOM      6  C   UNL     1      37.438 -18.791 -21.285  0.00  0.00    -0.000 C 
ENDROOT
BRANCH   1   8
ATOM      7  N   UNL     1      34.773 -22.924 -16.848  0.00  0.00    -0.312 N 
ATOM      8  C   UNL     1      34.541 -20.553 -19.709  0.00  0.00    +0.001 C 
ATOM      9  C   UNL     1      34.409 -22.091 -17.882  0.00  0.00    +0.048 C 
ATOM     10  C   UNL     1      33.016 -22.134 -17.973  0.00  0.00    +0.015 C 
ATOM     11  C   UNL     1      35.197 -21.311 -18.736  0.00  0.00    +0.015 C 
ATOM     12  C   UNL     1      33.152 -20.576 -19.823  0.00  0.00    +0.000 C 
ATOM     13  C   UNL     1      32.376 -21.362 -18.963  0.00  0.00    +0.001 C 
ATOM     14  C   UNL     1      32.559 -23.020 -16.957  0.00  0.00    +0.017 C 
ATOM     15  C   UNL     1      33.663 -23.490 -16.284  0.00  0.00    +0.062 C 
ATOM     16  H   UNL     1      35.700 -23.088 -16.557  0.00  0.00    +0.152 HD
ENDBRANCH   1   8
BRANCH   2  17
ATOM     17  C   UNL     1      34.777 -17.617 -23.702  0.00  0.00    +0.114 C 
BRANCH  17  18
ATOM     18  N   UNL     1      35.115 -16.219 -23.776  0.00  0.00    -0.327 N 
ATOM     19  H   UNL     1      35.831 -15.947 -24.394  0.00  0.00    +0.147 HD
BRANCH  18  21
ATOM     20  N   UNL     1      32.991 -13.318 -22.886  0.00  0.00    -0.228 NA
ATOM     21  C   UNL     1      34.488 -15.233 -23.026  0.00  0.00    +0.077 C 
ATOM     22  C   UNL     1      33.620 -14.291 -23.582  0.00  0.00    +0.139 C 
ATOM     23  C   UNL     1      34.707 -15.143 -21.645  0.00  0.00    +0.019 C 
ATOM     24  C   UNL     1      34.078 -14.155 -20.896  0.00  0.00    +0.022 C 
ATOM     25  C   UNL     1      33.237 -13.275 -21.557  0.00  0.00    +0.100 C 
ATOM     26  N   UNL     1      33.384 -14.361 -24.978  0.00  0.00    -0.342 N 
ATOM     27  H   UNL     1      32.778 -13.714 -25.407  0.00  0.00    +0.144 HD
ATOM     28  H   UNL     1      33.824 -15.056 -25.519  0.00  0.00    +0.144 HD
ENDBRANCH  18  21
ENDBRANCH  17  18
ENDBRANCH   2  17
TORSDOF 4
ENDMDL
MODEL 4
REMARK VINA RESULT:     -11.1      2.354      8.910
REMARK  Name = 11507920
REMARK  4 active torsions:
REMARK  status: ('A' for Active; 'I' for Inactive)
REMARK    1  A    between atoms: C_1  and  C_8
REMARK    2  A    between atoms: C_2  and  C_17
REMARK    3  A    between atoms: C_17  and  N_18
REMARK    4  A    between atoms: N_18  and  C_21
REMARK                            x       y       z     vdW  Elec       q    Type
REMARK                         _______ _______ _______ _____ _____    ______ ____
ROOT
ATOM      1  C   UNL     1      35.236 -20.109 -20.379  0.00  0.00    -0.000 C 
ATOM      2  C   UNL     1      34.407 -21.915 -19.006  0.00  0.00    -0.003 C 
ATOM      3  C   UNL     1      34.217 -20.999 -20.041  0.00  0.00    -0.003 C 
ATOM      4  C   UNL     1      36.444 -20.133 -19.683  0.00  0.00    -0.000 C 
ATOM      5  C   UNL     1      35.616 -21.940 -18.309  0.00  0.00    -0.003 C 
ATOM      6  C   UNL     1      36.634 -21.048 -18.648  0.00  0.00    -0.000 C 
ENDROOT
BRANCH   1   8
ATOM      7  N   UNL     1      35.104 -15.535 -22.309  0.00  0.00    -0.312 N 
ATOM      8  C   UNL     1      35.038 -19.157 -21.452  0.00  0.00    +0.001 C 
ATOM      9  C   UNL     1      35.007 -16.907 -22.264  0.00  0.00    +0.048 C 
ATOM     10  C   UNL     1      34.649 -17.336 -23.544  0.00  0.00    +0.015 C 
ATOM     11  C   UNL     1      35.208 -17.793 -21.199  0.00  0.00    +0.015 C 
ATOM     12  C   UNL     1      34.680 -19.614 -22.719  0.00  0.00    +0.000 C 
ATOM     13  C   UNL     1      34.482 -18.716 -23.774  0.00  0.00    +0.001 C 
ATOM     14  C   UNL     1      34.535 -16.174 -24.356  0.00  0.00    +0.017 C 
ATOM     15  C   UNL     1      34.819 -15.083 -23.569  0.00  0.00    +0.062 C 
ATOM     16  H   UNL     1      35.342 -14.961 -21.545  0.00  0.00    +0.152 HD
ENDBRANCH   1   8
BRANCH   2  17
ATOM     17  C   UNL     1      33.319 -22.868 -18.643  0.00  0.00    +0.114 C 
BRANCH  17  18
ATOM     18  N   UNL     1      32.428 -22.327 -17.649  0.00  0.00    -0.327 N 
ATOM     19  H   UNL     1      31.899 -21.531 -17.884  0.00  0.00    +0.147 HD
BRANCH  18  21
ATOM     20  N   UNL     1      30.830 -23.596 -14.558  0.00  0.00    -0.228 NA
ATOM     21  C   UNL     1      32.272 -22.864 -16.378  0.00  0.00    +0.077 C 
ATOM     22  C   UNL     1      31.023 -23.075 -15.790  0.00  0.00    +0.139 C 
ATOM     23  C   UNL     1      33.390 -23.227 -15.617  0.00  0.00    +0.019 C 
ATOM     24  C   UNL     1      33.232 -23.765 -14.345  0.00  0.00    +0.022 C 
ATOM     25  C   UNL     1      31.942 -23.928 -13.865  0.00  0.00    +0.100 C 
ATOM     26  N   UNL     1      29.875 -22.714 -16.540  0.00  0.00    -0.342 N 
ATOM     27  H   UNL     1      28.977 -22.847 -16.160  0.00  0.00    +0.144 HD
ATOM     28  H   UNL     1      29.976 -22.332 -17.442  0.00  0.00    +0.144 HD
ENDBRANCH  18  21
ENDBRANCH  17  18
ENDBRANCH   2  17
TORSDOF 4
ENDMDL
MODEL 5
REMARK VINA RESULT:     -11.0      2.820      5.218
REMARK  Name = 11507920
REMARK  4 active torsions:
REMARK  status: ('A' for Active; 'I' for Inactive)
REMARK    1  A    between atoms: C_1  and  C_8
REMARK    2  A    between atoms: C_2  and  C_17
REMARK    3  A    between atoms: C_17  and  N_18
REMARK    4  A    between atoms: N_18  and  C_21
REMARK                            x       y       z     vdW  Elec       q    Type
REMARK                         _______ _______ _______ _____ _____    ______ ____
ROOT
ATOM      1  C   UNL     1      34.207 -21.859 -18.057  0.00  0.00    -0.000 C 
ATOM      2  C   UNL     1      34.408 -20.527 -20.061  0.00  0.00    -0.003 C 
ATOM      3  C   UNL     1      33.613 -21.140 -19.092  0.00  0.00    -0.003 C 
ATOM      4  C   UNL     1      35.596 -21.968 -17.988  0.00  0.00    -0.000 C 
ATOM      5  C   UNL     1      35.798 -20.635 -19.993  0.00  0.00    -0.003 C 
ATOM      6  C   UNL     1      36.391 -21.356 -18.957  0.00  0.00    -0.000 C 
ENDROOT
BRANCH   1   8
ATOM      7  N   UNL     1      29.864 -23.149 -16.022  0.00  0.00    -0.312 N 
ATOM      8  C   UNL     1      33.382 -22.497 -17.052  0.00  0.00    +0.001 C 
ATOM      9  C   UNL     1      31.229 -23.055 -16.170  0.00  0.00    +0.048 C 
ATOM     10  C   UNL     1      31.807 -23.737 -15.097  0.00  0.00    +0.015 C 
ATOM     11  C   UNL     1      31.990 -22.426 -17.162  0.00  0.00    +0.015 C 
ATOM     12  C   UNL     1      33.986 -23.170 -15.992  0.00  0.00    +0.000 C 
ATOM     13  C   UNL     1      33.212 -23.795 -15.006  0.00  0.00    +0.001 C 
ATOM     14  C   UNL     1      30.741 -24.242 -14.302  0.00  0.00    +0.017 C 
ATOM     15  C   UNL     1      29.560 -23.864 -14.896  0.00  0.00    +0.062 C 
ATOM     16  H   UNL     1      29.202 -22.758 -16.638  0.00  0.00    +0.152 HD
ENDBRANCH   1   8
BRANCH   2  17
ATOM     17  C   UNL     1      33.775 -19.756 -21.170  0.00  0.00    +0.114 C 
BRANCH  17  18
ATOM     18  N   UNL     1      34.723 -19.380 -22.186  0.00  0.00    -0.327 N 
ATOM     19  H   UNL     1      35.439 -20.017 -22.411  0.00  0.00    +0.147 HD
BRANCH  18  21
ATOM     20  N   UNL     1      34.041 -16.865 -24.818  0.00  0.00    -0.228 NA
ATOM     21  C   UNL     1      34.687 -18.171 -22.867  0.00  0.00    +0.077 C 
ATOM     22  C   UNL     1      34.098 -18.024 -24.125  0.00  0.00    +0.139 C 
ATOM     23  C   UNL     1      35.252 -17.020 -22.302  0.00  0.00    +0.019 C 
ATOM     24  C   UNL     1      35.214 -15.809 -22.985  0.00  0.00    +0.022 C 
ATOM     25  C   UNL     1      34.602 -15.784 -24.229  0.00  0.00    +0.100 C 
ATOM     26  N   UNL     1      33.521 -19.175 -24.717  0.00  0.00    -0.342 N 
ATOM     27  H   UNL     1      33.096 -19.112 -25.603  0.00  0.00    +0.144 HD
ATOM     28  H   UNL     1      33.543 -20.037 -24.243  0.00  0.00    +0.144 HD
ENDBRANCH  18  21
ENDBRANCH  17  18
ENDBRANCH   2  17
TORSDOF 4
ENDMDL
MODEL 6
REMARK VINA RESULT:     -10.8      4.434     11.298
REMARK  Name = 11507920
REMARK  4 active torsions:
REMARK  status: ('A' for Active; 'I' for Inactive)
REMARK    1  A    between atoms: C_1  and  C_8
REMARK    2  A    between atoms: C_2  and  C_17
REMARK    3  A    between atoms: C_17  and  N_18
REMARK    4  A    between atoms: N_18  and  C_21
REMARK                            x       y       z     vdW  Elec       q    Type
REMARK                         _______ _______ _______ _____ _____    ______ ____
ROOT
ATOM      1  C   UNL     1      32.280  -8.892 -21.435  0.00  0.00    -0.000 C 
ATOM      2  C   UNL     1      32.091 -11.296 -21.296  0.00  0.00    -0.003 C 
ATOM      3  C   UNL     1      32.374 -10.147 -22.035  0.00  0.00    -0.003 C 
ATOM      4  C   UNL     1      31.902  -8.783 -20.098  0.00  0.00    -0.000 C 
ATOM      5  C   UNL     1      31.713 -11.188 -19.957  0.00  0.00    -0.003 C 
ATOM      6  C   UNL     1      31.618  -9.931 -19.358  0.00  0.00    -0.000 C 
ENDROOT
BRANCH   1   8
ATOM      7  N   UNL     1      31.050  -4.700 -23.797  0.00  0.00    -0.312 N 
ATOM      8  C   UNL     1      32.573  -7.700 -22.204  0.00  0.00    +0.001 C 
ATOM      9  C   UNL     1      31.855  -5.704 -23.309  0.00  0.00    +0.048 C 
ATOM     10  C   UNL     1      33.165  -5.401 -23.689  0.00  0.00    +0.015 C 
ATOM     11  C   UNL     1      31.529  -6.844 -22.567  0.00  0.00    +0.015 C 
ATOM     12  C   UNL     1      33.889  -7.424 -22.569  0.00  0.00    +0.000 C 
ATOM     13  C   UNL     1      34.201  -6.279 -23.312  0.00  0.00    +0.001 C 
ATOM     14  C   UNL     1      33.115  -4.182 -24.421  0.00  0.00    +0.017 C 
ATOM     15  C   UNL     1      31.802  -3.777 -24.471  0.00  0.00    +0.062 C 
ATOM     16  H   UNL     1      30.073  -4.653 -23.679  0.00  0.00    +0.152 HD
ENDBRANCH   1   8
BRANCH   2  17
ATOM     17  C   UNL     1      32.191 -12.640 -21.935  0.00  0.00    +0.114 C 
BRANCH  17  18
ATOM     18  N   UNL     1      33.415 -12.802 -22.678  0.00  0.00    -0.327 N 
ATOM     19  H   UNL     1      33.957 -12.001 -22.860  0.00  0.00    +0.147 HD
BRANCH  18  21
ATOM     20  N   UNL     1      34.122 -15.623 -24.971  0.00  0.00    -0.228 NA
ATOM     21  C   UNL     1      33.874 -14.023 -23.152  0.00  0.00    +0.077 C 
ATOM     22  C   UNL     1      33.690 -14.444 -24.471  0.00  0.00    +0.139 C 
ATOM     23  C   UNL     1      34.560 -14.903 -22.305  0.00  0.00    +0.019 C 
ATOM     24  C   UNL     1      35.019 -16.126 -22.783  0.00  0.00    +0.022 C 
ATOM     25  C   UNL     1      34.777 -16.436 -24.112  0.00  0.00    +0.100 C 
ATOM     26  N   UNL     1      32.997 -13.571 -25.348  0.00  0.00    -0.342 N 
ATOM     27  H   UNL     1      32.848 -13.832 -26.285  0.00  0.00    +0.144 HD
ATOM     28  H   UNL     1      32.667 -12.704 -25.020  0.00  0.00    +0.144 HD
ENDBRANCH  18  21
ENDBRANCH  17  18
ENDBRANCH   2  17
TORSDOF 4
ENDMDL
MODEL 7
REMARK VINA RESULT:     -10.7      2.929      5.074
REMARK  Name = 11507920
REMARK  4 active torsions:
REMARK  status: ('A' for Active; 'I' for Inactive)
REMARK    1  A    between atoms: C_1  and  C_8
REMARK    2  A    between atoms: C_2  and  C_17
REMARK    3  A    between atoms: C_17  and  N_18
REMARK    4  A    between atoms: N_18  and  C_21
REMARK                            x       y       z     vdW  Elec       q    Type
REMARK                         _______ _______ _______ _____ _____    ______ ____
ROOT
ATOM      1  C   UNL     1      35.058 -21.573 -18.222  0.00  0.00    -0.000 C 
ATOM      2  C   UNL     1      35.051 -20.186 -20.200  0.00  0.00    -0.003 C 
ATOM      3  C   UNL     1      35.735 -20.754 -19.124  0.00  0.00    -0.003 C 
ATOM      4  C   UNL     1      33.697 -21.825 -18.392  0.00  0.00    -0.000 C 
ATOM      5  C   UNL     1      33.689 -20.438 -20.371  0.00  0.00    -0.003 C 
ATOM      6  C   UNL     1      33.012 -21.257 -19.466  0.00  0.00    -0.000 C 
ENDROOT
BRANCH   1   8
ATOM      7  N   UNL     1      35.396 -24.370 -14.132  0.00  0.00    -0.312 N 
ATOM      8  C   UNL     1      35.768 -22.161 -17.105  0.00  0.00    +0.001 C 
ATOM      9  C   UNL     1      35.803 -23.536 -15.148  0.00  0.00    +0.048 C 
ATOM     10  C   UNL     1      37.164 -23.286 -14.954  0.00  0.00    +0.015 C 
ATOM     11  C   UNL     1      35.080 -22.988 -16.213  0.00  0.00    +0.015 C 
ATOM     12  C   UNL     1      37.126 -21.894 -16.937  0.00  0.00    +0.000 C 
ATOM     13  C   UNL     1      37.837 -22.449 -15.866  0.00  0.00    +0.001 C 
ATOM     14  C   UNL     1      37.556 -24.000 -13.788  0.00  0.00    +0.017 C 
ATOM     15  C   UNL     1      36.448 -24.656 -13.306  0.00  0.00    +0.062 C 
ATOM     16  H   UNL     1      34.479 -24.712 -14.017  0.00  0.00    +0.152 HD
ENDBRANCH   1   8
BRANCH   2  17
ATOM     17  C   UNL     1      35.774 -19.310 -21.166  0.00  0.00    +0.114 C 
BRANCH  17  18
ATOM     18  N   UNL     1      35.071 -19.179 -22.417  0.00  0.00    -0.327 N 
ATOM     19  H   UNL     1      34.770 -20.001 -22.868  0.00  0.00    +0.147 HD
BRANCH  18  21
ATOM     20  N   UNL     1      33.703 -16.678 -24.782  0.00  0.00    -0.228 NA
ATOM     21  C   UNL     1      34.794 -17.961 -23.023  0.00  0.00    +0.077 C 
ATOM     22  C   UNL     1      33.997 -17.844 -24.164  0.00  0.00    +0.139 C 
ATOM     23  C   UNL     1      35.315 -16.771 -22.499  0.00  0.00    +0.019 C 
ATOM     24  C   UNL     1      35.036 -15.552 -23.107  0.00  0.00    +0.022 C 
ATOM     25  C   UNL     1      34.232 -15.559 -24.236  0.00  0.00    +0.100 C 
ATOM     26  N   UNL     1      33.459 -19.035 -24.714  0.00  0.00    -0.342 N 
ATOM     27  H   UNL     1      32.892 -18.993 -25.517  0.00  0.00    +0.144 HD
ATOM     28  H   UNL     1      33.651 -19.903 -24.292  0.00  0.00    +0.144 HD
ENDBRANCH  18  21
ENDBRANCH  17  18
ENDBRANCH   2  17
TORSDOF 4
ENDMDL
MODEL 8
REMARK VINA RESULT:     -10.6      3.148      9.774
REMARK  Name = 11507920
REMARK  4 active torsions:
REMARK  status: ('A' for Active; 'I' for Inactive)
REMARK    1  A    between atoms: C_1  and  C_8
REMARK    2  A    between atoms: C_2  and  C_17
REMARK    3  A    between atoms: C_17  and  N_18
REMARK    4  A    between atoms: N_18  and  C_21
REMARK                            x       y       z     vdW  Elec       q    Type
REMARK                         _______ _______ _______ _____ _____    ______ ____
ROOT
ATOM      1  C   UNL     1      33.697 -11.457 -23.901  0.00  0.00    -0.000 C 
ATOM      2  C   UNL     1      34.082 -13.761 -23.290  0.00  0.00    -0.003 C 
ATOM      3  C   UNL     1      34.050 -12.409 -22.947  0.00  0.00    -0.003 C 
ATOM      4  C   UNL     1      33.376 -11.853 -25.199  0.00  0.00    -0.000 C 
ATOM      5  C   UNL     1      33.761 -14.159 -24.588  0.00  0.00    -0.003 C 
ATOM      6  C   UNL     1      33.409 -13.204 -25.543  0.00  0.00    -0.000 C 
ENDROOT
BRANCH   1   8
ATOM      7  N   UNL     1      31.603  -7.405 -21.935  0.00  0.00    -0.312 N 
ATOM      8  C   UNL     1      33.665 -10.053 -23.545  0.00  0.00    +0.001 C 
ATOM      9  C   UNL     1      32.553  -8.175 -22.568  0.00  0.00    +0.048 C 
ATOM     10  C   UNL     1      33.629  -7.336 -22.868  0.00  0.00    +0.015 C 
ATOM     11  C   UNL     1      32.543  -9.536 -22.894  0.00  0.00    +0.015 C 
ATOM     12  C   UNL     1      34.754  -9.240 -23.858  0.00  0.00    +0.000 C 
ATOM     13  C   UNL     1      34.750  -7.880 -23.526  0.00  0.00    +0.001 C 
ATOM     14  C   UNL     1      33.291  -6.038 -22.393  0.00  0.00    +0.017 C 
ATOM     15  C   UNL     1      32.040  -6.113 -21.825  0.00  0.00    +0.062 C 
ATOM     16  H   UNL     1      30.735  -7.736 -21.608  0.00  0.00    +0.152 HD
ENDBRANCH   1   8
BRANCH   2  17
ATOM     17  C   UNL     1      34.460 -14.782 -22.270  0.00  0.00    +0.114 C 
BRANCH  17  18
ATOM     18  N   UNL     1      35.245 -15.851 -22.832  0.00  0.00    -0.327 N 
ATOM     19  H   UNL     1      35.874 -15.634 -23.558  0.00  0.00    +0.147 HD
BRANCH  18  21
ATOM     20  N   UNL     1      34.503 -19.480 -22.810  0.00  0.00    -0.228 NA
ATOM     21  C   UNL     1      35.166 -17.171 -22.409  0.00  0.00    +0.077 C 
ATOM     22  C   UNL     1      34.597 -18.184 -23.185  0.00  0.00    +0.139 C 
ATOM     23  C   UNL     1      35.668 -17.549 -21.158  0.00  0.00    +0.019 C 
ATOM     24  C   UNL     1      35.588 -18.872 -20.737  0.00  0.00    +0.022 C 
ATOM     25  C   UNL     1      35.002 -19.791 -21.592  0.00  0.00    +0.100 C 
ATOM     26  N   UNL     1      34.080 -17.827 -24.455  0.00  0.00    -0.342 N 
ATOM     27  H   UNL     1      33.672 -18.513 -25.031  0.00  0.00    +0.144 HD
ATOM     28  H   UNL     1      34.131 -16.893 -24.763  0.00  0.00    +0.144 HD
ENDBRANCH  18  21
ENDBRANCH  17  18
ENDBRANCH   2  17
TORSDOF 4
ENDMDL
MODEL 9
REMARK VINA RESULT:     -10.6      3.939      7.083
REMARK  Name = 11507920
REMARK  4 active torsions:
REMARK  status: ('A' for Active; 'I' for Inactive)
REMARK    1  A    between atoms: C_1  and  C_8
REMARK    2  A    between atoms: C_2  and  C_17
REMARK    3  A    between atoms: C_17  and  N_18
REMARK    4  A    between atoms: N_18  and  C_21
REMARK                            x       y       z     vdW  Elec       q    Type
REMARK                         _______ _______ _______ _____ _____    ______ ____
ROOT
ATOM      1  C   UNL     1      34.719 -22.803 -15.899  0.00  0.00    -0.000 C 
ATOM      2  C   UNL     1      35.945 -21.905 -17.776  0.00  0.00    -0.003 C 
ATOM      3  C   UNL     1      34.767 -22.425 -17.240  0.00  0.00    -0.003 C 
ATOM      4  C   UNL     1      35.848 -22.663 -15.093  0.00  0.00    -0.000 C 
ATOM      5  C   UNL     1      37.076 -21.765 -16.970  0.00  0.00    -0.003 C 
ATOM      6  C   UNL     1      37.027 -22.145 -15.628  0.00  0.00    -0.000 C 
ENDROOT
BRANCH   1   8
ATOM      7  N   UNL     1      29.818 -23.601 -15.852  0.00  0.00    -0.312 N 
ATOM      8  C   UNL     1      33.496 -23.344 -15.343  0.00  0.00    +0.001 C 
ATOM      9  C   UNL     1      31.127 -23.660 -15.431  0.00  0.00    +0.048 C 
ATOM     10  C   UNL     1      31.146 -24.400 -14.247  0.00  0.00    +0.015 C 
ATOM     11  C   UNL     1      32.285 -23.120 -16.002  0.00  0.00    +0.015 C 
ATOM     12  C   UNL     1      33.546 -24.079 -14.159  0.00  0.00    +0.000 C 
ATOM     13  C   UNL     1      32.379 -24.613 -13.599  0.00  0.00    +0.001 C 
ATOM     14  C   UNL     1      29.803 -24.783 -13.974  0.00  0.00    +0.017 C 
ATOM     15  C   UNL     1      29.011 -24.277 -14.977  0.00  0.00    +0.062 C 
ATOM     16  H   UNL     1      29.507 -23.140 -16.664  0.00  0.00    +0.152 HD
ENDBRANCH   1   8
BRANCH   2  17
ATOM     17  C   UNL     1      35.998 -21.500 -19.210  0.00  0.00    +0.114 C 
BRANCH  17  18
ATOM     18  N   UNL     1      35.219 -20.317 -19.473  0.00  0.00    -0.327 N 
ATOM     19  H   UNL     1      34.609 -19.998 -18.770  0.00  0.00    +0.147 HD
BRANCH  18  21
ATOM     20  N   UNL     1      36.419 -18.015 -22.115  0.00  0.00    -0.228 NA
ATOM     21  C   UNL     1      35.280 -19.602 -20.662  0.00  0.00    +0.077 C 
ATOM     22  C   UNL     1      36.324 -18.727 -20.970  0.00  0.00    +0.139 C 
ATOM     23  C   UNL     1      34.270 -19.734 -21.624  0.00  0.00    +0.019 C 
ATOM     24  C   UNL     1      34.333 -19.017 -22.813  0.00  0.00    +0.022 C 
ATOM     25  C   UNL     1      35.419 -18.178 -23.010  0.00  0.00    +0.100 C 
ATOM     26  N   UNL     1      37.357 -18.575 -20.012  0.00  0.00    -0.342 N 
ATOM     27  H   UNL     1      38.111 -17.968 -20.193  0.00  0.00    +0.144 HD
ATOM     28  H   UNL     1      37.323 -19.078 -19.166  0.00  0.00    +0.144 HD
ENDBRANCH  18  21
ENDBRANCH  17  18
ENDBRANCH   2  17
TORSDOF 4
ENDMDL
