MODEL 1
REMARK VINA RESULT:     -12.5      0.000      0.000
REMARK  Name = 11610553
REMARK  5 active torsions:
REMARK  status: ('A' for Active; 'I' for Inactive)
REMARK    1  A    between atoms: C_1  and  C_9
REMARK    2  A    between atoms: C_4  and  O_19
REMARK    3  A    between atoms: C_10  and  C_14
REMARK    4  A    between atoms: O_19  and  C_20
REMARK    5  A    between atoms: C_20  and  C_22
REMARK                            x       y       z     vdW  Elec       q    Type
REMARK                         _______ _______ _______ _____ _____    ______ ____
ROOT
ATOM      1  C   UNL     1      33.180 -13.259 -22.292  0.00  0.00    +0.015 C 
ATOM      2  C   UNL     1      33.150 -13.803 -23.576  0.00  0.00    +0.004 C 
ATOM      3  C   UNL     1      33.964 -13.851 -21.302  0.00  0.00    +0.004 C 
ATOM      4  C   UNL     1      34.682 -15.525 -22.877  0.00  0.00    +0.139 C 
ATOM      5  C   UNL     1      33.904 -14.940 -23.869  0.00  0.00    +0.037 C 
ATOM      6  C   UNL     1      34.717 -14.987 -21.594  0.00  0.00    +0.037 C 
ENDROOT
BRANCH   1   9
ATOM      7  N   UNL     1      31.334 -12.119 -21.138  0.00  0.00    -0.236 N 
ATOM      8  N   UNL     1      30.729 -10.930 -20.976  0.00  0.00    -0.180 NA
ATOM      9  C   UNL     1      32.400 -12.084 -21.990  0.00  0.00    +0.067 C 
ATOM     10  C   UNL     1      32.499 -10.780 -22.414  0.00  0.00    +0.036 C 
ATOM     11  C   UNL     1      31.444 -10.117 -21.758  0.00  0.00    +0.119 C 
ATOM     12  H   UNL     1      31.037 -12.940 -20.685  0.00  0.00    +0.174 HD
BRANCH  10  14
ATOM     13  N   UNL     1      35.411  -9.312 -25.108  0.00  0.00    -0.242 NA
ATOM     14  C   UNL     1      33.485 -10.284 -23.325  0.00  0.00    +0.006 C 
ATOM     15  C   UNL     1      33.886 -11.054 -24.413  0.00  0.00    +0.021 C 
ATOM     16  C   UNL     1      34.049  -9.025 -23.132  0.00  0.00    +0.021 C 
ATOM     17  C   UNL     1      34.843 -10.529 -25.266  0.00  0.00    +0.099 C 
ATOM     18  C   UNL     1      34.999  -8.590 -24.042  0.00  0.00    +0.099 C 
ENDBRANCH  10  14
ENDBRANCH   1   9
BRANCH   4  19
ATOM     19  O   UNL     1      35.422 -16.641 -23.164  0.00  0.00    -0.468 OA
BRANCH  19  20
ATOM     20  C   UNL     1      34.721 -17.876 -23.229  0.00  0.00    +0.264 C 
BRANCH  20  22
ATOM     21  N   UNL     1      34.135 -19.464 -21.499  0.00  0.00    -0.406 NA
ATOM     22  C   UNL     1      35.117 -18.732 -22.072  0.00  0.00    +0.152 C 
ATOM     23  C   UNL     1      35.769 -20.317 -19.947  0.00  0.00    +0.026 C 
ATOM     24  C   UNL     1      34.453 -20.247 -20.450  0.00  0.00    +0.113 C 
ATOM     25  C   UNL     1      36.431 -18.735 -21.649  0.00  0.00    +0.031 C 
ATOM     26  C   UNL     1      36.756 -19.542 -20.569  0.00  0.00    +0.005 C 
ATOM     27  C   UNL     1      36.066 -21.145 -18.851  0.00  0.00    +0.002 C 
ATOM     28  C   UNL     1      33.473 -21.017 -19.831  0.00  0.00    +0.085 C 
ATOM     29  C   UNL     1      35.066 -21.905 -18.250  0.00  0.00    -0.004 C 
ATOM     30  C   UNL     1      33.768 -21.840 -18.741  0.00  0.00    -0.019 C 
ENDBRANCH  20  22
ENDBRANCH  19  20
ENDBRANCH   4  19
TORSDOF 5
ENDMDL
MODEL 2
REMARK VINA RESULT:     -11.9      2.956      4.963
REMARK  Name = 11610553
REMARK  5 active torsions:
REMARK  status: ('A' for Active; 'I' for Inactive)
REMARK    1  A    between atoms: C_1  and  C_9
REMARK    2  A    between atoms: C_4  and  O_19
REMARK    3  A    between atoms: C_10  and  C_14
REMARK    4  A    between atoms: O_19  and  C_20
REMARK    5  A    between atoms: C_20  and  C_22
REMARK                            x       y       z     vdW  Elec       q    Type
REMARK                         _______ _______ _______ _____ _____    ______ ____
ROOT
ATOM      1  C   UNL     1      33.255  -8.657 -22.567  0.00  0.00    +0.015 C 
ATOM      2  C   UNL     1      34.422  -8.722 -23.328  0.00  0.00    +0.004 C 
ATOM      3  C   UNL     1      32.422  -9.771 -22.470  0.00  0.00    +0.004 C 
ATOM      4  C   UNL     1      33.919 -11.009 -23.893  0.00  0.00    +0.139 C 
ATOM      5  C   UNL     1      34.755  -9.902 -23.993  0.00  0.00    +0.037 C 
ATOM      6  C   UNL     1      32.754 -10.951 -23.135  0.00  0.00    +0.037 C 
ENDROOT
BRANCH   1   9
ATOM      7  N   UNL     1      32.558  -7.420 -20.561  0.00  0.00    -0.236 N 
ATOM      8  N   UNL     1      32.271  -6.195 -20.090  0.00  0.00    -0.180 NA
ATOM      9  C   UNL     1      32.911  -7.436 -21.879  0.00  0.00    +0.067 C 
ATOM     10  C   UNL     1      32.849  -6.129 -22.300  0.00  0.00    +0.036 C 
ATOM     11  C   UNL     1      32.451  -5.411 -21.157  0.00  0.00    +0.119 C 
ATOM     12  H   UNL     1      32.519  -8.232 -20.006  0.00  0.00    +0.174 HD
BRANCH  10  14
ATOM     13  N   UNL     1      33.714  -4.792 -26.220  0.00  0.00    -0.242 NA
ATOM     14  C   UNL     1      33.142  -5.678 -23.626  0.00  0.00    +0.006 C 
ATOM     15  C   UNL     1      32.108  -5.392 -24.514  0.00  0.00    +0.021 C 
ATOM     16  C   UNL     1      34.462  -5.518 -24.039  0.00  0.00    +0.021 C 
ATOM     17  C   UNL     1      32.443  -4.957 -25.786  0.00  0.00    +0.099 C 
ATOM     18  C   UNL     1      34.692  -5.078 -25.332  0.00  0.00    +0.099 C 
ENDBRANCH  10  14
ENDBRANCH   1   9
BRANCH   4  19
ATOM     19  O   UNL     1      34.246 -12.168 -24.546  0.00  0.00    -0.468 OA
BRANCH  19  20
ATOM     20  C   UNL     1      33.266 -13.197 -24.555  0.00  0.00    +0.264 C 
BRANCH  20  22
ATOM     21  N   UNL     1      33.603 -15.594 -24.557  0.00  0.00    -0.406 NA
ATOM     22  C   UNL     1      33.829 -14.423 -23.917  0.00  0.00    +0.152 C 
ATOM     23  C   UNL     1      34.826 -16.709 -22.805  0.00  0.00    +0.026 C 
ATOM     24  C   UNL     1      34.094 -16.723 -24.011  0.00  0.00    +0.113 C 
ATOM     25  C   UNL     1      34.532 -14.311 -22.736  0.00  0.00    +0.031 C 
ATOM     26  C   UNL     1      35.037 -15.475 -22.175  0.00  0.00    +0.005 C 
ATOM     27  C   UNL     1      35.325 -17.906 -22.263  0.00  0.00    +0.002 C 
ATOM     28  C   UNL     1      33.886 -17.949 -24.636  0.00  0.00    +0.085 C 
ATOM     29  C   UNL     1      35.101 -19.118 -22.910  0.00  0.00    -0.004 C 
ATOM     30  C   UNL     1      34.381 -19.139 -24.097  0.00  0.00    -0.019 C 
ENDBRANCH  20  22
ENDBRANCH  19  20
ENDBRANCH   4  19
TORSDOF 5
ENDMDL
MODEL 3
REMARK VINA RESULT:     -11.7      3.358     10.794
REMARK  Name = 11610553
REMARK  5 active torsions:
REMARK  status: ('A' for Active; 'I' for Inactive)
REMARK    1  A    between atoms: C_1  and  C_9
REMARK    2  A    between atoms: C_4  and  O_19
REMARK    3  A    between atoms: C_10  and  C_14
REMARK    4  A    between atoms: O_19  and  C_20
REMARK    5  A    between atoms: C_20  and  C_22
REMARK                            x       y       z     vdW  Elec       q    Type
REMARK                         _______ _______ _______ _____ _____    ______ ____
ROOT
ATOM      1  C   UNL     1      33.560 -22.052 -17.932  0.00  0.00    +0.015 C 
ATOM      2  C   UNL     1      32.892 -21.254 -18.861  0.00  0.00    +0.004 C 
ATOM      3  C   UNL     1      34.941 -22.223 -18.024  0.00  0.00    +0.004 C 
ATOM      4  C   UNL     1      34.983 -20.803 -19.968  0.00  0.00    +0.139 C 
ATOM      5  C   UNL     1      33.607 -20.628 -19.883  0.00  0.00    +0.037 C 
ATOM      6  C   UNL     1      35.655 -21.597 -19.045  0.00  0.00    +0.037 C 
ENDROOT
BRANCH   1   9
ATOM      7  N   UNL     1      31.460 -22.799 -16.897  0.00  0.00    -0.236 N 
ATOM      8  N   UNL     1      30.946 -23.435 -15.831  0.00  0.00    -0.180 NA
ATOM      9  C   UNL     1      32.821 -22.701 -16.877  0.00  0.00    +0.067 C 
ATOM     10  C   UNL     1      33.225 -23.316 -15.716  0.00  0.00    +0.036 C 
ATOM     11  C   UNL     1      32.028 -23.749 -15.113  0.00  0.00    +0.119 C 
ATOM     12  H   UNL     1      30.907 -22.437 -17.626  0.00  0.00    +0.174 HD
BRANCH  10  14
ATOM     13  N   UNL     1      37.240 -23.705 -14.440  0.00  0.00    -0.242 NA
ATOM     14  C   UNL     1      34.583 -23.448 -15.283  0.00  0.00    +0.006 C 
ATOM     15  C   UNL     1      35.166 -24.708 -15.174  0.00  0.00    +0.021 C 
ATOM     16  C   UNL     1      35.333 -22.317 -14.970  0.00  0.00    +0.021 C 
ATOM     17  C   UNL     1      36.483 -24.782 -14.753  0.00  0.00    +0.099 C 
ATOM     18  C   UNL     1      36.643 -22.498 -14.557  0.00  0.00    +0.099 C 
ENDBRANCH  10  14
ENDBRANCH   1   9
BRANCH   4  19
ATOM     19  O   UNL     1      35.684 -20.187 -20.971  0.00  0.00    -0.468 OA
BRANCH  19  20
ATOM     20  C   UNL     1      36.139 -18.865 -20.717  0.00  0.00    +0.264 C 
BRANCH  20  22
ATOM     21  N   UNL     1      35.336 -16.662 -21.319  0.00  0.00    -0.406 NA
ATOM     22  C   UNL     1      35.548 -17.935 -21.724  0.00  0.00    +0.152 C 
ATOM     23  C   UNL     1      34.464 -16.180 -23.513  0.00  0.00    +0.026 C 
ATOM     24  C   UNL     1      34.802 -15.794 -22.199  0.00  0.00    +0.113 C 
ATOM     25  C   UNL     1      35.249 -18.405 -22.986  0.00  0.00    +0.031 C 
ATOM     26  C   UNL     1      34.699 -17.509 -23.891  0.00  0.00    +0.005 C 
ATOM     27  C   UNL     1      33.908 -15.248 -24.405  0.00  0.00    +0.002 C 
ATOM     28  C   UNL     1      34.569 -14.474 -21.824  0.00  0.00    +0.085 C 
ATOM     29  C   UNL     1      33.685 -13.934 -24.004  0.00  0.00    -0.004 C 
ATOM     30  C   UNL     1      34.015 -13.547 -22.711  0.00  0.00    -0.019 C 
ENDBRANCH  20  22
ENDBRANCH  19  20
ENDBRANCH   4  19
TORSDOF 5
ENDMDL
MODEL 4
REMARK VINA RESULT:     -11.5      5.428     12.654
REMARK  Name = 11610553
REMARK  5 active torsions:
REMARK  status: ('A' for Active; 'I' for Inactive)
REMARK    1  A    between atoms: C_1  and  C_9
REMARK    2  A    between atoms: C_4  and  O_19
REMARK    3  A    between atoms: C_10  and  C_14
REMARK    4  A    between atoms: O_19  and  C_20
REMARK    5  A    between atoms: C_20  and  C_22
REMARK                            x       y       z     vdW  Elec       q    Type
REMARK                         _______ _______ _______ _____ _____    ______ ____
ROOT
ATOM      1  C   UNL     1      36.128 -22.987 -14.752  0.00  0.00    +0.015 C 
ATOM      2  C   UNL     1      37.323 -22.325 -15.029  0.00  0.00    +0.004 C 
ATOM      3  C   UNL     1      35.108 -23.015 -15.703  0.00  0.00    +0.004 C 
ATOM      4  C   UNL     1      36.478 -21.721 -17.202  0.00  0.00    +0.139 C 
ATOM      5  C   UNL     1      37.499 -21.689 -16.259  0.00  0.00    +0.037 C 
ATOM      6  C   UNL     1      35.284 -22.380 -16.932  0.00  0.00    +0.037 C 
ENDROOT
BRANCH   1   9
ATOM      7  N   UNL     1      34.983 -23.256 -12.594  0.00  0.00    -0.236 N 
ATOM      8  N   UNL     1      34.961 -23.983 -11.463  0.00  0.00    -0.180 NA
ATOM      9  C   UNL     1      35.946 -23.644 -13.480  0.00  0.00    +0.067 C 
ATOM     10  C   UNL     1      36.600 -24.697 -12.887  0.00  0.00    +0.036 C 
ATOM     11  C   UNL     1      35.951 -24.861 -11.648  0.00  0.00    +0.119 C 
ATOM     12  H   UNL     1      34.361 -22.514 -12.768  0.00  0.00    +0.174 HD
BRANCH  10  14
ATOM     13  N   UNL     1      39.829 -26.827 -14.600  0.00  0.00    -0.242 NA
ATOM     14  C   UNL     1      37.692 -25.418 -13.466  0.00  0.00    +0.006 C 
ATOM     15  C   UNL     1      37.451 -26.460 -14.357  0.00  0.00    +0.021 C 
ATOM     16  C   UNL     1      39.005 -25.082 -13.144  0.00  0.00    +0.021 C 
ATOM     17  C   UNL     1      38.542 -27.127 -14.891  0.00  0.00    +0.099 C 
ATOM     18  C   UNL     1      40.026 -25.811 -13.732  0.00  0.00    +0.099 C 
ENDBRANCH  10  14
ENDBRANCH   1   9
BRANCH   4  19
ATOM     19  O   UNL     1      36.651 -21.097 -18.409  0.00  0.00    -0.468 OA
BRANCH  19  20
ATOM     20  C   UNL     1      35.630 -21.285 -19.380  0.00  0.00    +0.264 C 
BRANCH  20  22
ATOM     21  N   UNL     1      34.757 -20.204 -21.361  0.00  0.00    -0.406 NA
ATOM     22  C   UNL     1      35.639 -20.141 -20.338  0.00  0.00    +0.152 C 
ATOM     23  C   UNL     1      35.604 -18.084 -22.133  0.00  0.00    +0.026 C 
ATOM     24  C   UNL     1      34.737 -19.190 -22.248  0.00  0.00    +0.113 C 
ATOM     25  C   UNL     1      36.526 -19.102 -20.143  0.00  0.00    +0.031 C 
ATOM     26  C   UNL     1      36.503 -18.059 -21.058  0.00  0.00    +0.005 C 
ATOM     27  C   UNL     1      35.557 -17.043 -23.076  0.00  0.00    +0.002 C 
ATOM     28  C   UNL     1      33.844 -19.213 -23.315  0.00  0.00    +0.085 C 
ATOM     29  C   UNL     1      34.654 -17.092 -24.134  0.00  0.00    -0.004 C 
ATOM     30  C   UNL     1      33.797 -18.179 -24.254  0.00  0.00    -0.019 C 
ENDBRANCH  20  22
ENDBRANCH  19  20
ENDBRANCH   4  19
TORSDOF 5
ENDMDL
MODEL 5
REMARK VINA RESULT:     -11.4      6.630     13.416
REMARK  Name = 11610553
REMARK  5 active torsions:
REMARK  status: ('A' for Active; 'I' for Inactive)
REMARK    1  A    between atoms: C_1  and  C_9
REMARK    2  A    between atoms: C_4  and  O_19
REMARK    3  A    between atoms: C_10  and  C_14
REMARK    4  A    between atoms: O_19  and  C_20
REMARK    5  A    between atoms: C_20  and  C_22
REMARK                            x       y       z     vdW  Elec       q    Type
REMARK                         _______ _______ _______ _____ _____    ______ ____
ROOT
ATOM      1  C   UNL     1      35.428 -23.964 -13.455  0.00  0.00    +0.015 C 
ATOM      2  C   UNL     1      36.076 -23.232 -14.449  0.00  0.00    +0.004 C 
ATOM      3  C   UNL     1      34.072 -24.266 -13.582  0.00  0.00    +0.004 C 
ATOM      4  C   UNL     1      34.017 -23.106 -15.692  0.00  0.00    +0.139 C 
ATOM      5  C   UNL     1      35.368 -22.802 -15.572  0.00  0.00    +0.037 C 
ATOM      6  C   UNL     1      33.364 -23.836 -14.703  0.00  0.00    +0.037 C 
ENDROOT
BRANCH   1   9
ATOM      7  N   UNL     1      35.900 -23.928 -11.044  0.00  0.00    -0.236 N 
ATOM      8  N   UNL     1      36.680 -24.457 -10.086  0.00  0.00    -0.180 NA
ATOM      9  C   UNL     1      36.160 -24.408 -12.294  0.00  0.00    +0.067 C 
ATOM     10  C   UNL     1      37.183 -25.314 -12.143  0.00  0.00    +0.036 C 
ATOM     11  C   UNL     1      37.462 -25.302 -10.763  0.00  0.00    +0.119 C 
ATOM     12  H   UNL     1      35.204 -23.257 -10.860  0.00  0.00    +0.174 HD
BRANCH  10  14
ATOM     13  N   UNL     1      38.946 -27.533 -15.284  0.00  0.00    -0.242 NA
ATOM     14  C   UNL     1      37.780 -26.065 -13.205  0.00  0.00    +0.006 C 
ATOM     15  C   UNL     1      37.040 -27.031 -13.884  0.00  0.00    +0.021 C 
ATOM     16  C   UNL     1      39.104 -25.836 -13.570  0.00  0.00    +0.021 C 
ATOM     17  C   UNL     1      37.663 -27.730 -14.905  0.00  0.00    +0.099 C 
ATOM     18  C   UNL     1      39.635 -26.589 -14.605  0.00  0.00    +0.099 C 
ENDBRANCH  10  14
ENDBRANCH   1   9
BRANCH   4  19
ATOM     19  O   UNL     1      33.321 -22.683 -16.794  0.00  0.00    -0.468 OA
BRANCH  19  20
ATOM     20  C   UNL     1      33.798 -23.120 -18.059  0.00  0.00    +0.264 C 
BRANCH  20  22
ATOM     21  N   UNL     1      35.306 -21.527 -19.083  0.00  0.00    -0.406 NA
ATOM     22  C   UNL     1      34.025 -21.936 -18.939  0.00  0.00    +0.152 C 
ATOM     23  C   UNL     1      34.513 -19.772 -20.532  0.00  0.00    +0.026 C 
ATOM     24  C   UNL     1      35.550 -20.460 -19.868  0.00  0.00    +0.113 C 
ATOM     25  C   UNL     1      32.946 -21.327 -19.547  0.00  0.00    +0.031 C 
ATOM     26  C   UNL     1      33.200 -20.229 -20.355  0.00  0.00    +0.005 C 
ATOM     27  C   UNL     1      34.803 -18.663 -21.344  0.00  0.00    +0.002 C 
ATOM     28  C   UNL     1      36.854 -20.006 -20.045  0.00  0.00    +0.085 C 
ATOM     29  C   UNL     1      36.116 -18.230 -21.502  0.00  0.00    -0.004 C 
ATOM     30  C   UNL     1      37.143 -18.903 -20.851  0.00  0.00    -0.019 C 
ENDBRANCH  20  22
ENDBRANCH  19  20
ENDBRANCH   4  19
TORSDOF 5
ENDMDL
MODEL 6
REMARK VINA RESULT:     -11.3      5.343     11.415
REMARK  Name = 11610553
REMARK  5 active torsions:
REMARK  status: ('A' for Active; 'I' for Inactive)
REMARK    1  A    between atoms: C_1  and  C_9
REMARK    2  A    between atoms: C_4  and  O_19
REMARK    3  A    between atoms: C_10  and  C_14
REMARK    4  A    between atoms: O_19  and  C_20
REMARK    5  A    between atoms: C_20  and  C_22
REMARK                            x       y       z     vdW  Elec       q    Type
REMARK                         _______ _______ _______ _____ _____    ______ ____
ROOT
ATOM      1  C   UNL     1      32.767 -22.945 -15.821  0.00  0.00    +0.015 C 
ATOM      2  C   UNL     1      34.138 -23.044 -16.061  0.00  0.00    +0.004 C 
ATOM      3  C   UNL     1      31.917 -22.464 -16.817  0.00  0.00    +0.004 C 
ATOM      4  C   UNL     1      33.805 -22.182 -18.286  0.00  0.00    +0.139 C 
ATOM      5  C   UNL     1      34.658 -22.661 -17.298  0.00  0.00    +0.037 C 
ATOM      6  C   UNL     1      32.437 -22.082 -18.053  0.00  0.00    +0.037 C 
ENDROOT
BRANCH   1   9
ATOM      7  N   UNL     1      33.023 -23.532 -13.449  0.00  0.00    -0.236 N 
ATOM      8  N   UNL     1      32.348 -23.897 -12.346  0.00  0.00    -0.180 NA
ATOM      9  C   UNL     1      32.229 -23.340 -14.543  0.00  0.00    +0.067 C 
ATOM     10  C   UNL     1      30.946 -23.598 -14.125  0.00  0.00    +0.036 C 
ATOM     11  C   UNL     1      31.080 -23.936 -12.765  0.00  0.00    +0.119 C 
ATOM     12  H   UNL     1      33.999 -23.414 -13.467  0.00  0.00    +0.174 HD
BRANCH  10  14
ATOM     13  N   UNL     1      27.501 -23.361 -16.569  0.00  0.00    -0.242 NA
ATOM     14  C   UNL     1      29.780 -23.518 -14.951  0.00  0.00    +0.006 C 
ATOM     15  C   UNL     1      29.009 -22.359 -14.967  0.00  0.00    +0.021 C 
ATOM     16  C   UNL     1      29.408 -24.598 -15.748  0.00  0.00    +0.021 C 
ATOM     17  C   UNL     1      27.890 -22.331 -15.784  0.00  0.00    +0.099 C 
ATOM     18  C   UNL     1      28.272 -24.470 -16.530  0.00  0.00    +0.099 C 
ENDBRANCH  10  14
ENDBRANCH   1   9
BRANCH   4  19
ATOM     19  O   UNL     1      34.316 -21.806 -19.500  0.00  0.00    -0.468 OA
BRANCH  19  20
ATOM     20  C   UNL     1      35.573 -21.143 -19.489  0.00  0.00    +0.264 C 
BRANCH  20  22
ATOM     21  N   UNL     1      34.708 -20.131 -21.510  0.00  0.00    -0.406 NA
ATOM     22  C   UNL     1      35.541 -20.004 -20.453  0.00  0.00    +0.152 C 
ATOM     23  C   UNL     1      35.436 -17.960 -22.259  0.00  0.00    +0.026 C 
ATOM     24  C   UNL     1      34.654 -19.124 -22.403  0.00  0.00    +0.113 C 
ATOM     25  C   UNL     1      36.345 -18.905 -20.228  0.00  0.00    +0.031 C 
ATOM     26  C   UNL     1      36.287 -17.869 -21.149  0.00  0.00    +0.005 C 
ATOM     27  C   UNL     1      35.355 -16.928 -23.209  0.00  0.00    +0.002 C 
ATOM     28  C   UNL     1      33.808 -19.213 -23.505  0.00  0.00    +0.085 C 
ATOM     29  C   UNL     1      34.501 -17.043 -24.303  0.00  0.00    -0.004 C 
ATOM     30  C   UNL     1      33.728 -18.187 -24.451  0.00  0.00    -0.019 C 
ENDBRANCH  20  22
ENDBRANCH  19  20
ENDBRANCH   4  19
TORSDOF 5
ENDMDL
MODEL 7
REMARK VINA RESULT:     -11.0      4.035      7.007
REMARK  Name = 11610553
REMARK  5 active torsions:
REMARK  status: ('A' for Active; 'I' for Inactive)
REMARK    1  A    between atoms: C_1  and  C_9
REMARK    2  A    between atoms: C_4  and  O_19
REMARK    3  A    between atoms: C_10  and  C_14
REMARK    4  A    between atoms: O_19  and  C_20
REMARK    5  A    between atoms: C_20  and  C_22
REMARK                            x       y       z     vdW  Elec       q    Type
REMARK                         _______ _______ _______ _____ _____    ______ ____
ROOT
ATOM      1  C   UNL     1      31.552  -6.171 -21.768  0.00  0.00    +0.015 C 
ATOM      2  C   UNL     1      32.142  -6.520 -20.553  0.00  0.00    +0.004 C 
ATOM      3  C   UNL     1      31.150  -7.165 -22.659  0.00  0.00    +0.004 C 
ATOM      4  C   UNL     1      31.927  -8.850 -21.124  0.00  0.00    +0.139 C 
ATOM      5  C   UNL     1      32.330  -7.864 -20.230  0.00  0.00    +0.037 C 
ATOM      6  C   UNL     1      31.338  -8.509 -22.337  0.00  0.00    +0.037 C 
ENDROOT
BRANCH   1   9
ATOM      7  N   UNL     1      30.526  -3.971 -21.385  0.00  0.00    -0.236 N 
ATOM      8  N   UNL     1      30.471  -2.709 -21.841  0.00  0.00    -0.180 NA
ATOM      9  C   UNL     1      31.358  -4.781 -22.102  0.00  0.00    +0.067 C 
ATOM     10  C   UNL     1      31.884  -3.992 -23.097  0.00  0.00    +0.036 C 
ATOM     11  C   UNL     1      31.302  -2.727 -22.886  0.00  0.00    +0.119 C 
ATOM     12  H   UNL     1      30.014  -4.284 -20.605  0.00  0.00    +0.174 HD
BRANCH  10  14
ATOM     13  N   UNL     1      34.631  -5.297 -26.037  0.00  0.00    -0.242 NA
ATOM     14  C   UNL     1      32.814  -4.433 -24.091  0.00  0.00    +0.006 C 
ATOM     15  C   UNL     1      33.916  -5.203 -23.729  0.00  0.00    +0.021 C 
ATOM     16  C   UNL     1      32.623  -4.097 -25.429  0.00  0.00    +0.021 C 
ATOM     17  C   UNL     1      34.786  -5.606 -24.729  0.00  0.00    +0.099 C 
ATOM     18  C   UNL     1      33.552  -4.549 -26.353  0.00  0.00    +0.099 C 
ENDBRANCH  10  14
ENDBRANCH   1   9
BRANCH   4  19
ATOM     19  O   UNL     1      32.112 -10.170 -20.807  0.00  0.00    -0.468 OA
BRANCH  19  20
ATOM     20  C   UNL     1      31.557 -11.127 -21.699  0.00  0.00    +0.264 C 
BRANCH  20  22
ATOM     21  N   UNL     1      32.649 -12.879 -22.962  0.00  0.00    -0.406 NA
ATOM     22  C   UNL     1      32.436 -12.332 -21.744  0.00  0.00    +0.152 C 
ATOM     23  C   UNL     1      34.032 -14.542 -21.899  0.00  0.00    +0.026 C 
ATOM     24  C   UNL     1      33.436 -13.969 -23.042  0.00  0.00    +0.113 C 
ATOM     25  C   UNL     1      32.975 -12.820 -20.571  0.00  0.00    +0.031 C 
ATOM     26  C   UNL     1      33.785 -13.943 -20.656  0.00  0.00    +0.005 C 
ATOM     27  C   UNL     1      34.848 -15.679 -22.018  0.00  0.00    +0.002 C 
ATOM     28  C   UNL     1      33.683 -14.564 -24.276  0.00  0.00    +0.085 C 
ATOM     29  C   UNL     1      35.077 -16.254 -23.265  0.00  0.00    -0.004 C 
ATOM     30  C   UNL     1      34.493 -15.696 -24.395  0.00  0.00    -0.019 C 
ENDBRANCH  20  22
ENDBRANCH  19  20
ENDBRANCH   4  19
TORSDOF 5
ENDMDL
MODEL 8
REMARK VINA RESULT:     -11.0      6.646     13.281
REMARK  Name = 11610553
REMARK  5 active torsions:
REMARK  status: ('A' for Active; 'I' for Inactive)
REMARK    1  A    between atoms: C_1  and  C_9
REMARK    2  A    between atoms: C_4  and  O_19
REMARK    3  A    between atoms: C_10  and  C_14
REMARK    4  A    between atoms: O_19  and  C_20
REMARK    5  A    between atoms: C_20  and  C_22
REMARK                            x       y       z     vdW  Elec       q    Type
REMARK                         _______ _______ _______ _____ _____    ______ ____
ROOT
ATOM      1  C   UNL     1      37.261 -23.936 -14.919  0.00  0.00    +0.015 C 
ATOM      2  C   UNL     1      36.074 -24.661 -14.809  0.00  0.00    +0.004 C 
ATOM      3  C   UNL     1      37.271 -22.713 -15.589  0.00  0.00    +0.004 C 
ATOM      4  C   UNL     1      34.917 -22.943 -16.038  0.00  0.00    +0.139 C 
ATOM      5  C   UNL     1      34.899 -24.162 -15.371  0.00  0.00    +0.037 C 
ATOM      6  C   UNL     1      36.097 -22.214 -16.150  0.00  0.00    +0.037 C 
ENDROOT
BRANCH   1   9
ATOM      7  N   UNL     1      39.562 -24.778 -15.098  0.00  0.00    -0.236 N 
ATOM      8  N   UNL     1      40.603 -25.242 -14.386  0.00  0.00    -0.180 NA
ATOM      9  C   UNL     1      38.476 -24.451 -14.338  0.00  0.00    +0.067 C 
ATOM     10  C   UNL     1      38.833 -24.721 -13.039  0.00  0.00    +0.036 C 
ATOM     11  C   UNL     1      40.152 -25.204 -13.129  0.00  0.00    +0.119 C 
ATOM     12  H   UNL     1      39.580 -24.682 -16.077  0.00  0.00    +0.174 HD
BRANCH  10  14
ATOM     13  N   UNL     1      36.348 -24.144  -9.663  0.00  0.00    -0.242 NA
ATOM     14  C   UNL     1      37.992 -24.526 -11.897  0.00  0.00    +0.006 C 
ATOM     15  C   UNL     1      37.399 -25.617 -11.268  0.00  0.00    +0.021 C 
ATOM     16  C   UNL     1      37.761 -23.243 -11.406  0.00  0.00    +0.021 C 
ATOM     17  C   UNL     1      36.594 -25.376 -10.166  0.00  0.00    +0.099 C 
ATOM     18  C   UNL     1      36.939 -23.108 -10.298  0.00  0.00    +0.099 C 
ENDBRANCH  10  14
ENDBRANCH   1   9
BRANCH   4  19
ATOM     19  O   UNL     1      33.762 -22.453 -16.589  0.00  0.00    -0.468 OA
BRANCH  19  20
ATOM     20  C   UNL     1      33.446 -22.887 -17.905  0.00  0.00    +0.264 C 
BRANCH  20  22
ATOM     21  N   UNL     1      35.050 -21.444 -19.003  0.00  0.00    -0.406 NA
ATOM     22  C   UNL     1      33.750 -21.794 -18.874  0.00  0.00    +0.152 C 
ATOM     23  C   UNL     1      34.377 -19.796 -20.627  0.00  0.00    +0.026 C 
ATOM     24  C   UNL     1      35.363 -20.459 -19.866  0.00  0.00    +0.113 C 
ATOM     25  C   UNL     1      32.717 -21.203 -19.574  0.00  0.00    +0.031 C 
ATOM     26  C   UNL     1      33.042 -20.189 -20.463  0.00  0.00    +0.005 C 
ATOM     27  C   UNL     1      34.738 -18.772 -21.519  0.00  0.00    +0.002 C 
ATOM     28  C   UNL     1      36.688 -20.068 -20.031  0.00  0.00    +0.085 C 
ATOM     29  C   UNL     1      36.072 -18.402 -21.663  0.00  0.00    -0.004 C 
ATOM     30  C   UNL     1      37.048 -19.050 -20.917  0.00  0.00    -0.019 C 
ENDBRANCH  20  22
ENDBRANCH  19  20
ENDBRANCH   4  19
TORSDOF 5
ENDMDL
MODEL 9
REMARK VINA RESULT:     -10.9      2.782      4.585
REMARK  Name = 11610553
REMARK  5 active torsions:
REMARK  status: ('A' for Active; 'I' for Inactive)
REMARK    1  A    between atoms: C_1  and  C_9
REMARK    2  A    between atoms: C_4  and  O_19
REMARK    3  A    between atoms: C_10  and  C_14
REMARK    4  A    between atoms: O_19  and  C_20
REMARK    5  A    between atoms: C_20  and  C_22
REMARK                            x       y       z     vdW  Elec       q    Type
REMARK                         _______ _______ _______ _____ _____    ______ ____
ROOT
ATOM      1  C   UNL     1      32.473  -9.320 -21.282  0.00  0.00    +0.015 C 
ATOM      2  C   UNL     1      31.830 -10.459 -20.797  0.00  0.00    +0.004 C 
ATOM      3  C   UNL     1      33.257  -9.399 -22.432  0.00  0.00    +0.004 C 
ATOM      4  C   UNL     1      32.757 -11.747 -22.608  0.00  0.00    +0.139 C 
ATOM      5  C   UNL     1      31.973 -11.677 -21.462  0.00  0.00    +0.037 C 
ATOM      6  C   UNL     1      33.401 -10.615 -23.098  0.00  0.00    +0.037 C 
ENDROOT
BRANCH   1   9
ATOM      7  N   UNL     1      32.233  -7.983 -19.234  0.00  0.00    -0.236 N 
ATOM      8  N   UNL     1      32.100  -6.729 -18.770  0.00  0.00    -0.180 NA
ATOM      9  C   UNL     1      32.325  -8.061 -20.594  0.00  0.00    +0.067 C 
ATOM     10  C   UNL     1      32.246  -6.767 -21.050  0.00  0.00    +0.036 C 
ATOM     11  C   UNL     1      32.109  -5.991 -19.884  0.00  0.00    +0.119 C 
ATOM     12  H   UNL     1      32.262  -8.773 -18.648  0.00  0.00    +0.174 HD
BRANCH  10  14
ATOM     13  N   UNL     1      32.406  -5.611 -25.117  0.00  0.00    -0.242 NA
ATOM     14  C   UNL     1      32.300  -6.375 -22.426  0.00  0.00    +0.006 C 
ATOM     15  C   UNL     1      33.487  -5.893 -22.972  0.00  0.00    +0.021 C 
ATOM     16  C   UNL     1      31.167  -6.474 -23.229  0.00  0.00    +0.021 C 
ATOM     17  C   UNL     1      33.488  -5.528 -24.309  0.00  0.00    +0.099 C 
ATOM     18  C   UNL     1      31.272  -6.082 -24.554  0.00  0.00    +0.099 C 
ENDBRANCH  10  14
ENDBRANCH   1   9
BRANCH   4  19
ATOM     19  O   UNL     1      32.898 -12.943 -23.261  0.00  0.00    -0.468 OA
BRANCH  19  20
ATOM     20  C   UNL     1      34.218 -13.322 -23.629  0.00  0.00    +0.264 C 
BRANCH  20  22
ATOM     21  N   UNL     1      34.892 -15.284 -22.382  0.00  0.00    -0.406 NA
ATOM     22  C   UNL     1      34.355 -14.804 -23.527  0.00  0.00    +0.152 C 
ATOM     23  C   UNL     1      34.640 -17.508 -23.275  0.00  0.00    +0.026 C 
ATOM     24  C   UNL     1      35.033 -16.617 -22.255  0.00  0.00    +0.113 C 
ATOM     25  C   UNL     1      33.942 -15.596 -24.579  0.00  0.00    +0.031 C 
ATOM     26  C   UNL     1      34.089 -16.969 -24.446  0.00  0.00    +0.005 C 
ATOM     27  C   UNL     1      34.802 -18.894 -23.109  0.00  0.00    +0.002 C 
ATOM     28  C   UNL     1      35.580 -17.153 -21.092  0.00  0.00    +0.085 C 
ATOM     29  C   UNL     1      35.353 -19.403 -21.936  0.00  0.00    -0.004 C 
ATOM     30  C   UNL     1      35.742 -18.531 -20.927  0.00  0.00    -0.019 C 
ENDBRANCH  20  22
ENDBRANCH  19  20
ENDBRANCH   4  19
TORSDOF 5
ENDMDL
