MODEL 1
REMARK VINA RESULT:     -12.0      0.000      0.000
REMARK  Name = 46911863
REMARK  3 active torsions:
REMARK  status: ('A' for Active; 'I' for Inactive)
REMARK    1  A    between atoms: C_5  and  C_18
REMARK    2  A    between atoms: C_7  and  C_12
REMARK    3  A    between atoms: C_18  and  C_20
REMARK                            x       y       z     vdW  Elec       q    Type
REMARK                         _______ _______ _______ _____ _____    ______ ____
ROOT
ATOM      1  N   UNL     1      34.376 -22.081 -17.868  0.00  0.00    -0.190 N 
ATOM      2  N   UNL     1      35.413 -22.464 -17.083  0.00  0.00    -0.162 NA
ATOM      3  N   UNL     1      33.234 -21.197 -19.517  0.00  0.00    -0.126 NA
ATOM      4  N   UNL     1      32.341 -21.766 -18.632  0.00  0.00    -0.127 NA
ATOM      5  C   UNL     1      34.444 -21.395 -19.044  0.00  0.00    +0.228 A 
ATOM      6  C   UNL     1      33.035 -22.295 -17.645  0.00  0.00    +0.187 A 
ATOM      7  C   UNL     1      35.052 -23.102 -16.006  0.00  0.00    +0.104 C 
ATOM      8  C   UNL     1      32.675 -23.001 -16.481  0.00  0.00    +0.042 C 
ATOM      9  C   UNL     1      33.632 -23.421 -15.645  0.00  0.00    +0.024 C 
ENDROOT
BRANCH   7  12
ATOM     10  N   UNL     1      37.292 -24.808 -13.713  0.00  0.00    -0.208 N 
ATOM     11  N   UNL     1      37.934 -23.627 -13.702  0.00  0.00    -0.176 NA
ATOM     12  C   UNL     1      36.099 -23.571 -15.061  0.00  0.00    +0.056 C 
ATOM     13  C   UNL     1      36.187 -24.827 -14.511  0.00  0.00    +0.087 C 
ATOM     14  C   UNL     1      37.200 -22.875 -14.526  0.00  0.00    +0.121 C 
ATOM     15  C   UNL     1      37.797 -25.906 -12.924  0.00  0.00    +0.140 C 
ENDBRANCH   7  12
BRANCH   5  18
ATOM     16  F   UNL     1      36.352 -22.016 -20.322  0.00  0.00    -0.191 F 
ATOM     17  F   UNL     1      36.680 -20.672 -18.676  0.00  0.00    -0.191 F 
ATOM     18  C   UNL     1      35.763 -20.946 -19.674  0.00  0.00    +0.335 C 
BRANCH  18  20
ATOM     19  N   UNL     1      35.075 -16.505 -23.112  0.00  0.00    -0.244 NA
ATOM     20  C   UNL     1      35.577 -19.782 -20.587  0.00  0.00    +0.045 C 
ATOM     21  C   UNL     1      34.884 -19.936 -21.784  0.00  0.00    +0.003 C 
ATOM     22  C   UNL     1      34.705 -18.840 -22.647  0.00  0.00    +0.018 C 
ATOM     23  C   UNL     1      36.093 -18.538 -20.247  0.00  0.00    +0.003 C 
ATOM     24  C   UNL     1      35.227 -17.575 -22.308  0.00  0.00    +0.081 C 
ATOM     25  C   UNL     1      35.916 -17.451 -21.105  0.00  0.00    +0.019 C 
ATOM     26  C   UNL     1      34.012 -18.966 -23.858  0.00  0.00    +0.003 C 
ATOM     27  C   UNL     1      33.852 -17.866 -24.688  0.00  0.00    +0.021 C 
ATOM     28  C   UNL     1      34.398 -16.668 -24.272  0.00  0.00    +0.099 C 
ENDBRANCH  18  20
ENDBRANCH   5  18
TORSDOF 3
ENDMDL
MODEL 2
REMARK VINA RESULT:     -11.4      3.128      5.565
REMARK  Name = 46911863
REMARK  3 active torsions:
REMARK  status: ('A' for Active; 'I' for Inactive)
REMARK    1  A    between atoms: C_5  and  C_18
REMARK    2  A    between atoms: C_7  and  C_12
REMARK    3  A    between atoms: C_18  and  C_20
REMARK                            x       y       z     vdW  Elec       q    Type
REMARK                         _______ _______ _______ _____ _____    ______ ____
ROOT
ATOM      1  N   UNL     1      32.735 -22.900 -16.237  0.00  0.00    -0.190 N 
ATOM      2  N   UNL     1      31.421 -22.795 -16.554  0.00  0.00    -0.162 NA
ATOM      3  N   UNL     1      34.917 -22.982 -16.426  0.00  0.00    -0.126 NA
ATOM      4  N   UNL     1      34.593 -23.155 -15.096  0.00  0.00    -0.127 NA
ATOM      5  C   UNL     1      33.795 -22.831 -17.093  0.00  0.00    +0.228 A 
ATOM      6  C   UNL     1      33.282 -23.104 -14.991  0.00  0.00    +0.187 A 
ATOM      7  C   UNL     1      30.621 -22.909 -15.531  0.00  0.00    +0.104 C 
ATOM      8  C   UNL     1      32.395 -23.207 -13.902  0.00  0.00    +0.042 C 
ATOM      9  C   UNL     1      31.077 -23.114 -14.118  0.00  0.00    +0.024 C 
ENDROOT
BRANCH   7  12
ATOM     10  N   UNL     1      27.027 -22.393 -15.488  0.00  0.00    -0.208 N 
ATOM     11  N   UNL     1      27.080 -22.996 -16.689  0.00  0.00    -0.176 NA
ATOM     12  C   UNL     1      29.154 -22.816 -15.750  0.00  0.00    +0.056 C 
ATOM     13  C   UNL     1      28.242 -22.261 -14.884  0.00  0.00    +0.087 C 
ATOM     14  C   UNL     1      28.382 -23.252 -16.843  0.00  0.00    +0.121 C 
ATOM     15  C   UNL     1      25.757 -21.956 -14.961  0.00  0.00    +0.140 C 
ENDBRANCH   7  12
BRANCH   5  18
ATOM     16  F   UNL     1      32.346 -22.214 -18.875  0.00  0.00    -0.191 F 
ATOM     17  F   UNL     1      33.718 -23.826 -19.252  0.00  0.00    -0.191 F 
ATOM     18  C   UNL     1      33.641 -22.610 -18.597  0.00  0.00    +0.335 C 
BRANCH  18  20
ATOM     19  N   UNL     1      37.460 -18.928 -20.565  0.00  0.00    -0.244 NA
ATOM     20  C   UNL     1      34.640 -21.636 -19.123  0.00  0.00    +0.045 C 
ATOM     21  C   UNL     1      34.286 -20.745 -20.131  0.00  0.00    +0.003 C 
ATOM     22  C   UNL     1      35.225 -19.825 -20.628  0.00  0.00    +0.018 C 
ATOM     23  C   UNL     1      35.930 -21.613 -18.609  0.00  0.00    +0.003 C 
ATOM     24  C   UNL     1      36.536 -19.796 -20.111  0.00  0.00    +0.081 C 
ATOM     25  C   UNL     1      36.863 -20.699 -19.104  0.00  0.00    +0.019 C 
ATOM     26  C   UNL     1      34.895 -18.916 -21.642  0.00  0.00    +0.003 C 
ATOM     27  C   UNL     1      35.845 -18.020 -22.112  0.00  0.00    +0.021 C 
ATOM     28  C   UNL     1      37.102 -18.066 -21.544  0.00  0.00    +0.099 C 
ENDBRANCH  18  20
ENDBRANCH   5  18
TORSDOF 3
ENDMDL
MODEL 3
REMARK VINA RESULT:     -11.0      2.612      8.820
REMARK  Name = 46911863
REMARK  3 active torsions:
REMARK  status: ('A' for Active; 'I' for Inactive)
REMARK    1  A    between atoms: C_5  and  C_18
REMARK    2  A    between atoms: C_7  and  C_12
REMARK    3  A    between atoms: C_18  and  C_20
REMARK                            x       y       z     vdW  Elec       q    Type
REMARK                         _______ _______ _______ _____ _____    ______ ____
ROOT
ATOM      1  N   UNL     1      35.281 -20.314 -19.939  0.00  0.00    -0.190 N 
ATOM      2  N   UNL     1      34.609 -19.721 -20.957  0.00  0.00    -0.162 NA
ATOM      3  N   UNL     1      35.723 -21.541 -18.178  0.00  0.00    -0.126 NA
ATOM      4  N   UNL     1      36.886 -20.903 -18.561  0.00  0.00    -0.127 NA
ATOM      5  C   UNL     1      34.776 -21.177 -19.013  0.00  0.00    +0.228 A 
ATOM      6  C   UNL     1      36.612 -20.169 -19.619  0.00  0.00    +0.187 A 
ATOM      7  C   UNL     1      35.345 -18.931 -21.686  0.00  0.00    +0.104 C 
ATOM      8  C   UNL     1      37.387 -19.322 -20.435  0.00  0.00    +0.042 C 
ATOM      9  C   UNL     1      36.809 -18.694 -21.466  0.00  0.00    +0.024 C 
ENDROOT
BRANCH   7  12
ATOM     10  N   UNL     1      34.088 -16.661 -24.226  0.00  0.00    -0.208 N 
ATOM     11  N   UNL     1      33.545 -17.779 -24.739  0.00  0.00    -0.176 NA
ATOM     12  C   UNL     1      34.721 -18.218 -22.831  0.00  0.00    +0.056 C 
ATOM     13  C   UNL     1      34.802 -16.870 -23.083  0.00  0.00    +0.087 C 
ATOM     14  C   UNL     1      33.935 -18.726 -23.882  0.00  0.00    +0.121 C 
ATOM     15  C   UNL     1      33.885 -15.396 -24.890  0.00  0.00    +0.140 C 
ENDBRANCH   7  12
BRANCH   5  18
ATOM     16  F   UNL     1      33.065 -22.436 -20.084  0.00  0.00    -0.191 F 
ATOM     17  F   UNL     1      32.499 -20.535 -19.255  0.00  0.00    -0.191 F 
ATOM     18  C   UNL     1      33.313 -21.621 -18.995  0.00  0.00    +0.335 C 
BRANCH  18  20
ATOM     19  N   UNL     1      31.971 -24.164 -14.121  0.00  0.00    -0.244 NA
ATOM     20  C   UNL     1      32.950 -22.289 -17.712  0.00  0.00    +0.045 C 
ATOM     21  C   UNL     1      31.623 -22.322 -17.292  0.00  0.00    +0.003 C 
ATOM     22  C   UNL     1      31.276 -22.951 -16.084  0.00  0.00    +0.018 C 
ATOM     23  C   UNL     1      33.932 -22.880 -16.929  0.00  0.00    +0.003 C 
ATOM     24  C   UNL     1      32.269 -23.554 -15.284  0.00  0.00    +0.081 C 
ATOM     25  C   UNL     1      33.587 -23.504 -15.728  0.00  0.00    +0.019 C 
ATOM     26  C   UNL     1      29.949 -23.000 -15.637  0.00  0.00    +0.003 C 
ATOM     27  C   UNL     1      29.639 -23.628 -14.440  0.00  0.00    +0.021 C 
ATOM     28  C   UNL     1      30.677 -24.190 -13.725  0.00  0.00    +0.099 C 
ENDBRANCH  18  20
ENDBRANCH   5  18
TORSDOF 3
ENDMDL
MODEL 4
REMARK VINA RESULT:     -11.0      5.156      8.534
REMARK  Name = 46911863
REMARK  3 active torsions:
REMARK  status: ('A' for Active; 'I' for Inactive)
REMARK    1  A    between atoms: C_5  and  C_18
REMARK    2  A    between atoms: C_7  and  C_12
REMARK    3  A    between atoms: C_18  and  C_20
REMARK                            x       y       z     vdW  Elec       q    Type
REMARK                         _______ _______ _______ _____ _____    ______ ____
ROOT
ATOM      1  N   UNL     1      34.317 -15.740 -23.034  0.00  0.00    -0.190 N 
ATOM      2  N   UNL     1      34.790 -16.491 -22.009  0.00  0.00    -0.162 NA
ATOM      3  N   UNL     1      33.486 -14.056 -24.164  0.00  0.00    -0.126 NA
ATOM      4  N   UNL     1      33.677 -15.108 -25.036  0.00  0.00    -0.127 NA
ATOM      5  C   UNL     1      33.874 -14.451 -22.972  0.00  0.00    +0.228 A 
ATOM      6  C   UNL     1      34.176 -16.114 -24.350  0.00  0.00    +0.187 A 
ATOM      7  C   UNL     1      35.137 -17.698 -22.356  0.00  0.00    +0.104 C 
ATOM      8  C   UNL     1      34.574 -17.419 -24.700  0.00  0.00    +0.042 C 
ATOM      9  C   UNL     1      35.056 -18.234 -23.753  0.00  0.00    +0.024 C 
ENDROOT
BRANCH   7  12
ATOM     10  N   UNL     1      35.863 -20.254 -19.881  0.00  0.00    -0.208 N 
ATOM     11  N   UNL     1      37.040 -19.611 -19.786  0.00  0.00    -0.176 NA
ATOM     12  C   UNL     1      35.667 -18.622 -21.319  0.00  0.00    +0.056 C 
ATOM     13  C   UNL     1      35.005 -19.701 -20.785  0.00  0.00    +0.087 C 
ATOM     14  C   UNL     1      36.914 -18.615 -20.666  0.00  0.00    +0.121 C 
ATOM     15  C   UNL     1      35.613 -21.416 -19.063  0.00  0.00    +0.140 C 
ENDBRANCH   7  12
BRANCH   5  18
ATOM     16  F   UNL     1      35.144 -13.488 -21.207  0.00  0.00    -0.191 F 
ATOM     17  F   UNL     1      33.261 -14.378 -20.675  0.00  0.00    -0.191 F 
ATOM     18  C   UNL     1      33.854 -13.635 -21.680  0.00  0.00    +0.335 C 
BRANCH  18  20
ATOM     19  N   UNL     1      31.262  -8.651 -22.355  0.00  0.00    -0.244 NA
ATOM     20  C   UNL     1      33.179 -12.319 -21.863  0.00  0.00    +0.045 C 
ATOM     21  C   UNL     1      33.803 -11.307 -22.586  0.00  0.00    +0.003 C 
ATOM     22  C   UNL     1      33.170 -10.064 -22.762  0.00  0.00    +0.018 C 
ATOM     23  C   UNL     1      31.923 -12.094 -21.312  0.00  0.00    +0.003 C 
ATOM     24  C   UNL     1      31.896  -9.830 -22.206  0.00  0.00    +0.081 C 
ATOM     25  C   UNL     1      31.295 -10.859 -21.487  0.00  0.00    +0.019 C 
ATOM     26  C   UNL     1      33.776  -9.029 -23.486  0.00  0.00    +0.003 C 
ATOM     27  C   UNL     1      33.125  -7.813 -23.642  0.00  0.00    +0.021 C 
ATOM     28  C   UNL     1      31.880  -7.677 -23.061  0.00  0.00    +0.099 C 
ENDBRANCH  18  20
ENDBRANCH   5  18
TORSDOF 3
ENDMDL
MODEL 5
REMARK VINA RESULT:     -10.9      2.052      2.981
REMARK  Name = 46911863
REMARK  3 active torsions:
REMARK  status: ('A' for Active; 'I' for Inactive)
REMARK    1  A    between atoms: C_5  and  C_18
REMARK    2  A    between atoms: C_7  and  C_12
REMARK    3  A    between atoms: C_18  and  C_20
REMARK                            x       y       z     vdW  Elec       q    Type
REMARK                         _______ _______ _______ _____ _____    ______ ____
ROOT
ATOM      1  N   UNL     1      32.798 -23.017 -15.975  0.00  0.00    -0.190 N 
ATOM      2  N   UNL     1      33.828 -23.502 -15.238  0.00  0.00    -0.162 NA
ATOM      3  N   UNL     1      31.637 -22.239 -17.663  0.00  0.00    -0.126 NA
ATOM      4  N   UNL     1      30.811 -22.288 -16.559  0.00  0.00    -0.127 NA
ATOM      5  C   UNL     1      32.819 -22.679 -17.296  0.00  0.00    +0.228 A 
ATOM      6  C   UNL     1      31.515 -22.755 -15.550  0.00  0.00    +0.187 A 
ATOM      7  C   UNL     1      33.523 -23.730 -13.992  0.00  0.00    +0.104 C 
ATOM      8  C   UNL     1      31.210 -23.027 -14.202  0.00  0.00    +0.042 C 
ATOM      9  C   UNL     1      32.164 -23.511 -13.397  0.00  0.00    +0.024 C 
ENDROOT
BRANCH   7  12
ATOM     10  N   UNL     1      36.384 -25.199 -12.306  0.00  0.00    -0.208 N 
ATOM     11  N   UNL     1      35.729 -24.821 -11.194  0.00  0.00    -0.176 NA
ATOM     12  C   UNL     1      34.570 -24.260 -13.079  0.00  0.00    +0.056 C 
ATOM     13  C   UNL     1      35.732 -24.886 -13.462  0.00  0.00    +0.087 C 
ATOM     14  C   UNL     1      34.622 -24.249 -11.673  0.00  0.00    +0.121 C 
ATOM     15  C   UNL     1      37.658 -25.868 -12.195  0.00  0.00    +0.140 C 
ENDBRANCH   7  12
BRANCH   5  18
ATOM     16  F   UNL     1      34.025 -24.014 -18.852  0.00  0.00    -0.191 F 
ATOM     17  F   UNL     1      35.179 -22.970 -17.368  0.00  0.00    -0.191 F 
ATOM     18  C   UNL     1      34.065 -22.811 -18.171  0.00  0.00    +0.335 C 
BRANCH  18  20
ATOM     19  N   UNL     1      34.604 -18.427 -21.708  0.00  0.00    -0.244 NA
ATOM     20  C   UNL     1      34.217 -21.656 -19.101  0.00  0.00    +0.045 C 
ATOM     21  C   UNL     1      35.479 -21.128 -19.361  0.00  0.00    +0.003 C 
ATOM     22  C   UNL     1      35.626 -20.039 -20.238  0.00  0.00    +0.018 C 
ATOM     23  C   UNL     1      33.101 -21.100 -19.714  0.00  0.00    +0.003 C 
ATOM     24  C   UNL     1      34.498 -19.470 -20.863  0.00  0.00    +0.081 C 
ATOM     25  C   UNL     1      33.249 -20.018 -20.585  0.00  0.00    +0.019 C 
ATOM     26  C   UNL     1      36.884 -19.488 -20.518  0.00  0.00    +0.003 C 
ATOM     27  C   UNL     1      36.997 -18.414 -21.388  0.00  0.00    +0.021 C 
ATOM     28  C   UNL     1      35.836 -17.924 -21.952  0.00  0.00    +0.099 C 
ENDBRANCH  18  20
ENDBRANCH   5  18
TORSDOF 3
ENDMDL
MODEL 6
REMARK VINA RESULT:     -10.8      6.729     12.428
REMARK  Name = 46911863
REMARK  3 active torsions:
REMARK  status: ('A' for Active; 'I' for Inactive)
REMARK    1  A    between atoms: C_5  and  C_18
REMARK    2  A    between atoms: C_7  and  C_12
REMARK    3  A    between atoms: C_18  and  C_20
REMARK                            x       y       z     vdW  Elec       q    Type
REMARK                         _______ _______ _______ _____ _____    ______ ____
ROOT
ATOM      1  N   UNL     1      32.532 -11.477 -21.866  0.00  0.00    -0.190 N 
ATOM      2  N   UNL     1      32.741 -10.391 -22.650  0.00  0.00    -0.162 NA
ATOM      3  N   UNL     1      32.527 -13.545 -21.140  0.00  0.00    -0.126 NA
ATOM      4  N   UNL     1      31.893 -12.758 -20.201  0.00  0.00    -0.127 NA
ATOM      5  C   UNL     1      32.902 -12.763 -22.128  0.00  0.00    +0.228 A 
ATOM      6  C   UNL     1      31.901 -11.518 -20.644  0.00  0.00    +0.187 A 
ATOM      7  C   UNL     1      32.270  -9.282 -22.152  0.00  0.00    +0.104 C 
ATOM      8  C   UNL     1      31.418 -10.302 -20.122  0.00  0.00    +0.042 C 
ATOM      9  C   UNL     1      31.579  -9.175 -20.826  0.00  0.00    +0.024 C 
ENDROOT
BRANCH   7  12
ATOM     10  N   UNL     1      33.296  -6.282 -23.923  0.00  0.00    -0.208 N 
ATOM     11  N   UNL     1      31.975  -6.141 -24.135  0.00  0.00    -0.176 NA
ATOM     12  C   UNL     1      32.432  -8.021 -22.922  0.00  0.00    +0.056 C 
ATOM     13  C   UNL     1      33.621  -7.392 -23.200  0.00  0.00    +0.087 C 
ATOM     14  C   UNL     1      31.453  -7.206 -23.521  0.00  0.00    +0.121 C 
ATOM     15  C   UNL     1      34.215  -5.302 -24.448  0.00  0.00    +0.140 C 
ENDBRANCH   7  12
BRANCH   5  18
ATOM     16  F   UNL     1      34.709 -12.325 -23.612  0.00  0.00    -0.191 F 
ATOM     17  F   UNL     1      32.844 -12.921 -24.500  0.00  0.00    -0.191 F 
ATOM     18  C   UNL     1      33.641 -13.178 -23.400  0.00  0.00    +0.335 C 
BRANCH  18  20
ATOM     19  N   UNL     1      35.274 -18.593 -23.259  0.00  0.00    -0.244 NA
ATOM     20  C   UNL     1      34.075 -14.603 -23.353  0.00  0.00    +0.045 C 
ATOM     21  C   UNL     1      34.609 -15.134 -22.183  0.00  0.00    +0.003 C 
ATOM     22  C   UNL     1      35.018 -16.478 -22.134  0.00  0.00    +0.018 C 
ATOM     23  C   UNL     1      33.948 -15.409 -24.477  0.00  0.00    +0.003 C 
ATOM     24  C   UNL     1      34.892 -17.302 -23.271  0.00  0.00    +0.081 C 
ATOM     25  C   UNL     1      34.355 -16.745 -24.428  0.00  0.00    +0.019 C 
ATOM     26  C   UNL     1      35.559 -17.038 -20.969  0.00  0.00    +0.003 C 
ATOM     27  C   UNL     1      35.953 -18.369 -20.953  0.00  0.00    +0.021 C 
ATOM     28  C   UNL     1      35.791 -19.097 -22.115  0.00  0.00    +0.099 C 
ENDBRANCH  18  20
ENDBRANCH   5  18
TORSDOF 3
ENDMDL
MODEL 7
REMARK VINA RESULT:     -10.8      9.503     13.896
REMARK  Name = 46911863
REMARK  3 active torsions:
REMARK  status: ('A' for Active; 'I' for Inactive)
REMARK    1  A    between atoms: C_5  and  C_18
REMARK    2  A    between atoms: C_7  and  C_12
REMARK    3  A    between atoms: C_18  and  C_20
REMARK                            x       y       z     vdW  Elec       q    Type
REMARK                         _______ _______ _______ _____ _____    ______ ____
ROOT
ATOM      1  N   UNL     1      32.866  -9.813 -22.196  0.00  0.00    -0.190 N 
ATOM      2  N   UNL     1      33.315 -10.793 -23.019  0.00  0.00    -0.162 NA
ATOM      3  N   UNL     1      32.547  -7.840 -21.297  0.00  0.00    -0.126 NA
ATOM      4  N   UNL     1      31.827  -8.766 -20.570  0.00  0.00    -0.127 NA
ATOM      5  C   UNL     1      33.160  -8.484 -22.265  0.00  0.00    +0.228 A 
ATOM      6  C   UNL     1      32.024  -9.948 -21.116  0.00  0.00    +0.187 A 
ATOM      7  C   UNL     1      32.876 -11.982 -22.712  0.00  0.00    +0.104 C 
ATOM      8  C   UNL     1      31.553 -11.241 -20.818  0.00  0.00    +0.042 C 
ATOM      9  C   UNL     1      31.942 -12.273 -21.577  0.00  0.00    +0.024 C 
ENDROOT
BRANCH   7  12
ATOM     10  N   UNL     1      34.063 -15.092 -24.162  0.00  0.00    -0.208 N 
ATOM     11  N   UNL     1      33.747 -14.493 -25.324  0.00  0.00    -0.176 NA
ATOM     12  C   UNL     1      33.302 -13.142 -23.537  0.00  0.00    +0.056 C 
ATOM     13  C   UNL     1      33.816 -14.325 -23.062  0.00  0.00    +0.087 C 
ATOM     14  C   UNL     1      33.283 -13.303 -24.935  0.00  0.00    +0.121 C 
ATOM     15  C   UNL     1      34.608 -16.428 -24.169  0.00  0.00    +0.140 C 
ENDBRANCH   7  12
BRANCH   5  18
ATOM     16  F   UNL     1      34.398  -8.856 -24.262  0.00  0.00    -0.191 F 
ATOM     17  F   UNL     1      35.309  -7.600 -22.773  0.00  0.00    -0.191 F 
ATOM     18  C   UNL     1      34.077  -7.885 -23.332  0.00  0.00    +0.335 C 
BRANCH  18  20
ATOM     19  N   UNL     1      31.747  -3.336 -25.762  0.00  0.00    -0.244 NA
ATOM     20  C   UNL     1      33.472  -6.683 -23.975  0.00  0.00    +0.045 C 
ATOM     21  C   UNL     1      34.283  -5.747 -24.609  0.00  0.00    +0.003 C 
ATOM     22  C   UNL     1      33.717  -4.613 -25.217  0.00  0.00    +0.018 C 
ATOM     23  C   UNL     1      32.097  -6.491 -23.943  0.00  0.00    +0.003 C 
ATOM     24  C   UNL     1      32.321  -4.412 -25.190  0.00  0.00    +0.081 C 
ATOM     25  C   UNL     1      31.535  -5.364 -24.547  0.00  0.00    +0.019 C 
ATOM     26  C   UNL     1      34.509  -3.655 -25.864  0.00  0.00    +0.003 C 
ATOM     27  C   UNL     1      33.920  -2.546 -26.455  0.00  0.00    +0.021 C 
ATOM     28  C   UNL     1      32.547  -2.435 -26.376  0.00  0.00    +0.099 C 
ENDBRANCH  18  20
ENDBRANCH   5  18
TORSDOF 3
ENDMDL
MODEL 8
REMARK VINA RESULT:     -10.6      2.396      8.732
REMARK  Name = 46911863
REMARK  3 active torsions:
REMARK  status: ('A' for Active; 'I' for Inactive)
REMARK    1  A    between atoms: C_5  and  C_18
REMARK    2  A    between atoms: C_7  and  C_12
REMARK    3  A    between atoms: C_18  and  C_20
REMARK                            x       y       z     vdW  Elec       q    Type
REMARK                         _______ _______ _______ _____ _____    ______ ____
ROOT
ATOM      1  N   UNL     1      35.485 -20.681 -19.580  0.00  0.00    -0.190 N 
ATOM      2  N   UNL     1      34.849 -20.151 -20.654  0.00  0.00    -0.162 NA
ATOM      3  N   UNL     1      35.909 -21.910 -17.815  0.00  0.00    -0.126 NA
ATOM      4  N   UNL     1      36.992 -21.083 -18.035  0.00  0.00    -0.127 NA
ATOM      5  C   UNL     1      35.019 -21.656 -18.748  0.00  0.00    +0.228 A 
ATOM      6  C   UNL     1      36.729 -20.349 -19.096  0.00  0.00    +0.187 A 
ATOM      7  C   UNL     1      35.530 -19.222 -21.264  0.00  0.00    +0.104 C 
ATOM      8  C   UNL     1      37.449 -19.355 -19.786  0.00  0.00    +0.042 C 
ATOM      9  C   UNL     1      36.902 -18.773 -20.860  0.00  0.00    +0.024 C 
ENDROOT
BRANCH   7  12
ATOM     10  N   UNL     1      34.324 -17.059 -23.920  0.00  0.00    -0.208 N 
ATOM     11  N   UNL     1      33.834 -18.206 -24.423  0.00  0.00    -0.176 NA
ATOM     12  C   UNL     1      34.937 -18.559 -22.455  0.00  0.00    +0.056 C 
ATOM     13  C   UNL     1      34.993 -17.216 -22.742  0.00  0.00    +0.087 C 
ATOM     14  C   UNL     1      34.211 -19.118 -23.523  0.00  0.00    +0.121 C 
ATOM     15  C   UNL     1      34.116 -15.819 -24.628  0.00  0.00    +0.140 C 
ENDBRANCH   7  12
BRANCH   5  18
ATOM     16  F   UNL     1      33.791 -23.467 -19.682  0.00  0.00    -0.191 F 
ATOM     17  F   UNL     1      32.856 -21.531 -19.730  0.00  0.00    -0.191 F 
ATOM     18  C   UNL     1      33.653 -22.321 -18.922  0.00  0.00    +0.335 C 
BRANCH  18  20
ATOM     19  N   UNL     1      31.143 -23.377 -13.962  0.00  0.00    -0.244 NA
ATOM     20  C   UNL     1      33.001 -22.603 -17.611  0.00  0.00    +0.045 C 
ATOM     21  C   UNL     1      33.739 -23.148 -16.565  0.00  0.00    +0.003 C 
ATOM     22  C   UNL     1      33.128 -23.414 -15.327  0.00  0.00    +0.018 C 
ATOM     23  C   UNL     1      31.653 -22.324 -17.427  0.00  0.00    +0.003 C 
ATOM     24  C   UNL     1      31.760 -23.133 -15.134  0.00  0.00    +0.081 C 
ATOM     25  C   UNL     1      31.046 -22.590 -16.198  0.00  0.00    +0.019 C 
ATOM     26  C   UNL     1      33.848 -23.962 -14.257  0.00  0.00    +0.003 C 
ATOM     27  C   UNL     1      33.215 -24.214 -13.048  0.00  0.00    +0.021 C 
ATOM     28  C   UNL     1      31.873 -23.906 -12.953  0.00  0.00    +0.099 C 
ENDBRANCH  18  20
ENDBRANCH   5  18
TORSDOF 3
ENDMDL
MODEL 9
REMARK VINA RESULT:     -10.6      3.083      5.925
REMARK  Name = 46911863
REMARK  3 active torsions:
REMARK  status: ('A' for Active; 'I' for Inactive)
REMARK    1  A    between atoms: C_5  and  C_18
REMARK    2  A    between atoms: C_7  and  C_12
REMARK    3  A    between atoms: C_18  and  C_20
REMARK                            x       y       z     vdW  Elec       q    Type
REMARK                         _______ _______ _______ _____ _____    ______ ____
ROOT
ATOM      1  N   UNL     1      36.996 -24.624 -13.914  0.00  0.00    -0.190 N 
ATOM      2  N   UNL     1      37.087 -25.699 -14.735  0.00  0.00    -0.162 NA
ATOM      3  N   UNL     1      36.272 -22.776 -12.983  0.00  0.00    -0.126 NA
ATOM      4  N   UNL     1      37.432 -23.157 -12.339  0.00  0.00    -0.127 NA
ATOM      5  C   UNL     1      36.027 -23.665 -13.920  0.00  0.00    +0.228 A 
ATOM      6  C   UNL     1      37.860 -24.267 -12.904  0.00  0.00    +0.187 A 
ATOM      7  C   UNL     1      38.128 -26.449 -14.509  0.00  0.00    +0.104 C 
ATOM      8  C   UNL     1      38.967 -25.105 -12.671  0.00  0.00    +0.042 C 
ATOM      9  C   UNL     1      39.140 -26.192 -13.432  0.00  0.00    +0.024 C 
ENDROOT
BRANCH   7  12
ATOM     10  N   UNL     1      39.248 -29.164 -16.644  0.00  0.00    -0.208 N 
ATOM     11  N   UNL     1      38.002 -29.630 -16.446  0.00  0.00    -0.176 NA
ATOM     12  C   UNL     1      38.343 -27.657 -15.348  0.00  0.00    +0.056 C 
ATOM     13  C   UNL     1      39.503 -27.985 -16.008  0.00  0.00    +0.087 C 
ATOM     14  C   UNL     1      37.454 -28.704 -15.655  0.00  0.00    +0.121 C 
ATOM     15  C   UNL     1      40.169 -29.909 -17.468  0.00  0.00    +0.140 C 
ENDBRANCH   7  12
BRANCH   5  18
ATOM     16  F   UNL     1      33.707 -23.248 -14.246  0.00  0.00    -0.191 F 
ATOM     17  F   UNL     1      34.532 -24.975 -15.226  0.00  0.00    -0.191 F 
ATOM     18  C   UNL     1      34.851 -23.671 -14.897  0.00  0.00    +0.335 C 
BRANCH  18  20
ATOM     19  N   UNL     1      35.950 -20.552 -19.489  0.00  0.00    -0.244 NA
ATOM     20  C   UNL     1      35.131 -22.850 -16.110  0.00  0.00    +0.045 C 
ATOM     21  C   UNL     1      34.098 -22.510 -16.978  0.00  0.00    +0.003 C 
ATOM     22  C   UNL     1      34.357 -21.735 -18.122  0.00  0.00    +0.018 C 
ATOM     23  C   UNL     1      36.424 -22.420 -16.380  0.00  0.00    +0.003 C 
ATOM     24  C   UNL     1      35.667 -21.295 -18.402  0.00  0.00    +0.081 C 
ATOM     25  C   UNL     1      36.681 -21.651 -17.517  0.00  0.00    +0.019 C 
ATOM     26  C   UNL     1      33.336 -21.378 -19.013  0.00  0.00    +0.003 C 
ATOM     27  C   UNL     1      33.624 -20.612 -20.133  0.00  0.00    +0.021 C 
ATOM     28  C   UNL     1      34.936 -20.228 -20.324  0.00  0.00    +0.099 C 
ENDBRANCH  18  20
ENDBRANCH   5  18
TORSDOF 3
ENDMDL
