MODEL 1
REMARK VINA RESULT:     -11.1      0.000      0.000
REMARK  Name = 491941
REMARK  5 active torsions:
REMARK  status: ('A' for Active; 'I' for Inactive)
REMARK    1  A    between atoms: C_5  and  C_17
REMARK    2  A    between atoms: C_7  and  S_11
REMARK    3  A    between atoms: S_11  and  N_14
REMARK    4  A    between atoms: C_17  and  C_18
REMARK    5  A    between atoms: C_21  and  C_25
REMARK                            x       y       z     vdW  Elec       q    Type
REMARK                         _______ _______ _______ _____ _____    ______ ____
ROOT
ATOM      1  S   UNL     1      34.523 -24.260 -12.526  0.00  0.00    -0.035 S 
ATOM      2  O   UNL     1      35.784 -22.910 -16.521  0.00  0.00    -0.274 OA
ATOM      3  N   UNL     1      34.112 -23.208 -14.891  0.00  0.00    -0.227 N 
ATOM      4  N   UNL     1      36.183 -22.710 -13.763  0.00  0.00    -0.386 NA
ATOM      5  C   UNL     1      34.595 -23.016 -16.209  0.00  0.00    +0.236 C 
ATOM      6  C   UNL     1      35.043 -23.292 -13.812  0.00  0.00    +0.217 C 
ATOM      7  C   UNL     1      36.005 -23.888 -11.749  0.00  0.00    +0.247 C 
ATOM      8  C   UNL     1      36.754 -23.055 -12.554  0.00  0.00    +0.123 C 
ATOM      9  C   UNL     1      32.672 -23.322 -14.610  0.00  0.00    +0.123 C 
ATOM     10  C   UNL     1      38.090 -22.513 -12.233  0.00  0.00    +0.064 C 
ENDROOT
BRANCH   7  11
ATOM     11  S   UNL     1      36.233 -24.612 -10.169  0.00  0.00    +0.052 S 
ATOM     12  O   UNL     1      34.989 -25.310  -9.859  0.00  0.00    -0.157 OA
ATOM     13  O   UNL     1      37.489 -25.348 -10.262  0.00  0.00    -0.157 OA
BRANCH  11  14
ATOM     14  N   UNL     1      36.429 -23.360  -9.007  0.00  0.00    -0.206 NA
ATOM     15  H   UNL     1      36.048 -22.490  -9.378  0.00  0.00    +0.144 HD
ATOM     16  H   UNL     1      37.421 -23.237  -8.803  0.00  0.00    +0.144 HD
ENDBRANCH  11  14
ENDBRANCH   7  11
BRANCH   5  17
ATOM     17  C   UNL     1      33.535 -22.979 -17.318  0.00  0.00    +0.112 C 
BRANCH  17  18
ATOM     18  C   UNL     1      33.814 -21.983 -18.392  0.00  0.00    -0.013 C 
ATOM     19  C   UNL     1      35.125 -21.758 -18.812  0.00  0.00    -0.004 C 
ATOM     20  C   UNL     1      32.763 -21.275 -18.976  0.00  0.00    -0.004 C 
ATOM     21  C   UNL     1      34.335 -20.118 -20.400  0.00  0.00    +0.018 C 
ATOM     22  C   UNL     1      35.386 -20.826 -19.816  0.00  0.00    +0.001 C 
ATOM     23  C   UNL     1      33.024 -20.343 -19.981  0.00  0.00    +0.001 C 
BRANCH  21  25
ATOM     24  N   UNL     1      35.275 -18.051 -21.037  0.00  0.00    -0.244 NA
ATOM     25  C   UNL     1      34.605 -19.151 -21.442  0.00  0.00    +0.081 C 
ATOM     26  C   UNL     1      34.191 -19.376 -22.743  0.00  0.00    +0.019 C 
ATOM     27  C   UNL     1      34.484 -18.404 -23.694  0.00  0.00    +0.003 C 
ATOM     28  C   UNL     1      35.542 -17.128 -21.988  0.00  0.00    +0.099 C 
ATOM     29  C   UNL     1      35.172 -17.256 -23.317  0.00  0.00    +0.021 C 
ENDBRANCH  21  25
ENDBRANCH  17  18
ENDBRANCH   5  17
TORSDOF 5
ENDMDL
MODEL 2
REMARK VINA RESULT:      -9.9      9.570     13.965
REMARK  Name = 491941
REMARK  5 active torsions:
REMARK  status: ('A' for Active; 'I' for Inactive)
REMARK    1  A    between atoms: C_5  and  C_17
REMARK    2  A    between atoms: C_7  and  S_11
REMARK    3  A    between atoms: S_11  and  N_14
REMARK    4  A    between atoms: C_17  and  C_18
REMARK    5  A    between atoms: C_21  and  C_25
REMARK                            x       y       z     vdW  Elec       q    Type
REMARK                         _______ _______ _______ _____ _____    ______ ____
ROOT
ATOM      1  S   UNL     1      32.846  -8.208 -23.297  0.00  0.00    -0.035 S 
ATOM      2  O   UNL     1      32.254 -12.436 -22.226  0.00  0.00    -0.274 OA
ATOM      3  N   UNL     1      33.459 -10.756 -23.350  0.00  0.00    -0.227 N 
ATOM      4  N   UNL     1      32.614  -9.826 -21.294  0.00  0.00    -0.386 NA
ATOM      5  C   UNL     1      33.038 -12.087 -23.113  0.00  0.00    +0.236 C 
ATOM      6  C   UNL     1      32.960  -9.706 -22.521  0.00  0.00    +0.217 C 
ATOM      7  C   UNL     1      32.246  -7.577 -21.820  0.00  0.00    +0.247 C 
ATOM      8  C   UNL     1      32.194  -8.580 -20.875  0.00  0.00    +0.123 C 
ATOM      9  C   UNL     1      34.401 -10.430 -24.434  0.00  0.00    +0.123 C 
ATOM     10  C   UNL     1      31.734  -8.429 -19.479  0.00  0.00    +0.064 C 
ENDROOT
BRANCH   7  11
ATOM     11  S   UNL     1      31.852  -5.869 -21.833  0.00  0.00    +0.052 S 
ATOM     12  O   UNL     1      32.788  -5.243 -22.763  0.00  0.00    -0.157 OA
ATOM     13  O   UNL     1      30.416  -5.808 -22.078  0.00  0.00    -0.157 OA
BRANCH  11  14
ATOM     14  N   UNL     1      32.159  -5.216 -20.271  0.00  0.00    -0.206 NA
ATOM     15  H   UNL     1      31.277  -5.091 -19.776  0.00  0.00    +0.144 HD
ATOM     16  H   UNL     1      32.628  -4.315 -20.366  0.00  0.00    +0.144 HD
ENDBRANCH  11  14
ENDBRANCH   7  11
BRANCH   5  17
ATOM     17  C   UNL     1      33.585 -13.151 -24.073  0.00  0.00    +0.112 C 
BRANCH  17  18
ATOM     18  C   UNL     1      34.067 -14.389 -23.398  0.00  0.00    -0.013 C 
ATOM     19  C   UNL     1      34.371 -14.368 -22.036  0.00  0.00    -0.004 C 
ATOM     20  C   UNL     1      34.212 -15.570 -24.127  0.00  0.00    -0.004 C 
ATOM     21  C   UNL     1      34.968 -16.707 -22.133  0.00  0.00    +0.018 C 
ATOM     22  C   UNL     1      34.822 -15.527 -21.404  0.00  0.00    +0.001 C 
ATOM     23  C   UNL     1      34.663 -16.729 -23.494  0.00  0.00    +0.001 C 
BRANCH  21  25
ATOM     24  N   UNL     1      36.739 -17.897 -21.130  0.00  0.00    -0.244 NA
ATOM     25  C   UNL     1      35.435 -17.910 -21.478  0.00  0.00    +0.081 C 
ATOM     26  C   UNL     1      34.576 -18.969 -21.243  0.00  0.00    +0.019 C 
ATOM     27  C   UNL     1      35.092 -20.094 -20.608  0.00  0.00    +0.003 C 
ATOM     28  C   UNL     1      37.206 -19.007 -20.515  0.00  0.00    +0.099 C 
ATOM     29  C   UNL     1      36.431 -20.121 -20.234  0.00  0.00    +0.021 C 
ENDBRANCH  21  25
ENDBRANCH  17  18
ENDBRANCH   5  17
TORSDOF 5
ENDMDL
MODEL 3
REMARK VINA RESULT:      -9.6      2.980      5.289
REMARK  Name = 491941
REMARK  5 active torsions:
REMARK  status: ('A' for Active; 'I' for Inactive)
REMARK    1  A    between atoms: C_5  and  C_17
REMARK    2  A    between atoms: C_7  and  S_11
REMARK    3  A    between atoms: S_11  and  N_14
REMARK    4  A    between atoms: C_17  and  C_18
REMARK    5  A    between atoms: C_21  and  C_25
REMARK                            x       y       z     vdW  Elec       q    Type
REMARK                         _______ _______ _______ _____ _____    ______ ____
ROOT
ATOM      1  S   UNL     1      35.421 -22.393 -16.778  0.00  0.00    -0.035 S 
ATOM      2  O   UNL     1      33.647 -20.087 -20.081  0.00  0.00    -0.274 OA
ATOM      3  N   UNL     1      35.362 -21.453 -19.224  0.00  0.00    -0.227 N 
ATOM      4  N   UNL     1      33.283 -22.128 -18.209  0.00  0.00    -0.386 NA
ATOM      5  C   UNL     1      34.805 -20.513 -20.126  0.00  0.00    +0.236 C 
ATOM      6  C   UNL     1      34.554 -21.972 -18.168  0.00  0.00    +0.217 C 
ATOM      7  C   UNL     1      33.926 -22.863 -16.083  0.00  0.00    +0.247 C 
ATOM      8  C   UNL     1      32.907 -22.652 -16.988  0.00  0.00    +0.123 C 
ATOM      9  C   UNL     1      36.756 -21.908 -19.354  0.00  0.00    +0.123 C 
ATOM     10  C   UNL     1      31.476 -22.935 -16.760  0.00  0.00    +0.064 C 
ENDROOT
BRANCH   7  11
ATOM     11  S   UNL     1      34.017 -23.487 -14.447  0.00  0.00    +0.052 S 
ATOM     12  O   UNL     1      32.812 -23.021 -13.768  0.00  0.00    -0.157 OA
ATOM     13  O   UNL     1      34.278 -24.914 -14.594  0.00  0.00    -0.157 OA
BRANCH  11  14
ATOM     14  N   UNL     1      35.367 -22.773 -13.655  0.00  0.00    -0.206 NA
ATOM     15  H   UNL     1      36.228 -23.086 -14.103  0.00  0.00    +0.144 HD
ATOM     16  H   UNL     1      35.372 -23.052 -12.674  0.00  0.00    +0.144 HD
ENDBRANCH  11  14
ENDBRANCH   7  11
BRANCH   5  17
ATOM     17  C   UNL     1      35.749 -19.971 -21.207  0.00  0.00    +0.112 C 
BRANCH  17  18
ATOM     18  C   UNL     1      35.354 -18.640 -21.748  0.00  0.00    -0.013 C 
ATOM     19  C   UNL     1      34.874 -18.532 -23.054  0.00  0.00    -0.004 C 
ATOM     20  C   UNL     1      35.462 -17.502 -20.948  0.00  0.00    -0.004 C 
ATOM     21  C   UNL     1      34.613 -16.148 -22.761  0.00  0.00    +0.018 C 
ATOM     22  C   UNL     1      34.503 -17.286 -23.560  0.00  0.00    +0.001 C 
ATOM     23  C   UNL     1      35.092 -16.256 -21.455  0.00  0.00    +0.001 C 
BRANCH  21  25
ATOM     24  N   UNL     1      33.792 -14.868 -24.562  0.00  0.00    -0.244 NA
ATOM     25  C   UNL     1      34.229 -14.856 -23.285  0.00  0.00    +0.081 C 
ATOM     26  C   UNL     1      34.317 -13.718 -22.502  0.00  0.00    +0.019 C 
ATOM     27  C   UNL     1      33.930 -12.509 -23.070  0.00  0.00    +0.003 C 
ATOM     28  C   UNL     1      33.425 -13.674 -25.081  0.00  0.00    +0.099 C 
ATOM     29  C   UNL     1      33.475 -12.478 -24.384  0.00  0.00    +0.021 C 
ENDBRANCH  21  25
ENDBRANCH  17  18
ENDBRANCH   5  17
TORSDOF 5
ENDMDL
MODEL 4
REMARK VINA RESULT:      -9.3      2.596      3.805
REMARK  Name = 491941
REMARK  5 active torsions:
REMARK  status: ('A' for Active; 'I' for Inactive)
REMARK    1  A    between atoms: C_5  and  C_17
REMARK    2  A    between atoms: C_7  and  S_11
REMARK    3  A    between atoms: S_11  and  N_14
REMARK    4  A    between atoms: C_17  and  C_18
REMARK    5  A    between atoms: C_21  and  C_25
REMARK                            x       y       z     vdW  Elec       q    Type
REMARK                         _______ _______ _______ _____ _____    ______ ____
ROOT
ATOM      1  S   UNL     1      34.793 -22.887 -14.607  0.00  0.00    -0.035 S 
ATOM      2  O   UNL     1      33.977 -21.577 -18.729  0.00  0.00    -0.274 OA
ATOM      3  N   UNL     1      35.458 -22.404 -17.096  0.00  0.00    -0.227 N 
ATOM      4  N   UNL     1      33.268 -23.307 -16.652  0.00  0.00    -0.386 NA
ATOM      5  C   UNL     1      35.125 -21.761 -18.314  0.00  0.00    +0.236 C 
ATOM      6  C   UNL     1      34.412 -22.891 -16.254  0.00  0.00    +0.217 C 
ATOM      7  C   UNL     1      33.229 -23.528 -14.323  0.00  0.00    +0.247 C 
ATOM      8  C   UNL     1      32.567 -23.683 -15.523  0.00  0.00    +0.123 C 
ATOM      9  C   UNL     1      36.858 -22.581 -16.679  0.00  0.00    +0.123 C 
ATOM     10  C   UNL     1      31.198 -24.209 -15.694  0.00  0.00    +0.064 C 
ENDROOT
BRANCH   7  11
ATOM     11  S   UNL     1      32.832 -23.837 -12.644  0.00  0.00    +0.052 S 
ATOM     12  O   UNL     1      31.932 -24.986 -12.644  0.00  0.00    -0.157 OA
ATOM     13  O   UNL     1      34.114 -23.902 -11.952  0.00  0.00    -0.157 OA
BRANCH  11  14
ATOM     14  N   UNL     1      31.956 -22.492 -12.025  0.00  0.00    -0.206 NA
ATOM     15  H   UNL     1      30.980 -22.755 -11.891  0.00  0.00    +0.144 HD
ATOM     16  H   UNL     1      32.012 -21.716 -12.686  0.00  0.00    +0.144 HD
ENDBRANCH  11  14
ENDBRANCH   7  11
BRANCH   5  17
ATOM     17  C   UNL     1      36.303 -21.228 -19.141  0.00  0.00    +0.112 C 
BRANCH  17  18
ATOM     18  C   UNL     1      35.944 -20.108 -20.056  0.00  0.00    -0.013 C 
ATOM     19  C   UNL     1      34.714 -20.111 -20.714  0.00  0.00    -0.004 C 
ATOM     20  C   UNL     1      36.839 -19.056 -20.255  0.00  0.00    -0.004 C 
ATOM     21  C   UNL     1      35.273 -18.012 -21.770  0.00  0.00    +0.018 C 
ATOM     22  C   UNL     1      34.378 -19.063 -21.571  0.00  0.00    +0.001 C 
ATOM     23  C   UNL     1      36.503 -18.008 -21.112  0.00  0.00    +0.001 C 
BRANCH  21  25
ATOM     24  N   UNL     1      34.927 -15.701 -22.087  0.00  0.00    -0.244 NA
ATOM     25  C   UNL     1      34.926 -16.924 -22.659  0.00  0.00    +0.081 C 
ATOM     26  C   UNL     1      34.623 -17.162 -23.988  0.00  0.00    +0.019 C 
ATOM     27  C   UNL     1      34.298 -16.070 -24.785  0.00  0.00    +0.003 C 
ATOM     28  C   UNL     1      34.607 -14.663 -22.892  0.00  0.00    +0.099 C 
ATOM     29  C   UNL     1      34.288 -14.793 -24.234  0.00  0.00    +0.021 C 
ENDBRANCH  21  25
ENDBRANCH  17  18
ENDBRANCH   5  17
TORSDOF 5
ENDMDL
MODEL 5
REMARK VINA RESULT:      -9.3      3.163      4.811
REMARK  Name = 491941
REMARK  5 active torsions:
REMARK  status: ('A' for Active; 'I' for Inactive)
REMARK    1  A    between atoms: C_5  and  C_17
REMARK    2  A    between atoms: C_7  and  S_11
REMARK    3  A    between atoms: S_11  and  N_14
REMARK    4  A    between atoms: C_17  and  C_18
REMARK    5  A    between atoms: C_21  and  C_25
REMARK                            x       y       z     vdW  Elec       q    Type
REMARK                         _______ _______ _______ _____ _____    ______ ____
ROOT
ATOM      1  S   UNL     1      34.771 -22.664 -15.808  0.00  0.00    -0.035 S 
ATOM      2  O   UNL     1      33.577 -20.711 -19.567  0.00  0.00    -0.274 OA
ATOM      3  N   UNL     1      35.161 -21.883 -18.279  0.00  0.00    -0.227 N 
ATOM      4  N   UNL     1      32.965 -22.658 -17.659  0.00  0.00    -0.386 NA
ATOM      5  C   UNL     1      34.744 -21.046 -19.344  0.00  0.00    +0.236 C 
ATOM      6  C   UNL     1      34.186 -22.399 -17.372  0.00  0.00    +0.217 C 
ATOM      7  C   UNL     1      33.199 -23.210 -15.397  0.00  0.00    +0.247 C 
ATOM      8  C   UNL     1      32.379 -23.135 -16.503  0.00  0.00    +0.123 C 
ATOM      9  C   UNL     1      36.578 -22.232 -18.088  0.00  0.00    +0.123 C 
ATOM     10  C   UNL     1      30.953 -23.517 -16.550  0.00  0.00    +0.064 C 
ENDROOT
BRANCH   7  11
ATOM     11  S   UNL     1      32.988 -23.723 -13.734  0.00  0.00    +0.052 S 
ATOM     12  O   UNL     1      34.323 -23.752 -13.146  0.00  0.00    -0.157 OA
ATOM     13  O   UNL     1      31.959 -22.845 -13.189  0.00  0.00    -0.157 OA
BRANCH  11  14
ATOM     14  N   UNL     1      32.381 -25.333 -13.724  0.00  0.00    -0.206 NA
ATOM     15  H   UNL     1      32.463 -25.720 -12.785  0.00  0.00    +0.144 HD
ATOM     16  H   UNL     1      32.919 -25.903 -14.376  0.00  0.00    +0.144 HD
ENDBRANCH  11  14
ENDBRANCH   7  11
BRANCH   5  17
ATOM     17  C   UNL     1      35.855 -20.497 -20.248  0.00  0.00    +0.112 C 
BRANCH  17  18
ATOM     18  C   UNL     1      35.481 -19.258 -20.986  0.00  0.00    -0.013 C 
ATOM     19  C   UNL     1      34.892 -19.347 -22.248  0.00  0.00    -0.004 C 
ATOM     20  C   UNL     1      35.719 -18.007 -20.415  0.00  0.00    -0.004 C 
ATOM     21  C   UNL     1      34.781 -16.937 -22.367  0.00  0.00    +0.018 C 
ATOM     22  C   UNL     1      34.542 -18.187 -22.938  0.00  0.00    +0.001 C 
ATOM     23  C   UNL     1      35.369 -16.847 -21.106  0.00  0.00    +0.001 C 
BRANCH  21  25
ATOM     24  N   UNL     1      34.036 -15.927 -24.363  0.00  0.00    -0.244 NA
ATOM     25  C   UNL     1      34.418 -15.733 -23.083  0.00  0.00    +0.081 C 
ATOM     26  C   UNL     1      34.472 -14.497 -22.464  0.00  0.00    +0.019 C 
ATOM     27  C   UNL     1      34.108 -13.381 -23.211  0.00  0.00    +0.003 C 
ATOM     28  C   UNL     1      33.690 -14.820 -25.059  0.00  0.00    +0.099 C 
ATOM     29  C   UNL     1      33.709 -13.537 -24.534  0.00  0.00    +0.021 C 
ENDBRANCH  21  25
ENDBRANCH  17  18
ENDBRANCH   5  17
TORSDOF 5
ENDMDL
MODEL 6
REMARK VINA RESULT:      -9.2     12.790     17.541
REMARK  Name = 491941
REMARK  5 active torsions:
REMARK  status: ('A' for Active; 'I' for Inactive)
REMARK    1  A    between atoms: C_5  and  C_17
REMARK    2  A    between atoms: C_7  and  S_11
REMARK    3  A    between atoms: S_11  and  N_14
REMARK    4  A    between atoms: C_17  and  C_18
REMARK    5  A    between atoms: C_21  and  C_25
REMARK                            x       y       z     vdW  Elec       q    Type
REMARK                         _______ _______ _______ _____ _____    ______ ____
ROOT
ATOM      1  S   UNL     1      34.734  -5.599 -24.510  0.00  0.00    -0.035 S 
ATOM      2  O   UNL     1      30.831  -7.458 -23.684  0.00  0.00    -0.274 OA
ATOM      3  N   UNL     1      32.973  -6.788 -22.975  0.00  0.00    -0.227 N 
ATOM      4  N   UNL     1      32.183  -5.189 -24.596  0.00  0.00    -0.386 NA
ATOM      5  C   UNL     1      31.779  -7.547 -22.899  0.00  0.00    +0.236 C 
ATOM      6  C   UNL     1      33.131  -5.836 -24.028  0.00  0.00    +0.217 C 
ATOM      7  C   UNL     1      34.141  -4.467 -25.653  0.00  0.00    +0.247 C 
ATOM      8  C   UNL     1      32.768  -4.382 -25.551  0.00  0.00    +0.123 C 
ATOM      9  C   UNL     1      34.055  -6.959 -21.992  0.00  0.00    +0.123 C 
ATOM     10  C   UNL     1      31.893  -3.515 -26.366  0.00  0.00    +0.064 C 
ENDROOT
BRANCH   7  11
ATOM     11  S   UNL     1      35.357  -3.697 -26.654  0.00  0.00    +0.052 S 
ATOM     12  O   UNL     1      35.216  -2.261 -26.430  0.00  0.00    -0.157 OA
ATOM     13  O   UNL     1      36.606  -4.377 -26.331  0.00  0.00    -0.157 OA
BRANCH  11  14
ATOM     14  N   UNL     1      34.989  -4.003 -28.306  0.00  0.00    -0.206 NA
ATOM     15  H   UNL     1      34.614  -4.946 -28.402  0.00  0.00    +0.144 HD
ATOM     16  H   UNL     1      35.839  -3.917 -28.865  0.00  0.00    +0.144 HD
ENDBRANCH  11  14
ENDBRANCH   7  11
BRANCH   5  17
ATOM     17  C   UNL     1      31.704  -8.578 -21.766  0.00  0.00    +0.112 C 
BRANCH  17  18
ATOM     18  C   UNL     1      32.223  -9.925 -22.135  0.00  0.00    -0.013 C 
ATOM     19  C   UNL     1      31.831 -11.048 -21.405  0.00  0.00    -0.004 C 
ATOM     20  C   UNL     1      33.101 -10.064 -23.210  0.00  0.00    -0.004 C 
ATOM     21  C   UNL     1      33.195 -12.447 -22.825  0.00  0.00    +0.018 C 
ATOM     22  C   UNL     1      32.317 -12.309 -21.750  0.00  0.00    +0.001 C 
ATOM     23  C   UNL     1      33.587 -11.325 -23.555  0.00  0.00    +0.001 C 
BRANCH  21  25
ATOM     24  N   UNL     1      33.379 -14.166 -24.429  0.00  0.00    -0.244 NA
ATOM     25  C   UNL     1      33.700 -13.755 -23.183  0.00  0.00    +0.081 C 
ATOM     26  C   UNL     1      34.451 -14.496 -22.288  0.00  0.00    +0.019 C 
ATOM     27  C   UNL     1      34.904 -15.745 -22.700  0.00  0.00    +0.003 C 
ATOM     28  C   UNL     1      33.836 -15.385 -24.794  0.00  0.00    +0.099 C 
ATOM     29  C   UNL     1      34.595 -16.205 -23.975  0.00  0.00    +0.021 C 
ENDBRANCH  21  25
ENDBRANCH  17  18
ENDBRANCH   5  17
TORSDOF 5
ENDMDL
MODEL 7
REMARK VINA RESULT:      -9.0      5.911     11.036
REMARK  Name = 491941
REMARK  5 active torsions:
REMARK  status: ('A' for Active; 'I' for Inactive)
REMARK    1  A    between atoms: C_5  and  C_17
REMARK    2  A    between atoms: C_7  and  S_11
REMARK    3  A    between atoms: S_11  and  N_14
REMARK    4  A    between atoms: C_17  and  C_18
REMARK    5  A    between atoms: C_21  and  C_25
REMARK                            x       y       z     vdW  Elec       q    Type
REMARK                         _______ _______ _______ _____ _____    ______ ____
ROOT
ATOM      1  S   UNL     1      34.137 -15.943 -23.844  0.00  0.00    -0.035 S 
ATOM      2  O   UNL     1      34.907 -18.032 -20.047  0.00  0.00    -0.274 OA
ATOM      3  N   UNL     1      35.194 -17.840 -22.376  0.00  0.00    -0.227 N 
ATOM      4  N   UNL     1      35.055 -15.620 -21.449  0.00  0.00    -0.386 NA
ATOM      5  C   UNL     1      35.187 -18.533 -21.140  0.00  0.00    +0.236 C 
ATOM      6  C   UNL     1      34.856 -16.453 -22.401  0.00  0.00    +0.217 C 
ATOM      7  C   UNL     1      34.051 -14.375 -23.157  0.00  0.00    +0.247 C 
ATOM      8  C   UNL     1      34.585 -14.397 -21.886  0.00  0.00    +0.123 C 
ATOM      9  C   UNL     1      35.543 -18.519 -23.635  0.00  0.00    +0.123 C 
ATOM     10  C   UNL     1      34.692 -13.241 -20.973  0.00  0.00    +0.064 C 
ENDROOT
BRANCH   7  11
ATOM     11  S   UNL     1      33.339 -13.141 -24.178  0.00  0.00    +0.052 S 
ATOM     12  O   UNL     1      33.182 -13.746 -25.497  0.00  0.00    -0.157 OA
ATOM     13  O   UNL     1      32.175 -12.660 -23.442  0.00  0.00    -0.157 OA
BRANCH  11  14
ATOM     14  N   UNL     1      34.452 -11.839 -24.333  0.00  0.00    -0.206 NA
ATOM     15  H   UNL     1      34.426 -11.483 -25.288  0.00  0.00    +0.144 HD
ATOM     16  H   UNL     1      35.393 -12.169 -24.118  0.00  0.00    +0.144 HD
ENDBRANCH  11  14
ENDBRANCH   7  11
BRANCH   5  17
ATOM     17  C   UNL     1      35.519 -20.030 -21.203  0.00  0.00    +0.112 C 
BRANCH  17  18
ATOM     18  C   UNL     1      35.158 -20.784 -19.969  0.00  0.00    -0.013 C 
ATOM     19  C   UNL     1      36.157 -21.207 -19.091  0.00  0.00    -0.004 C 
ATOM     20  C   UNL     1      33.821 -21.067 -19.691  0.00  0.00    -0.004 C 
ATOM     21  C   UNL     1      34.482 -22.197 -17.660  0.00  0.00    +0.018 C 
ATOM     22  C   UNL     1      35.819 -21.913 -17.937  0.00  0.00    +0.001 C 
ATOM     23  C   UNL     1      33.483 -21.774 -18.537  0.00  0.00    +0.001 C 
BRANCH  21  25
ATOM     24  N   UNL     1      35.179 -23.420 -15.769  0.00  0.00    -0.244 NA
ATOM     25  C   UNL     1      34.131 -22.929 -16.463  0.00  0.00    +0.081 C 
ATOM     26  C   UNL     1      32.807 -23.089 -16.092  0.00  0.00    +0.019 C 
ATOM     27  C   UNL     1      32.541 -23.804 -14.929  0.00  0.00    +0.003 C 
ATOM     28  C   UNL     1      34.883 -24.109 -14.644  0.00  0.00    +0.099 C 
ATOM     29  C   UNL     1      33.594 -24.327 -14.185  0.00  0.00    +0.021 C 
ENDBRANCH  21  25
ENDBRANCH  17  18
ENDBRANCH   5  17
TORSDOF 5
ENDMDL
MODEL 8
REMARK VINA RESULT:      -8.9     12.520     17.291
REMARK  Name = 491941
REMARK  5 active torsions:
REMARK  status: ('A' for Active; 'I' for Inactive)
REMARK    1  A    between atoms: C_5  and  C_17
REMARK    2  A    between atoms: C_7  and  S_11
REMARK    3  A    between atoms: S_11  and  N_14
REMARK    4  A    between atoms: C_17  and  C_18
REMARK    5  A    between atoms: C_21  and  C_25
REMARK                            x       y       z     vdW  Elec       q    Type
REMARK                         _______ _______ _______ _____ _____    ______ ____
ROOT
ATOM      1  S   UNL     1      31.608  -4.768 -24.129  0.00  0.00    -0.035 S 
ATOM      2  O   UNL     1      34.005  -8.078 -22.492  0.00  0.00    -0.274 OA
ATOM      3  N   UNL     1      31.969  -7.235 -23.321  0.00  0.00    -0.227 N 
ATOM      4  N   UNL     1      33.768  -6.143 -24.494  0.00  0.00    -0.386 NA
ATOM      5  C   UNL     1      32.777  -8.145 -22.594  0.00  0.00    +0.236 C 
ATOM      6  C   UNL     1      32.586  -6.143 -24.002  0.00  0.00    +0.217 C 
ATOM      7  C   UNL     1      32.906  -4.018 -24.960  0.00  0.00    +0.247 C 
ATOM      8  C   UNL     1      33.963  -4.898 -25.059  0.00  0.00    +0.123 C 
ATOM      9  C   UNL     1      30.507  -7.393 -23.388  0.00  0.00    +0.123 C 
ATOM     10  C   UNL     1      35.261  -4.622 -25.709  0.00  0.00    +0.064 C 
ENDROOT
BRANCH   7  11
ATOM     11  S   UNL     1      32.617  -2.370 -25.482  0.00  0.00    +0.052 S 
ATOM     12  O   UNL     1      31.680  -1.798 -24.520  0.00  0.00    -0.157 OA
ATOM     13  O   UNL     1      33.942  -1.786 -25.661  0.00  0.00    -0.157 OA
BRANCH  11  14
ATOM     14  N   UNL     1      31.833  -2.402 -27.013  0.00  0.00    -0.206 NA
ATOM     15  H   UNL     1      31.395  -3.312 -27.151  0.00  0.00    +0.144 HD
ATOM     16  H   UNL     1      32.520  -2.239 -27.750  0.00  0.00    +0.144 HD
ENDBRANCH  11  14
ENDBRANCH   7  11
BRANCH   5  17
ATOM     17  C   UNL     1      32.036  -9.266 -21.855  0.00  0.00    +0.112 C 
BRANCH  17  18
ATOM     18  C   UNL     1      32.546 -10.633 -22.157  0.00  0.00    -0.013 C 
ATOM     19  C   UNL     1      32.232 -11.698 -21.311  0.00  0.00    -0.004 C 
ATOM     20  C   UNL     1      33.337 -10.849 -23.286  0.00  0.00    -0.004 C 
ATOM     21  C   UNL     1      33.501 -13.193 -22.722  0.00  0.00    +0.018 C 
ATOM     22  C   UNL     1      32.710 -12.978 -21.594  0.00  0.00    +0.001 C 
ATOM     23  C   UNL     1      33.815 -12.129 -23.568  0.00  0.00    +0.001 C 
BRANCH  21  25
ATOM     24  N   UNL     1      34.660 -15.116 -22.003  0.00  0.00    -0.244 NA
ATOM     25  C   UNL     1      33.997 -14.520 -23.016  0.00  0.00    +0.081 C 
ATOM     26  C   UNL     1      33.784 -15.099 -24.255  0.00  0.00    +0.019 C 
ATOM     27  C   UNL     1      34.287 -16.377 -24.469  0.00  0.00    +0.003 C 
ATOM     28  C   UNL     1      35.136 -16.359 -22.247  0.00  0.00    +0.099 C 
ATOM     29  C   UNL     1      34.977 -17.026 -23.451  0.00  0.00    +0.021 C 
ENDBRANCH  21  25
ENDBRANCH  17  18
ENDBRANCH   5  17
TORSDOF 5
ENDMDL
MODEL 9
REMARK VINA RESULT:      -8.8      1.711      2.054
REMARK  Name = 491941
REMARK  5 active torsions:
REMARK  status: ('A' for Active; 'I' for Inactive)
REMARK    1  A    between atoms: C_5  and  C_17
REMARK    2  A    between atoms: C_7  and  S_11
REMARK    3  A    between atoms: S_11  and  N_14
REMARK    4  A    between atoms: C_17  and  C_18
REMARK    5  A    between atoms: C_21  and  C_25
REMARK                            x       y       z     vdW  Elec       q    Type
REMARK                         _______ _______ _______ _____ _____    ______ ____
ROOT
ATOM      1  S   UNL     1      36.517 -24.573 -14.016  0.00  0.00    -0.035 S 
ATOM      2  O   UNL     1      32.705 -22.438 -14.548  0.00  0.00    -0.274 OA
ATOM      3  N   UNL     1      34.212 -24.131 -15.183  0.00  0.00    -0.227 N 
ATOM      4  N   UNL     1      34.355 -23.854 -12.793  0.00  0.00    -0.386 NA
ATOM      5  C   UNL     1      33.132 -23.237 -15.387  0.00  0.00    +0.236 C 
ATOM      6  C   UNL     1      34.885 -24.139 -13.924  0.00  0.00    +0.217 C 
ATOM      7  C   UNL     1      36.587 -24.367 -12.315  0.00  0.00    +0.247 C 
ATOM      8  C   UNL     1      35.348 -23.986 -11.844  0.00  0.00    +0.123 C 
ATOM      9  C   UNL     1      34.656 -25.052 -16.242  0.00  0.00    +0.123 C 
ATOM     10  C   UNL     1      35.007 -23.714 -10.433  0.00  0.00    +0.064 C 
ENDROOT
BRANCH   7  11
ATOM     11  S   UNL     1      38.148 -24.675 -11.581  0.00  0.00    +0.052 S 
ATOM     12  O   UNL     1      37.878 -25.394 -10.339  0.00  0.00    -0.157 OA
ATOM     13  O   UNL     1      38.952 -25.291 -12.631  0.00  0.00    -0.157 OA
BRANCH  11  14
ATOM     14  N   UNL     1      38.872 -23.172 -11.163  0.00  0.00    -0.206 NA
ATOM     15  H   UNL     1      38.320 -22.720 -10.435  0.00  0.00    +0.144 HD
ATOM     16  H   UNL     1      38.907 -22.571 -11.986  0.00  0.00    +0.144 HD
ENDBRANCH  11  14
ENDBRANCH   7  11
BRANCH   5  17
ATOM     17  C   UNL     1      32.489 -23.259 -16.779  0.00  0.00    +0.112 C 
BRANCH  17  18
ATOM     18  C   UNL     1      33.163 -22.375 -17.773  0.00  0.00    -0.013 C 
ATOM     19  C   UNL     1      34.556 -22.362 -17.864  0.00  0.00    -0.004 C 
ATOM     20  C   UNL     1      32.402 -21.562 -18.612  0.00  0.00    -0.004 C 
ATOM     21  C   UNL     1      34.425 -20.722 -19.632  0.00  0.00    +0.018 C 
ATOM     22  C   UNL     1      35.186 -21.536 -18.794  0.00  0.00    +0.001 C 
ATOM     23  C   UNL     1      33.033 -20.734 -19.542  0.00  0.00    +0.001 C 
BRANCH  21  25
ATOM     24  N   UNL     1      36.297 -19.417 -20.227  0.00  0.00    -0.244 NA
ATOM     25  C   UNL     1      35.078 -19.864 -20.597  0.00  0.00    +0.081 C 
ATOM     26  C   UNL     1      34.465 -19.551 -21.798  0.00  0.00    +0.019 C 
ATOM     27  C   UNL     1      35.150 -18.722 -22.679  0.00  0.00    +0.003 C 
ATOM     28  C   UNL     1      36.933 -18.613 -21.108  0.00  0.00    +0.099 C 
ATOM     29  C   UNL     1      36.409 -18.240 -22.335  0.00  0.00    +0.021 C 
ENDBRANCH  21  25
ENDBRANCH  17  18
ENDBRANCH   5  17
TORSDOF 5
ENDMDL
