MODEL 1
REMARK VINA RESULT:     -12.2      0.000      0.000
REMARK  Name = 447655
REMARK  6 active torsions:
REMARK  status: ('A' for Active; 'I' for Inactive)
REMARK    1  A    between atoms: N_4  and  C_14
REMARK    2  A    between atoms: C_6  and  O_26
REMARK    3  A    between atoms: C_15  and  S_20
REMARK    4  A    between atoms: S_20  and  N_23
REMARK    5  A    between atoms: O_26  and  C_27
REMARK    6  A    between atoms: C_27  and  C_28
REMARK                            x       y       z     vdW  Elec       q    Type
REMARK                         _______ _______ _______ _____ _____    ______ ____
ROOT
ATOM      1  N   UNL     1      32.193 -23.298 -15.384  0.00  0.00    -0.293 NA
ATOM      2  N   UNL     1      28.934 -22.424 -16.848  0.00  0.00    -0.266 NA
ATOM      3  N   UNL     1      30.294 -23.708 -13.908  0.00  0.00    -0.316 NA
ATOM      4  N   UNL     1      32.484 -24.173 -13.231  0.00  0.00    -0.238 N 
ATOM      5  N   UNL     1      28.145 -23.128 -14.886  0.00  0.00    -0.296 N 
ATOM      6  C   UNL     1      31.385 -22.838 -16.365  0.00  0.00    +0.288 C 
ATOM      7  C   UNL     1      30.027 -22.809 -16.126  0.00  0.00    +0.215 C 
ATOM      8  C   UNL     1      29.511 -23.242 -14.911  0.00  0.00    +0.196 C 
ATOM      9  C   UNL     1      31.605 -23.700 -14.232  0.00  0.00    +0.207 C 
ATOM     10  C   UNL     1      27.829 -22.634 -16.064  0.00  0.00    +0.164 C 
ATOM     11  H   UNL     1      28.938 -22.064 -17.763  0.00  0.00    +0.126 HD
ATOM     12  H   UNL     1      32.030 -24.459 -12.406  0.00  0.00    +0.166 HD
ATOM     13  H   UNL     1      27.535 -23.363 -14.149  0.00  0.00    +0.150 HD
ENDROOT
BRANCH   4  14
ATOM     14  C   UNL     1      33.883 -24.318 -13.186  0.00  0.00    +0.060 C 
ATOM     15  C   UNL     1      35.948 -24.356 -11.926  0.00  0.00    +0.123 C 
ATOM     16  C   UNL     1      34.561 -24.212 -11.970  0.00  0.00    +0.035 C 
ATOM     17  C   UNL     1      34.599 -24.570 -14.360  0.00  0.00    +0.015 C 
ATOM     18  C   UNL     1      36.660 -24.608 -13.099  0.00  0.00    +0.020 C 
ATOM     19  C   UNL     1      35.985 -24.715 -14.316  0.00  0.00    +0.003 C 
BRANCH  15  20
ATOM     20  S   UNL     1      36.792 -24.224 -10.404  0.00  0.00    +0.057 S 
ATOM     21  O   UNL     1      37.741 -25.324 -10.308  0.00  0.00    -0.153 OA
ATOM     22  O   UNL     1      37.257 -22.852 -10.252  0.00  0.00    -0.153 OA
BRANCH  20  23
ATOM     23  N   UNL     1      35.518 -24.496  -9.299  0.00  0.00    -0.203 NA
ATOM     24  H   UNL     1      35.581 -25.447  -8.936  0.00  0.00    +0.144 HD
ATOM     25  H   UNL     1      34.624 -24.372  -9.774  0.00  0.00    +0.144 HD
ENDBRANCH  20  23
ENDBRANCH  15  20
ENDBRANCH   4  14
BRANCH   6  26
ATOM     26  O   UNL     1      31.949 -22.422 -17.546  0.00  0.00    -0.453 OA
BRANCH  26  27
ATOM     27  C   UNL     1      33.298 -22.781 -17.776  0.00  0.00    +0.208 C 
BRANCH  27  28
ATOM     28  C   UNL     1      33.785 -22.057 -19.030  0.00  0.00    +0.044 C 
ATOM     29  C   UNL     1      32.842 -20.900 -19.388  0.00  0.00    +0.004 C 
ATOM     30  C   UNL     1      35.222 -21.551 -18.840  0.00  0.00    +0.004 C 
ATOM     31  C   UNL     1      33.337 -20.127 -20.608  0.00  0.00    +0.000 C 
ATOM     32  C   UNL     1      35.712 -20.776 -20.060  0.00  0.00    +0.000 C 
ATOM     33  C   UNL     1      34.768 -19.633 -20.419  0.00  0.00    +0.000 C 
ENDBRANCH  27  28
ENDBRANCH  26  27
ENDBRANCH   6  26
TORSDOF 6
ENDMDL
MODEL 2
REMARK VINA RESULT:     -11.6      2.351      2.779
REMARK  Name = 447655
REMARK  6 active torsions:
REMARK  status: ('A' for Active; 'I' for Inactive)
REMARK    1  A    between atoms: N_4  and  C_14
REMARK    2  A    between atoms: C_6  and  O_26
REMARK    3  A    between atoms: C_15  and  S_20
REMARK    4  A    between atoms: S_20  and  N_23
REMARK    5  A    between atoms: O_26  and  C_27
REMARK    6  A    between atoms: C_27  and  C_28
REMARK                            x       y       z     vdW  Elec       q    Type
REMARK                         _______ _______ _______ _____ _____    ______ ____
ROOT
ATOM      1  N   UNL     1      32.849 -23.300 -15.795  0.00  0.00    -0.293 NA
ATOM      2  N   UNL     1      29.392 -22.380 -16.650  0.00  0.00    -0.266 NA
ATOM      3  N   UNL     1      31.260 -23.578 -13.964  0.00  0.00    -0.316 NA
ATOM      4  N   UNL     1      33.527 -24.089 -13.697  0.00  0.00    -0.238 N 
ATOM      5  N   UNL     1      28.979 -22.968 -14.541  0.00  0.00    -0.296 N 
ATOM      6  C   UNL     1      31.879 -22.857 -16.625  0.00  0.00    +0.288 C 
ATOM      7  C   UNL     1      30.594 -22.770 -16.132  0.00  0.00    +0.215 C 
ATOM      8  C   UNL     1      30.311 -23.130 -14.821  0.00  0.00    +0.196 C 
ATOM      9  C   UNL     1      32.483 -23.630 -14.533  0.00  0.00    +0.207 C 
ATOM     10  C   UNL     1      28.455 -22.515 -15.660  0.00  0.00    +0.164 C 
ATOM     11  H   UNL     1      29.229 -22.060 -17.566  0.00  0.00    +0.126 HD
ATOM     12  H   UNL     1      33.233 -24.322 -12.787  0.00  0.00    +0.166 HD
ATOM     13  H   UNL     1      28.516 -23.148 -13.690  0.00  0.00    +0.150 HD
ENDROOT
BRANCH   4  14
ATOM     14  C   UNL     1      34.904 -24.280 -13.913  0.00  0.00    +0.060 C 
ATOM     15  C   UNL     1      36.751 -25.719 -14.521  0.00  0.00    +0.123 C 
ATOM     16  C   UNL     1      35.386 -25.531 -14.306  0.00  0.00    +0.035 C 
ATOM     17  C   UNL     1      35.795 -23.218 -13.737  0.00  0.00    +0.015 C 
ATOM     18  C   UNL     1      37.638 -24.657 -14.344  0.00  0.00    +0.020 C 
ATOM     19  C   UNL     1      37.159 -23.406 -13.951  0.00  0.00    +0.003 C 
BRANCH  15  20
ATOM     20  S   UNL     1      37.351 -27.283 -15.012  0.00  0.00    +0.057 S 
ATOM     21  O   UNL     1      36.735 -27.631 -16.285  0.00  0.00    -0.153 OA
ATOM     22  O   UNL     1      38.802 -27.281 -14.887  0.00  0.00    -0.153 OA
BRANCH  20  23
ATOM     23  N   UNL     1      36.697 -28.283 -13.790  0.00  0.00    -0.203 NA
ATOM     24  H   UNL     1      37.167 -28.089 -12.906  0.00  0.00    +0.144 HD
ATOM     25  H   UNL     1      36.835 -29.261 -14.042  0.00  0.00    +0.144 HD
ENDBRANCH  20  23
ENDBRANCH  15  20
ENDBRANCH   4  14
BRANCH   6  26
ATOM     26  O   UNL     1      32.215 -22.514 -17.912  0.00  0.00    -0.453 OA
BRANCH  26  27
ATOM     27  C   UNL     1      33.547 -22.767 -18.318  0.00  0.00    +0.208 C 
BRANCH  27  28
ATOM     28  C   UNL     1      34.153 -21.461 -18.831  0.00  0.00    +0.044 C 
ATOM     29  C   UNL     1      35.595 -21.682 -19.305  0.00  0.00    +0.004 C 
ATOM     30  C   UNL     1      33.293 -20.870 -19.955  0.00  0.00    +0.004 C 
ATOM     31  C   UNL     1      36.205 -20.403 -19.872  0.00  0.00    +0.000 C 
ATOM     32  C   UNL     1      33.906 -19.592 -20.521  0.00  0.00    +0.000 C 
ATOM     33  C   UNL     1      35.343 -19.813 -20.984  0.00  0.00    +0.000 C 
ENDBRANCH  27  28
ENDBRANCH  26  27
ENDBRANCH   6  26
TORSDOF 6
ENDMDL
MODEL 3
REMARK VINA RESULT:     -11.3      3.090      3.979
REMARK  Name = 447655
REMARK  6 active torsions:
REMARK  status: ('A' for Active; 'I' for Inactive)
REMARK    1  A    between atoms: N_4  and  C_14
REMARK    2  A    between atoms: C_6  and  O_26
REMARK    3  A    between atoms: C_15  and  S_20
REMARK    4  A    between atoms: S_20  and  N_23
REMARK    5  A    between atoms: O_26  and  C_27
REMARK    6  A    between atoms: C_27  and  C_28
REMARK                            x       y       z     vdW  Elec       q    Type
REMARK                         _______ _______ _______ _____ _____    ______ ____
ROOT
ATOM      1  N   UNL     1      34.919 -24.258 -14.818  0.00  0.00    -0.293 NA
ATOM      2  N   UNL     1      31.566 -22.795 -15.197  0.00  0.00    -0.266 NA
ATOM      3  N   UNL     1      33.606 -24.229 -12.763  0.00  0.00    -0.316 NA
ATOM      4  N   UNL     1      35.775 -25.104 -12.808  0.00  0.00    -0.238 N 
ATOM      5  N   UNL     1      31.391 -23.261 -13.024  0.00  0.00    -0.296 N 
ATOM      6  C   UNL     1      33.918 -23.677 -15.516  0.00  0.00    +0.288 C 
ATOM      7  C   UNL     1      32.754 -23.367 -14.844  0.00  0.00    +0.215 C 
ATOM      8  C   UNL     1      32.621 -23.648 -13.490  0.00  0.00    +0.196 C 
ATOM      9  C   UNL     1      34.703 -24.495 -13.502  0.00  0.00    +0.207 C 
ATOM     10  C   UNL     1      30.782 -22.752 -14.074  0.00  0.00    +0.164 C 
ATOM     11  H   UNL     1      31.319 -22.472 -16.093  0.00  0.00    +0.126 HD
ATOM     12  H   UNL     1      35.589 -25.265 -11.855  0.00  0.00    +0.166 HD
ATOM     13  H   UNL     1      31.041 -23.344 -12.108  0.00  0.00    +0.150 HD
ENDROOT
BRANCH   4  14
ATOM     14  C   UNL     1      37.053 -25.525 -13.216  0.00  0.00    +0.060 C 
ATOM     15  C   UNL     1      38.458 -26.981 -14.543  0.00  0.00    +0.123 C 
ATOM     16  C   UNL     1      37.189 -26.564 -14.139  0.00  0.00    +0.035 C 
ATOM     17  C   UNL     1      38.194 -24.903 -12.699  0.00  0.00    +0.015 C 
ATOM     18  C   UNL     1      39.594 -26.358 -14.025  0.00  0.00    +0.020 C 
ATOM     19  C   UNL     1      39.461 -25.320 -13.103  0.00  0.00    +0.003 C 
BRANCH  15  20
ATOM     20  S   UNL     1      38.624 -28.280 -15.697  0.00  0.00    +0.057 S 
ATOM     21  O   UNL     1      39.809 -28.028 -16.504  0.00  0.00    -0.153 OA
ATOM     22  O   UNL     1      38.486 -29.546 -14.990  0.00  0.00    -0.153 OA
BRANCH  20  23
ATOM     23  N   UNL     1      37.236 -28.038 -16.664  0.00  0.00    -0.203 NA
ATOM     24  H   UNL     1      36.456 -27.752 -16.072  0.00  0.00    +0.144 HD
ATOM     25  H   UNL     1      37.000 -28.907 -17.142  0.00  0.00    +0.144 HD
ENDBRANCH  20  23
ENDBRANCH  15  20
ENDBRANCH   4  14
BRANCH   6  26
ATOM     26  O   UNL     1      34.105 -23.422 -16.853  0.00  0.00    -0.453 OA
BRANCH  26  27
ATOM     27  C   UNL     1      33.076 -22.718 -17.523  0.00  0.00    +0.208 C 
BRANCH  27  28
ATOM     28  C   UNL     1      33.655 -22.121 -18.804  0.00  0.00    +0.044 C 
ATOM     29  C   UNL     1      32.843 -20.895 -19.246  0.00  0.00    +0.004 C 
ATOM     30  C   UNL     1      35.133 -21.756 -18.613  0.00  0.00    +0.004 C 
ATOM     31  C   UNL     1      33.433 -20.249 -20.496  0.00  0.00    +0.000 C 
ATOM     32  C   UNL     1      35.719 -21.107 -19.865  0.00  0.00    +0.000 C 
ATOM     33  C   UNL     1      34.905 -19.895 -20.306  0.00  0.00    +0.000 C 
ENDBRANCH  27  28
ENDBRANCH  26  27
ENDBRANCH   6  26
TORSDOF 6
ENDMDL
MODEL 4
REMARK VINA RESULT:     -11.1      2.433      5.148
REMARK  Name = 447655
REMARK  6 active torsions:
REMARK  status: ('A' for Active; 'I' for Inactive)
REMARK    1  A    between atoms: N_4  and  C_14
REMARK    2  A    between atoms: C_6  and  O_26
REMARK    3  A    between atoms: C_15  and  S_20
REMARK    4  A    between atoms: S_20  and  N_23
REMARK    5  A    between atoms: O_26  and  C_27
REMARK    6  A    between atoms: C_27  and  C_28
REMARK                            x       y       z     vdW  Elec       q    Type
REMARK                         _______ _______ _______ _____ _____    ______ ____
ROOT
ATOM      1  N   UNL     1      35.150 -23.257 -16.036  0.00  0.00    -0.293 NA
ATOM      2  N   UNL     1      32.922 -21.943 -18.650  0.00  0.00    -0.266 NA
ATOM      3  N   UNL     1      36.268 -21.845 -17.681  0.00  0.00    -0.316 NA
ATOM      4  N   UNL     1      37.446 -22.814 -15.908  0.00  0.00    -0.238 N 
ATOM      5  N   UNL     1      34.786 -20.981 -19.404  0.00  0.00    -0.296 N 
ATOM      6  C   UNL     1      33.957 -23.103 -16.651  0.00  0.00    +0.288 C 
ATOM      7  C   UNL     1      33.909 -22.319 -17.785  0.00  0.00    +0.215 C 
ATOM      8  C   UNL     1      35.057 -21.710 -18.274  0.00  0.00    +0.196 C 
ATOM      9  C   UNL     1      36.217 -22.626 -16.582  0.00  0.00    +0.207 C 
ATOM     10  C   UNL     1      33.495 -21.142 -19.603  0.00  0.00    +0.164 C 
ATOM     11  H   UNL     1      31.974 -22.199 -18.598  0.00  0.00    +0.126 HD
ATOM     12  H   UNL     1      38.204 -22.343 -16.326  0.00  0.00    +0.166 HD
ATOM     13  H   UNL     1      35.417 -20.454 -19.947  0.00  0.00    +0.150 HD
ENDROOT
BRANCH   4  14
ATOM     14  C   UNL     1      37.798 -23.540 -14.755  0.00  0.00    +0.060 C 
ATOM     15  C   UNL     1      37.504 -24.006 -12.400  0.00  0.00    +0.123 C 
ATOM     16  C   UNL     1      37.155 -23.285 -13.542  0.00  0.00    +0.035 C 
ATOM     17  C   UNL     1      38.790 -24.521 -14.821  0.00  0.00    +0.015 C 
ATOM     18  C   UNL     1      38.495 -24.985 -12.469  0.00  0.00    +0.020 C 
ATOM     19  C   UNL     1      39.138 -25.242 -13.680  0.00  0.00    +0.003 C 
BRANCH  15  20
ATOM     20  S   UNL     1      36.699 -23.685 -10.884  0.00  0.00    +0.057 S 
ATOM     21  O   UNL     1      36.865 -24.846 -10.022  0.00  0.00    -0.153 OA
ATOM     22  O   UNL     1      37.109 -22.369 -10.413  0.00  0.00    -0.153 OA
BRANCH  20  23
ATOM     23  N   UNL     1      35.069 -23.602 -11.392  0.00  0.00    -0.203 NA
ATOM     24  H   UNL     1      34.607 -22.823 -10.923  0.00  0.00    +0.144 HD
ATOM     25  H   UNL     1      34.595 -24.473 -11.152  0.00  0.00    +0.144 HD
ENDBRANCH  20  23
ENDBRANCH  15  20
ENDBRANCH   4  14
BRANCH   6  26
ATOM     26  O   UNL     1      32.854 -23.729 -16.123  0.00  0.00    -0.453 OA
BRANCH  26  27
ATOM     27  C   UNL     1      32.452 -23.338 -14.824  0.00  0.00    +0.208 C 
BRANCH  27  28
ATOM     28  C   UNL     1      30.926 -23.356 -14.764  0.00  0.00    +0.044 C 
ATOM     29  C   UNL     1      30.325 -22.753 -16.040  0.00  0.00    +0.004 C 
ATOM     30  C   UNL     1      30.410 -24.784 -14.540  0.00  0.00    +0.004 C 
ATOM     31  C   UNL     1      28.800 -22.808 -16.027  0.00  0.00    +0.000 C 
ATOM     32  C   UNL     1      28.884 -24.836 -14.529  0.00  0.00    +0.000 C 
ATOM     33  C   UNL     1      28.290 -24.227 -15.795  0.00  0.00    +0.000 C 
ENDBRANCH  27  28
ENDBRANCH  26  27
ENDBRANCH   6  26
TORSDOF 6
ENDMDL
MODEL 5
REMARK VINA RESULT:     -10.8      4.059      8.156
REMARK  Name = 447655
REMARK  6 active torsions:
REMARK  status: ('A' for Active; 'I' for Inactive)
REMARK    1  A    between atoms: N_4  and  C_14
REMARK    2  A    between atoms: C_6  and  O_26
REMARK    3  A    between atoms: C_15  and  S_20
REMARK    4  A    between atoms: S_20  and  N_23
REMARK    5  A    between atoms: O_26  and  C_27
REMARK    6  A    between atoms: C_27  and  C_28
REMARK                            x       y       z     vdW  Elec       q    Type
REMARK                         _______ _______ _______ _____ _____    ______ ____
ROOT
ATOM      1  N   UNL     1      35.019 -23.132 -15.906  0.00  0.00    -0.293 NA
ATOM      2  N   UNL     1      35.814 -24.985 -12.830  0.00  0.00    -0.266 NA
ATOM      3  N   UNL     1      37.385 -23.112 -15.313  0.00  0.00    -0.316 NA
ATOM      4  N   UNL     1      36.600 -22.012 -17.222  0.00  0.00    -0.238 N 
ATOM      5  N   UNL     1      37.899 -24.341 -13.279  0.00  0.00    -0.296 N 
ATOM      6  C   UNL     1      34.711 -23.884 -14.826  0.00  0.00    +0.288 C 
ATOM      7  C   UNL     1      35.736 -24.255 -13.981  0.00  0.00    +0.215 C 
ATOM      8  C   UNL     1      37.044 -23.865 -14.239  0.00  0.00    +0.196 C 
ATOM      9  C   UNL     1      36.320 -22.798 -16.080  0.00  0.00    +0.207 C 
ATOM     10  C   UNL     1      37.129 -25.009 -12.447  0.00  0.00    +0.164 C 
ATOM     11  H   UNL     1      35.063 -25.416 -12.362  0.00  0.00    +0.126 HD
ATOM     12  H   UNL     1      37.552 -21.785 -17.324  0.00  0.00    +0.166 HD
ATOM     13  H   UNL     1      38.874 -24.210 -13.222  0.00  0.00    +0.150 HD
ENDROOT
BRANCH   4  14
ATOM     14  C   UNL     1      35.782 -21.492 -18.242  0.00  0.00    +0.060 C 
ATOM     15  C   UNL     1      35.479 -20.034 -20.148  0.00  0.00    +0.123 C 
ATOM     16  C   UNL     1      36.290 -20.548 -19.136  0.00  0.00    +0.035 C 
ATOM     17  C   UNL     1      34.457 -21.921 -18.364  0.00  0.00    +0.015 C 
ATOM     18  C   UNL     1      34.157 -20.463 -20.268  0.00  0.00    +0.020 C 
ATOM     19  C   UNL     1      33.647 -21.407 -19.376  0.00  0.00    +0.003 C 
BRANCH  15  20
ATOM     20  S   UNL     1      36.117 -18.854 -21.265  0.00  0.00    +0.057 S 
ATOM     21  O   UNL     1      37.568 -18.850 -21.149  0.00  0.00    -0.153 OA
ATOM     22  O   UNL     1      35.495 -19.065 -22.565  0.00  0.00    -0.153 OA
BRANCH  20  23
ATOM     23  N   UNL     1      35.506 -17.405 -20.594  0.00  0.00    -0.203 NA
ATOM     24  H   UNL     1      34.488 -17.456 -20.549  0.00  0.00    +0.144 HD
ATOM     25  H   UNL     1      35.782 -16.618 -21.180  0.00  0.00    +0.144 HD
ENDBRANCH  20  23
ENDBRANCH  15  20
ENDBRANCH   4  14
BRANCH   6  26
ATOM     26  O   UNL     1      33.400 -24.240 -14.619  0.00  0.00    -0.453 OA
BRANCH  26  27
ATOM     27  C   UNL     1      32.692 -23.533 -13.619  0.00  0.00    +0.208 C 
BRANCH  27  28
ATOM     28  C   UNL     1      31.206 -23.554 -13.972  0.00  0.00    +0.044 C 
ATOM     29  C   UNL     1      30.968 -22.934 -15.356  0.00  0.00    +0.004 C 
ATOM     30  C   UNL     1      30.655 -24.985 -13.914  0.00  0.00    +0.004 C 
ATOM     31  C   UNL     1      29.496 -22.991 -15.755  0.00  0.00    +0.000 C 
ATOM     32  C   UNL     1      29.183 -25.039 -14.315  0.00  0.00    +0.000 C 
ATOM     33  C   UNL     1      28.950 -24.414 -15.687  0.00  0.00    +0.000 C 
ENDBRANCH  27  28
ENDBRANCH  26  27
ENDBRANCH   6  26
TORSDOF 6
ENDMDL
MODEL 6
REMARK VINA RESULT:     -10.8      3.178      5.757
REMARK  Name = 447655
REMARK  6 active torsions:
REMARK  status: ('A' for Active; 'I' for Inactive)
REMARK    1  A    between atoms: N_4  and  C_14
REMARK    2  A    between atoms: C_6  and  O_26
REMARK    3  A    between atoms: C_15  and  S_20
REMARK    4  A    between atoms: S_20  and  N_23
REMARK    5  A    between atoms: O_26  and  C_27
REMARK    6  A    between atoms: C_27  and  C_28
REMARK                            x       y       z     vdW  Elec       q    Type
REMARK                         _______ _______ _______ _____ _____    ______ ____
ROOT
ATOM      1  N   UNL     1      35.028 -22.915 -16.612  0.00  0.00    -0.293 NA
ATOM      2  N   UNL     1      34.179 -21.173 -19.738  0.00  0.00    -0.266 NA
ATOM      3  N   UNL     1      36.833 -21.543 -17.512  0.00  0.00    -0.316 NA
ATOM      4  N   UNL     1      37.101 -22.761 -15.533  0.00  0.00    -0.238 N 
ATOM      5  N   UNL     1      36.262 -20.396 -19.577  0.00  0.00    -0.296 N 
ATOM      6  C   UNL     1      34.207 -22.577 -17.631  0.00  0.00    +0.288 C 
ATOM      7  C   UNL     1      34.692 -21.722 -18.598  0.00  0.00    +0.215 C 
ATOM      8  C   UNL     1      35.986 -21.224 -18.520  0.00  0.00    +0.196 C 
ATOM      9  C   UNL     1      36.274 -22.383 -16.616  0.00  0.00    +0.207 C 
ATOM     10  C   UNL     1      35.156 -20.387 -20.291  0.00  0.00    +0.164 C 
ATOM     11  H   UNL     1      33.274 -21.315 -20.097  0.00  0.00    +0.126 HD
ATOM     12  H   UNL     1      37.999 -22.360 -15.560  0.00  0.00    +0.166 HD
ATOM     13  H   UNL     1      37.101 -19.915 -19.763  0.00  0.00    +0.150 HD
ENDROOT
BRANCH   4  14
ATOM     14  C   UNL     1      36.889 -23.598 -14.422  0.00  0.00    +0.060 C 
ATOM     15  C   UNL     1      37.074 -25.766 -13.364  0.00  0.00    +0.123 C 
ATOM     16  C   UNL     1      37.283 -24.937 -14.467  0.00  0.00    +0.035 C 
ATOM     17  C   UNL     1      36.285 -23.091 -13.268  0.00  0.00    +0.015 C 
ATOM     18  C   UNL     1      36.470 -25.257 -12.214  0.00  0.00    +0.020 C 
ATOM     19  C   UNL     1      36.076 -23.920 -12.166  0.00  0.00    +0.003 C 
BRANCH  15  20
ATOM     20  S   UNL     1      37.567 -27.439 -13.423  0.00  0.00    +0.057 S 
ATOM     21  O   UNL     1      36.684 -28.147 -14.338  0.00  0.00    -0.153 OA
ATOM     22  O   UNL     1      39.009 -27.489 -13.626  0.00  0.00    -0.153 OA
BRANCH  20  23
ATOM     23  N   UNL     1      37.222 -27.938 -11.825  0.00  0.00    -0.203 NA
ATOM     24  H   UNL     1      38.082 -27.937 -11.277  0.00  0.00    +0.144 HD
ATOM     25  H   UNL     1      36.829 -28.879 -11.841  0.00  0.00    +0.144 HD
ENDBRANCH  20  23
ENDBRANCH  15  20
ENDBRANCH   4  14
BRANCH   6  26
ATOM     26  O   UNL     1      32.936 -23.099 -17.658  0.00  0.00    -0.453 OA
BRANCH  26  27
ATOM     27  C   UNL     1      32.028 -22.631 -16.680  0.00  0.00    +0.208 C 
BRANCH  27  28
ATOM     28  C   UNL     1      31.848 -23.721 -15.625  0.00  0.00    +0.044 C 
ATOM     29  C   UNL     1      32.554 -23.333 -14.318  0.00  0.00    +0.004 C 
ATOM     30  C   UNL     1      30.359 -23.997 -15.379  0.00  0.00    +0.004 C 
ATOM     31  C   UNL     1      32.345 -24.383 -13.231  0.00  0.00    +0.000 C 
ATOM     32  C   UNL     1      30.153 -25.046 -14.289  0.00  0.00    +0.000 C 
ATOM     33  C   UNL     1      30.864 -24.661 -12.995  0.00  0.00    +0.000 C 
ENDBRANCH  27  28
ENDBRANCH  26  27
ENDBRANCH   6  26
TORSDOF 6
ENDMDL
MODEL 7
REMARK VINA RESULT:     -10.7      2.580      5.353
REMARK  Name = 447655
REMARK  6 active torsions:
REMARK  status: ('A' for Active; 'I' for Inactive)
REMARK    1  A    between atoms: N_4  and  C_14
REMARK    2  A    between atoms: C_6  and  O_26
REMARK    3  A    between atoms: C_15  and  S_20
REMARK    4  A    between atoms: S_20  and  N_23
REMARK    5  A    between atoms: O_26  and  C_27
REMARK    6  A    between atoms: C_27  and  C_28
REMARK                            x       y       z     vdW  Elec       q    Type
REMARK                         _______ _______ _______ _____ _____    ______ ____
ROOT
ATOM      1  N   UNL     1      34.632 -22.810 -16.921  0.00  0.00    -0.293 NA
ATOM      2  N   UNL     1      33.522 -20.903 -19.864  0.00  0.00    -0.266 NA
ATOM      3  N   UNL     1      36.374 -21.436 -17.934  0.00  0.00    -0.316 NA
ATOM      4  N   UNL     1      36.805 -22.752 -16.050  0.00  0.00    -0.238 N 
ATOM      5  N   UNL     1      35.630 -20.179 -19.878  0.00  0.00    -0.296 N 
ATOM      6  C   UNL     1      33.723 -22.407 -17.836  0.00  0.00    +0.288 C 
ATOM      7  C   UNL     1      34.132 -21.516 -18.807  0.00  0.00    +0.215 C 
ATOM      8  C   UNL     1      35.440 -21.051 -18.837  0.00  0.00    +0.196 C 
ATOM      9  C   UNL     1      35.885 -22.305 -17.025  0.00  0.00    +0.207 C 
ATOM     10  C   UNL     1      34.459 -20.112 -20.476  0.00  0.00    +0.164 C 
ATOM     11  H   UNL     1      32.582 -21.009 -20.136  0.00  0.00    +0.126 HD
ATOM     12  H   UNL     1      37.707 -22.369 -16.149  0.00  0.00    +0.166 HD
ATOM     13  H   UNL     1      36.459 -19.708 -20.125  0.00  0.00    +0.150 HD
ENDROOT
BRANCH   4  14
ATOM     14  C   UNL     1      36.684 -23.636 -14.962  0.00  0.00    +0.060 C 
ATOM     15  C   UNL     1      37.178 -24.218 -12.666  0.00  0.00    +0.123 C 
ATOM     16  C   UNL     1      37.300 -23.340 -13.744  0.00  0.00    +0.035 C 
ATOM     17  C   UNL     1      35.943 -24.814 -15.096  0.00  0.00    +0.015 C 
ATOM     18  C   UNL     1      36.438 -25.393 -12.804  0.00  0.00    +0.020 C 
ATOM     19  C   UNL     1      35.821 -25.690 -14.019  0.00  0.00    +0.003 C 
BRANCH  15  20
ATOM     20  S   UNL     1      37.949 -23.845 -11.145  0.00  0.00    +0.057 S 
ATOM     21  O   UNL     1      37.541 -24.843 -10.167  0.00  0.00    -0.153 OA
ATOM     22  O   UNL     1      39.365 -23.610 -11.391  0.00  0.00    -0.153 OA
BRANCH  20  23
ATOM     23  N   UNL     1      37.206 -22.356 -10.758  0.00  0.00    -0.203 NA
ATOM     24  H   UNL     1      37.779 -21.589 -11.110  0.00  0.00    +0.144 HD
ATOM     25  H   UNL     1      37.114 -22.276  -9.746  0.00  0.00    +0.144 HD
ENDBRANCH  20  23
ENDBRANCH  15  20
ENDBRANCH   4  14
BRANCH   6  26
ATOM     26  O   UNL     1      32.443 -22.900 -17.759  0.00  0.00    -0.453 OA
BRANCH  26  27
ATOM     27  C   UNL     1      31.668 -22.504 -16.643  0.00  0.00    +0.208 C 
BRANCH  27  28
ATOM     28  C   UNL     1      31.660 -23.646 -15.629  0.00  0.00    +0.044 C 
ATOM     29  C   UNL     1      32.357 -23.222 -14.329  0.00  0.00    +0.004 C 
ATOM     30  C   UNL     1      30.225 -24.114 -15.351  0.00  0.00    +0.004 C 
ATOM     31  C   UNL     1      32.315 -24.330 -13.280  0.00  0.00    +0.000 C 
ATOM     32  C   UNL     1      30.187 -25.221 -14.300  0.00  0.00    +0.000 C 
ATOM     33  C   UNL     1      30.888 -24.799 -13.013  0.00  0.00    +0.000 C 
ENDBRANCH  27  28
ENDBRANCH  26  27
ENDBRANCH   6  26
TORSDOF 6
ENDMDL
MODEL 8
REMARK VINA RESULT:     -10.6      2.118      2.611
REMARK  Name = 447655
REMARK  6 active torsions:
REMARK  status: ('A' for Active; 'I' for Inactive)
REMARK    1  A    between atoms: N_4  and  C_14
REMARK    2  A    between atoms: C_6  and  O_26
REMARK    3  A    between atoms: C_15  and  S_20
REMARK    4  A    between atoms: S_20  and  N_23
REMARK    5  A    between atoms: O_26  and  C_27
REMARK    6  A    between atoms: C_27  and  C_28
REMARK                            x       y       z     vdW  Elec       q    Type
REMARK                         _______ _______ _______ _____ _____    ______ ____
ROOT
ATOM      1  N   UNL     1      33.439 -23.737 -14.299  0.00  0.00    -0.293 NA
ATOM      2  N   UNL     1      30.023 -23.742 -15.661  0.00  0.00    -0.266 NA
ATOM      3  N   UNL     1      31.816 -24.922 -12.917  0.00  0.00    -0.316 NA
ATOM      4  N   UNL     1      34.063 -24.763 -12.288  0.00  0.00    -0.238 N 
ATOM      5  N   UNL     1      29.561 -24.920 -13.827  0.00  0.00    -0.296 N 
ATOM      6  C   UNL     1      32.496 -23.425 -15.215  0.00  0.00    +0.288 C 
ATOM      7  C   UNL     1      31.206 -23.858 -14.988  0.00  0.00    +0.215 C 
ATOM      8  C   UNL     1      30.893 -24.593 -13.853  0.00  0.00    +0.196 C 
ATOM      9  C   UNL     1      33.046 -24.457 -13.221  0.00  0.00    +0.207 C 
ATOM     10  C   UNL     1      29.067 -24.394 -14.927  0.00  0.00    +0.164 C 
ATOM     11  H   UNL     1      29.883 -23.277 -16.517  0.00  0.00    +0.126 HD
ATOM     12  H   UNL     1      33.749 -25.287 -11.516  0.00  0.00    +0.166 HD
ATOM     13  H   UNL     1      29.081 -25.433 -13.137  0.00  0.00    +0.150 HD
ENDROOT
BRANCH   4  14
ATOM     14  C   UNL     1      35.437 -24.464 -12.248  0.00  0.00    +0.060 C 
ATOM     15  C   UNL     1      37.715 -24.986 -12.873  0.00  0.00    +0.123 C 
ATOM     16  C   UNL     1      36.353 -25.283 -12.912  0.00  0.00    +0.035 C 
ATOM     17  C   UNL     1      35.891 -23.345 -11.544  0.00  0.00    +0.015 C 
ATOM     18  C   UNL     1      38.165 -23.868 -12.169  0.00  0.00    +0.020 C 
ATOM     19  C   UNL     1      37.253 -23.048 -11.505  0.00  0.00    +0.003 C 
BRANCH  15  20
ATOM     20  S   UNL     1      38.858 -26.011 -13.704  0.00  0.00    +0.057 S 
ATOM     21  O   UNL     1      38.489 -26.062 -15.112  0.00  0.00    -0.153 OA
ATOM     22  O   UNL     1      40.204 -25.606 -13.324  0.00  0.00    -0.153 OA
BRANCH  20  23
ATOM     23  N   UNL     1      38.518 -27.525 -12.989  0.00  0.00    -0.203 NA
ATOM     24  H   UNL     1      38.016 -28.111 -13.656  0.00  0.00    +0.144 HD
ATOM     25  H   UNL     1      37.943 -27.387 -12.158  0.00  0.00    +0.144 HD
ENDBRANCH  20  23
ENDBRANCH  15  20
ENDBRANCH   4  14
BRANCH   6  26
ATOM     26  O   UNL     1      32.861 -22.695 -16.319  0.00  0.00    -0.453 OA
BRANCH  26  27
ATOM     27  C   UNL     1      34.105 -23.011 -16.916  0.00  0.00    +0.208 C 
BRANCH  27  28
ATOM     28  C   UNL     1      34.136 -22.406 -18.318  0.00  0.00    +0.044 C 
ATOM     29  C   UNL     1      32.926 -21.488 -18.540  0.00  0.00    +0.004 C 
ATOM     30  C   UNL     1      35.448 -21.644 -18.550  0.00  0.00    +0.004 C 
ATOM     31  C   UNL     1      32.963 -20.829 -19.917  0.00  0.00    +0.000 C 
ATOM     32  C   UNL     1      35.481 -20.985 -19.927  0.00  0.00    +0.000 C 
ATOM     33  C   UNL     1      34.273 -20.081 -20.147  0.00  0.00    +0.000 C 
ENDBRANCH  27  28
ENDBRANCH  26  27
ENDBRANCH   6  26
TORSDOF 6
ENDMDL
MODEL 9
REMARK VINA RESULT:     -10.6      3.699      7.569
REMARK  Name = 447655
REMARK  6 active torsions:
REMARK  status: ('A' for Active; 'I' for Inactive)
REMARK    1  A    between atoms: N_4  and  C_14
REMARK    2  A    between atoms: C_6  and  O_26
REMARK    3  A    between atoms: C_15  and  S_20
REMARK    4  A    between atoms: S_20  and  N_23
REMARK    5  A    between atoms: O_26  and  C_27
REMARK    6  A    between atoms: C_27  and  C_28
REMARK                            x       y       z     vdW  Elec       q    Type
REMARK                         _______ _______ _______ _____ _____    ______ ____
ROOT
ATOM      1  N   UNL     1      33.322 -22.865 -16.223  0.00  0.00    -0.293 NA
ATOM      2  N   UNL     1      30.962 -24.438 -13.881  0.00  0.00    -0.266 NA
ATOM      3  N   UNL     1      31.010 -22.886 -17.000  0.00  0.00    -0.316 NA
ATOM      4  N   UNL     1      32.720 -21.948 -18.292  0.00  0.00    -0.238 N 
ATOM      5  N   UNL     1      29.459 -23.927 -15.445  0.00  0.00    -0.296 N 
ATOM      6  C   UNL     1      32.986 -23.492 -15.073  0.00  0.00    +0.288 C 
ATOM      7  C   UNL     1      31.661 -23.821 -14.879  0.00  0.00    +0.215 C 
ATOM      8  C   UNL     1      30.706 -23.514 -15.839  0.00  0.00    +0.196 C 
ATOM      9  C   UNL     1      32.326 -22.604 -17.103  0.00  0.00    +0.207 C 
ATOM     10  C   UNL     1      29.647 -24.479 -14.265  0.00  0.00    +0.164 C 
ATOM     11  H   UNL     1      31.334 -24.788 -13.040  0.00  0.00    +0.126 HD
ATOM     12  H   UNL     1      31.976 -21.770 -18.912  0.00  0.00    +0.166 HD
ATOM     13  H   UNL     1      28.610 -23.834 -15.936  0.00  0.00    +0.150 HD
ENDROOT
BRANCH   4  14
ATOM     14  C   UNL     1      33.967 -21.497 -18.760  0.00  0.00    +0.060 C 
ATOM     15  C   UNL     1      35.270 -20.105 -20.250  0.00  0.00    +0.123 C 
ATOM     16  C   UNL     1      34.032 -20.552 -19.786  0.00  0.00    +0.035 C 
ATOM     17  C   UNL     1      35.148 -21.993 -18.199  0.00  0.00    +0.015 C 
ATOM     18  C   UNL     1      36.446 -20.602 -19.687  0.00  0.00    +0.020 C 
ATOM     19  C   UNL     1      36.384 -21.546 -18.662  0.00  0.00    +0.003 C 
BRANCH  15  20
ATOM     20  S   UNL     1      35.348 -18.923 -21.532  0.00  0.00    +0.057 S 
ATOM     21  O   UNL     1      36.659 -19.010 -22.157  0.00  0.00    -0.153 OA
ATOM     22  O   UNL     1      34.147 -19.046 -22.347  0.00  0.00    -0.153 OA
BRANCH  20  23
ATOM     23  N   UNL     1      35.257 -17.467 -20.640  0.00  0.00    -0.203 NA
ATOM     24  H   UNL     1      34.286 -17.283 -20.390  0.00  0.00    +0.144 HD
ATOM     25  H   UNL     1      35.614 -16.699 -21.208  0.00  0.00    +0.144 HD
ENDBRANCH  20  23
ENDBRANCH  15  20
ENDBRANCH   4  14
BRANCH   6  26
ATOM     26  O   UNL     1      33.972 -23.771 -14.159  0.00  0.00    -0.453 OA
BRANCH  26  27
ATOM     27  C   UNL     1      35.235 -23.169 -14.371  0.00  0.00    +0.208 C 
BRANCH  27  28
ATOM     28  C   UNL     1      36.089 -23.384 -13.123  0.00  0.00    +0.044 C 
ATOM     29  C   UNL     1      35.274 -24.072 -12.019  0.00  0.00    +0.004 C 
ATOM     30  C   UNL     1      37.346 -24.198 -13.460  0.00  0.00    +0.004 C 
ATOM     31  C   UNL     1      36.121 -24.346 -10.779  0.00  0.00    +0.000 C 
ATOM     32  C   UNL     1      38.190 -24.471 -12.217  0.00  0.00    +0.000 C 
ATOM     33  C   UNL     1      37.374 -25.147 -11.120  0.00  0.00    +0.000 C 
ENDBRANCH  27  28
ENDBRANCH  26  27
ENDBRANCH   6  26
TORSDOF 6
ENDMDL
