MODEL 1
REMARK VINA RESULT:     -12.0      0.000      0.000
REMARK  Name = 10297043
REMARK  6 active torsions:
REMARK  status: ('A' for Active; 'I' for Inactive)
REMARK    1  A    between atoms: N_2  and  C_30
REMARK    2  A    between atoms: C_5  and  C_16
REMARK    3  A    between atoms: C_13  and  C_19
REMARK    4  A    between atoms: C_19  and  N_20
REMARK    5  A    between atoms: N_21  and  C_28
REMARK    6  A    between atoms: C_30  and  C_32
REMARK                            x       y       z     vdW  Elec       q    Type
REMARK                         _______ _______ _______ _____ _____    ______ ____
ROOT
ATOM      1  N   UNL     1      32.511 -22.000 -17.996  0.00  0.00    -0.301 N 
ATOM      2  N   UNL     1      35.212 -23.985 -14.751  0.00  0.00    -0.319 N 
ATOM      3  N   UNL     1      31.340 -23.185 -16.253  0.00  0.00    -0.233 NA
ATOM      4  N   UNL     1      32.837 -24.183 -14.612  0.00  0.00    -0.233 NA
ATOM      5  C   UNL     1      33.818 -21.734 -18.315  0.00  0.00    +0.046 C 
ATOM      6  C   UNL     1      33.767 -22.964 -16.424  0.00  0.00    +0.131 C 
ATOM      7  C   UNL     1      34.619 -22.319 -17.358  0.00  0.00    +0.003 C 
ATOM      8  C   UNL     1      32.462 -22.748 -16.849  0.00  0.00    +0.117 C 
ATOM      9  C   UNL     1      33.929 -23.713 -15.260  0.00  0.00    +0.113 C 
ATOM     10  C   UNL     1      31.627 -23.894 -15.142  0.00  0.00    +0.252 C 
ATOM     11  H   UNL     1      31.728 -21.700 -18.513  0.00  0.00    +0.153 HD
ATOM     12  H   UNL     1      35.993 -23.634 -15.237  0.00  0.00    +0.148 HD
ENDROOT
BRANCH   5  16
ATOM     13  C   UNL     1      34.875 -19.481 -21.726  0.00  0.00    -0.043 C 
ATOM     14  C   UNL     1      35.871 -19.957 -20.880  0.00  0.00    -0.006 C 
ATOM     15  C   UNL     1      33.536 -19.738 -21.461  0.00  0.00    -0.006 C 
ATOM     16  C   UNL     1      34.179 -20.964 -19.481  0.00  0.00    +0.013 C 
ATOM     17  C   UNL     1      35.521 -20.702 -19.754  0.00  0.00    +0.001 C 
ATOM     18  C   UNL     1      33.186 -20.483 -20.334  0.00  0.00    +0.001 C 
BRANCH  13  19
ATOM     19  C   UNL     1      35.251 -18.678 -22.938  0.00  0.00    -0.050 C 
BRANCH  19  20
ATOM     20  N   UNL     1      34.619 -17.361 -22.939  0.00  0.00    +0.387 N 
ATOM     21  N   UNL     1      34.638 -14.496 -23.327  0.00  0.00    +0.384 N 
ATOM     22  C   UNL     1      35.278 -16.466 -21.979  0.00  0.00    -0.100 C 
ATOM     23  C   UNL     1      34.638 -16.774 -24.285  0.00  0.00    -0.100 C 
ATOM     24  C   UNL     1      34.619 -15.083 -21.981  0.00  0.00    -0.101 C 
ATOM     25  C   UNL     1      33.977 -15.391 -24.285  0.00  0.00    -0.101 C 
ATOM     26  H   UNL     1      33.646 -17.479 -22.653  0.00  0.00    -0.079 HD
ATOM     27  H   UNL     1      35.610 -14.380 -23.614  0.00  0.00    -0.080 HD
BRANCH  21  28
ATOM     28  C   UNL     1      34.007 -13.178 -23.328  0.00  0.00    -0.078 C 
ATOM     29  C   UNL     1      33.067 -13.018 -22.145  0.00  0.00    -0.025 C 
ENDBRANCH  21  28
ENDBRANCH  19  20
ENDBRANCH  13  19
ENDBRANCH   5  16
BRANCH   2  30
ATOM     30  C   UNL     1      35.435 -24.749 -13.561  0.00  0.00    +0.093 C 
ATOM     31  C   UNL     1      35.329 -23.828 -12.347  0.00  0.00    +0.026 C 
BRANCH  30  32
ATOM     32  C   UNL     1      36.760 -25.474 -13.643  0.00  0.00    -0.005 C 
ATOM     33  C   UNL     1      36.855 -26.624 -14.408  0.00  0.00    -0.003 C 
ATOM     34  C   UNL     1      37.850 -24.973 -12.951  0.00  0.00    -0.003 C 
ATOM     35  C   UNL     1      38.076 -27.293 -14.484  0.00  0.00    -0.000 C 
ATOM     36  C   UNL     1      39.071 -25.642 -13.027  0.00  0.00    -0.000 C 
ATOM     37  C   UNL     1      39.184 -26.802 -13.793  0.00  0.00    -0.000 C 
ENDBRANCH  30  32
ENDBRANCH   2  30
TORSDOF 6
ENDMDL
MODEL 2
REMARK VINA RESULT:     -11.7      5.078      9.811
REMARK  Name = 10297043
REMARK  6 active torsions:
REMARK  status: ('A' for Active; 'I' for Inactive)
REMARK    1  A    between atoms: N_2  and  C_30
REMARK    2  A    between atoms: C_5  and  C_16
REMARK    3  A    between atoms: C_13  and  C_19
REMARK    4  A    between atoms: C_19  and  N_20
REMARK    5  A    between atoms: N_21  and  C_28
REMARK    6  A    between atoms: C_30  and  C_32
REMARK                            x       y       z     vdW  Elec       q    Type
REMARK                         _______ _______ _______ _____ _____    ______ ____
ROOT
ATOM      1  N   UNL     1      33.431 -14.524 -24.008  0.00  0.00    -0.301 N 
ATOM      2  N   UNL     1      35.859 -17.316 -21.166  0.00  0.00    -0.319 N 
ATOM      3  N   UNL     1      34.005 -16.683 -24.914  0.00  0.00    -0.233 NA
ATOM      4  N   UNL     1      35.269 -18.062 -23.356  0.00  0.00    -0.233 NA
ATOM      5  C   UNL     1      33.631 -13.853 -22.828  0.00  0.00    +0.046 C 
ATOM      6  C   UNL     1      34.593 -15.889 -22.679  0.00  0.00    +0.131 C 
ATOM      7  C   UNL     1      34.348 -14.676 -21.986  0.00  0.00    +0.003 C 
ATOM      8  C   UNL     1      34.010 -15.763 -23.935  0.00  0.00    +0.117 C 
ATOM      9  C   UNL     1      35.240 -17.095 -22.409  0.00  0.00    +0.113 C 
ATOM     10  C   UNL     1      34.659 -17.800 -24.534  0.00  0.00    +0.252 C 
ATOM     11  H   UNL     1      32.946 -14.168 -24.787  0.00  0.00    +0.153 HD
ATOM     12  H   UNL     1      35.827 -16.599 -20.492  0.00  0.00    +0.148 HD
ENDROOT
BRANCH   5  16
ATOM     13  C   UNL     1      32.176  -9.940 -22.204  0.00  0.00    -0.043 C 
ATOM     14  C   UNL     1      33.092 -10.178 -23.221  0.00  0.00    -0.006 C 
ATOM     15  C   UNL     1      31.733 -10.975 -21.390  0.00  0.00    -0.006 C 
ATOM     16  C   UNL     1      33.133 -12.517 -22.615  0.00  0.00    +0.013 C 
ATOM     17  C   UNL     1      33.572 -11.472 -23.428  0.00  0.00    +0.001 C 
ATOM     18  C   UNL     1      32.213 -12.268 -21.596  0.00  0.00    +0.001 C 
BRANCH  13  19
ATOM     19  C   UNL     1      31.659  -8.548 -21.981  0.00  0.00    -0.050 C 
BRANCH  19  20
ATOM     20  N   UNL     1      32.207  -7.600 -22.950  0.00  0.00    +0.387 N 
ATOM     21  N   UNL     1      32.800  -4.931 -23.888  0.00  0.00    +0.384 N 
ATOM     22  C   UNL     1      31.151  -6.725 -23.476  0.00  0.00    -0.100 C 
ATOM     23  C   UNL     1      33.282  -6.802 -22.348  0.00  0.00    -0.100 C 
ATOM     24  C   UNL     1      31.724  -5.728 -24.489  0.00  0.00    -0.101 C 
ATOM     25  C   UNL     1      33.854  -5.806 -23.363  0.00  0.00    -0.101 C 
ATOM     26  H   UNL     1      32.597  -8.135 -23.726  0.00  0.00    -0.079 HD
ATOM     27  H   UNL     1      32.409  -4.398 -23.111  0.00  0.00    -0.080 HD
BRANCH  21  28
ATOM     28  C   UNL     1      33.346  -3.982 -24.856  0.00  0.00    -0.078 C 
ATOM     29  C   UNL     1      34.545  -4.567 -25.582  0.00  0.00    -0.025 C 
ENDBRANCH  21  28
ENDBRANCH  19  20
ENDBRANCH  13  19
ENDBRANCH   5  16
BRANCH   2  30
ATOM     30  C   UNL     1      36.537 -18.533 -20.837  0.00  0.00    +0.093 C 
ATOM     31  C   UNL     1      37.335 -19.007 -22.050  0.00  0.00    +0.026 C 
BRANCH  30  32
ATOM     32  C   UNL     1      35.550 -19.564 -20.336  0.00  0.00    -0.005 C 
ATOM     33  C   UNL     1      36.015 -20.650 -19.614  0.00  0.00    -0.003 C 
ATOM     34  C   UNL     1      34.203 -19.401 -20.610  0.00  0.00    -0.003 C 
ATOM     35  C   UNL     1      35.106 -21.601 -19.153  0.00  0.00    -0.000 C 
ATOM     36  C   UNL     1      33.294 -20.352 -20.149  0.00  0.00    -0.000 C 
ATOM     37  C   UNL     1      33.745 -21.452 -19.420  0.00  0.00    -0.000 C 
ENDBRANCH  30  32
ENDBRANCH   2  30
TORSDOF 6
ENDMDL
MODEL 3
REMARK VINA RESULT:     -11.5      3.258     12.876
REMARK  Name = 10297043
REMARK  6 active torsions:
REMARK  status: ('A' for Active; 'I' for Inactive)
REMARK    1  A    between atoms: N_2  and  C_30
REMARK    2  A    between atoms: C_5  and  C_16
REMARK    3  A    between atoms: C_13  and  C_19
REMARK    4  A    between atoms: C_19  and  N_20
REMARK    5  A    between atoms: N_21  and  C_28
REMARK    6  A    between atoms: C_30  and  C_32
REMARK                            x       y       z     vdW  Elec       q    Type
REMARK                         _______ _______ _______ _____ _____    ______ ____
ROOT
ATOM      1  N   UNL     1      34.259 -15.288 -24.622  0.00  0.00    -0.301 N 
ATOM      2  N   UNL     1      33.624 -10.976 -22.957  0.00  0.00    -0.319 N 
ATOM      3  N   UNL     1      33.564 -13.641 -26.240  0.00  0.00    -0.233 NA
ATOM      4  N   UNL     1      33.261 -11.428 -25.273  0.00  0.00    -0.233 NA
ATOM      5  C   UNL     1      34.533 -15.310 -23.278  0.00  0.00    +0.046 C 
ATOM      6  C   UNL     1      33.945 -13.212 -23.865  0.00  0.00    +0.131 C 
ATOM      7  C   UNL     1      34.347 -14.036 -22.783  0.00  0.00    +0.003 C 
ATOM      8  C   UNL     1      33.899 -14.020 -24.995  0.00  0.00    +0.117 C 
ATOM      9  C   UNL     1      33.607 -11.871 -24.042  0.00  0.00    +0.113 C 
ATOM     10  C   UNL     1      33.260 -12.328 -26.282  0.00  0.00    +0.252 C 
ATOM     11  H   UNL     1      34.313 -16.064 -25.225  0.00  0.00    +0.153 HD
ATOM     12  H   UNL     1      33.878 -11.318 -22.070  0.00  0.00    +0.148 HD
ENDROOT
BRANCH   5  16
ATOM     13  C   UNL     1      35.715 -18.845 -21.295  0.00  0.00    -0.043 C 
ATOM     14  C   UNL     1      35.391 -18.890 -22.646  0.00  0.00    -0.006 C 
ATOM     15  C   UNL     1      35.655 -17.649 -20.590  0.00  0.00    -0.006 C 
ATOM     16  C   UNL     1      34.937 -16.517 -22.600  0.00  0.00    +0.013 C 
ATOM     17  C   UNL     1      35.001 -17.721 -23.301  0.00  0.00    +0.001 C 
ATOM     18  C   UNL     1      35.265 -16.481 -21.245  0.00  0.00    +0.001 C 
BRANCH  13  19
ATOM     19  C   UNL     1      36.135 -20.102 -20.589  0.00  0.00    -0.050 C 
BRANCH  19  20
ATOM     20  N   UNL     1      35.189 -20.482 -19.542  0.00  0.00    +0.387 N 
ATOM     21  N   UNL     1      33.304 -22.295 -18.311  0.00  0.00    +0.384 N 
ATOM     22  C   UNL     1      33.845 -20.681 -20.102  0.00  0.00    -0.100 C 
ATOM     23  C   UNL     1      35.639 -21.694 -18.847  0.00  0.00    -0.100 C 
ATOM     24  C   UNL     1      32.852 -21.084 -19.007  0.00  0.00    -0.101 C 
ATOM     25  C   UNL     1      34.645 -22.095 -17.751  0.00  0.00    -0.101 C 
ATOM     26  H   UNL     1      35.145 -19.720 -18.866  0.00  0.00    -0.079 HD
ATOM     27  H   UNL     1      33.349 -23.058 -18.988  0.00  0.00    -0.080 HD
BRANCH  21  28
ATOM     28  C   UNL     1      32.357 -22.677 -17.265  0.00  0.00    -0.078 C 
ATOM     29  C   UNL     1      33.076 -23.245 -16.054  0.00  0.00    -0.025 C 
ENDBRANCH  21  28
ENDBRANCH  19  20
ENDBRANCH  13  19
ENDBRANCH   5  16
BRANCH   2  30
ATOM     30  C   UNL     1      33.286  -9.590 -23.083  0.00  0.00    +0.093 C 
ATOM     31  C   UNL     1      34.485  -8.832 -23.649  0.00  0.00    +0.026 C 
BRANCH  30  32
ATOM     32  C   UNL     1      32.810  -9.043 -21.754  0.00  0.00    -0.005 C 
ATOM     33  C   UNL     1      33.130  -7.742 -21.406  0.00  0.00    -0.003 C 
ATOM     34  C   UNL     1      32.067  -9.855 -20.916  0.00  0.00    -0.003 C 
ATOM     35  C   UNL     1      32.693  -7.238 -20.182  0.00  0.00    -0.000 C 
ATOM     36  C   UNL     1      31.629  -9.351 -19.692  0.00  0.00    -0.000 C 
ATOM     37  C   UNL     1      31.942  -8.043 -19.324  0.00  0.00    -0.000 C 
ENDBRANCH  30  32
ENDBRANCH   2  30
TORSDOF 6
ENDMDL
MODEL 4
REMARK VINA RESULT:     -10.8      1.061      1.524
REMARK  Name = 10297043
REMARK  6 active torsions:
REMARK  status: ('A' for Active; 'I' for Inactive)
REMARK    1  A    between atoms: N_2  and  C_30
REMARK    2  A    between atoms: C_5  and  C_16
REMARK    3  A    between atoms: C_13  and  C_19
REMARK    4  A    between atoms: C_19  and  N_20
REMARK    5  A    between atoms: N_21  and  C_28
REMARK    6  A    between atoms: C_30  and  C_32
REMARK                            x       y       z     vdW  Elec       q    Type
REMARK                         _______ _______ _______ _____ _____    ______ ____
ROOT
ATOM      1  N   UNL     1      33.484 -22.302 -17.315  0.00  0.00    -0.301 N 
ATOM      2  N   UNL     1      36.553 -23.769 -14.121  0.00  0.00    -0.319 N 
ATOM      3  N   UNL     1      32.552 -23.554 -15.476  0.00  0.00    -0.233 NA
ATOM      4  N   UNL     1      34.233 -24.272 -13.867  0.00  0.00    -0.233 NA
ATOM      5  C   UNL     1      34.729 -21.880 -17.703  0.00  0.00    +0.046 C 
ATOM      6  C   UNL     1      34.919 -23.022 -15.765  0.00  0.00    +0.131 C 
ATOM      7  C   UNL     1      35.639 -22.312 -16.760  0.00  0.00    +0.003 C 
ATOM      8  C   UNL     1      33.581 -22.999 -16.139  0.00  0.00    +0.117 C 
ATOM      9  C   UNL     1      35.226 -23.691 -14.581  0.00  0.00    +0.113 C 
ATOM     10  C   UNL     1      32.975 -24.169 -14.353  0.00  0.00    +0.252 C 
ATOM     11  H   UNL     1      32.648 -22.132 -17.806  0.00  0.00    +0.153 HD
ATOM     12  H   UNL     1      37.261 -23.340 -14.656  0.00  0.00    +0.148 HD
ENDROOT
BRANCH   5  16
ATOM     13  C   UNL     1      35.337 -19.662 -21.243  0.00  0.00    -0.043 C 
ATOM     14  C   UNL     1      34.042 -19.941 -20.819  0.00  0.00    -0.006 C 
ATOM     15  C   UNL     1      36.433 -20.106 -20.514  0.00  0.00    -0.006 C 
ATOM     16  C   UNL     1      34.937 -21.122 -18.912  0.00  0.00    +0.013 C 
ATOM     17  C   UNL     1      33.842 -20.673 -19.649  0.00  0.00    +0.001 C 
ATOM     18  C   UNL     1      36.232 -20.838 -19.344  0.00  0.00    +0.001 C 
BRANCH  13  19
ATOM     19  C   UNL     1      35.553 -18.873 -22.503  0.00  0.00    -0.050 C 
BRANCH  19  20
ATOM     20  N   UNL     1      34.858 -17.588 -22.468  0.00  0.00    +0.387 N 
ATOM     21  N   UNL     1      34.758 -14.708 -22.700  0.00  0.00    +0.384 N 
ATOM     22  C   UNL     1      35.420 -16.719 -21.426  0.00  0.00    -0.100 C 
ATOM     23  C   UNL     1      34.920 -16.926 -23.777  0.00  0.00    -0.100 C 
ATOM     24  C   UNL     1      34.696 -15.370 -21.391  0.00  0.00    -0.101 C 
ATOM     25  C   UNL     1      34.194 -15.577 -23.740  0.00  0.00    -0.101 C 
ATOM     26  H   UNL     1      33.878 -17.766 -22.244  0.00  0.00    -0.079 HD
ATOM     27  H   UNL     1      35.738 -14.532 -22.925  0.00  0.00    -0.080 HD
BRANCH  21  28
ATOM     28  C   UNL     1      34.065 -13.422 -22.666  0.00  0.00    -0.078 C 
ATOM     29  C   UNL     1      33.717 -12.948 -24.066  0.00  0.00    -0.025 C 
ENDBRANCH  21  28
ENDBRANCH  19  20
ENDBRANCH  13  19
ENDBRANCH   5  16
BRANCH   2  30
ATOM     30  C   UNL     1      36.923 -24.443 -12.914  0.00  0.00    +0.093 C 
ATOM     31  C   UNL     1      37.579 -23.444 -11.963  0.00  0.00    +0.026 C 
BRANCH  30  32
ATOM     32  C   UNL     1      37.805 -25.632 -13.227  0.00  0.00    -0.005 C 
ATOM     33  C   UNL     1      37.520 -26.856 -12.645  0.00  0.00    -0.003 C 
ATOM     34  C   UNL     1      38.878 -25.472 -14.086  0.00  0.00    -0.003 C 
ATOM     35  C   UNL     1      38.332 -27.952 -12.933  0.00  0.00    -0.000 C 
ATOM     36  C   UNL     1      39.691 -26.568 -14.373  0.00  0.00    -0.000 C 
ATOM     37  C   UNL     1      39.418 -27.808 -13.796  0.00  0.00    -0.000 C 
ENDBRANCH  30  32
ENDBRANCH   2  30
TORSDOF 6
ENDMDL
MODEL 5
REMARK VINA RESULT:     -10.5      2.038      4.142
REMARK  Name = 10297043
REMARK  6 active torsions:
REMARK  status: ('A' for Active; 'I' for Inactive)
REMARK    1  A    between atoms: N_2  and  C_30
REMARK    2  A    between atoms: C_5  and  C_16
REMARK    3  A    between atoms: C_13  and  C_19
REMARK    4  A    between atoms: C_19  and  N_20
REMARK    5  A    between atoms: N_21  and  C_28
REMARK    6  A    between atoms: C_30  and  C_32
REMARK                            x       y       z     vdW  Elec       q    Type
REMARK                         _______ _______ _______ _____ _____    ______ ____
ROOT
ATOM      1  N   UNL     1      37.070 -20.925 -18.416  0.00  0.00    -0.301 N 
ATOM      2  N   UNL     1      34.039 -23.172 -15.672  0.00  0.00    -0.319 N 
ATOM      3  N   UNL     1      38.023 -22.011 -16.486  0.00  0.00    -0.233 NA
ATOM      4  N   UNL     1      36.362 -23.154 -15.122  0.00  0.00    -0.233 NA
ATOM      5  C   UNL     1      35.819 -20.776 -18.959  0.00  0.00    +0.046 C 
ATOM      6  C   UNL     1      35.653 -22.011 -17.078  0.00  0.00    +0.131 C 
ATOM      7  C   UNL     1      34.921 -21.440 -18.150  0.00  0.00    +0.003 C 
ATOM      8  C   UNL     1      36.986 -21.672 -17.271  0.00  0.00    +0.117 C 
ATOM      9  C   UNL     1      35.360 -22.780 -15.952  0.00  0.00    +0.113 C 
ATOM     10  C   UNL     1      37.614 -22.751 -15.435  0.00  0.00    +0.252 C 
ATOM     11  H   UNL     1      37.899 -20.551 -18.791  0.00  0.00    +0.153 HD
ATOM     12  H   UNL     1      33.325 -22.890 -16.289  0.00  0.00    +0.148 HD
ENDROOT
BRANCH   5  16
ATOM     13  C   UNL     1      35.168 -18.588 -22.510  0.00  0.00    -0.043 C 
ATOM     14  C   UNL     1      36.411 -18.535 -21.888  0.00  0.00    -0.006 C 
ATOM     15  C   UNL     1      34.139 -19.352 -21.977  0.00  0.00    -0.006 C 
ATOM     16  C   UNL     1      35.597 -20.029 -20.172  0.00  0.00    +0.013 C 
ATOM     17  C   UNL     1      36.625 -19.259 -20.715  0.00  0.00    +0.001 C 
ATOM     18  C   UNL     1      34.354 -20.076 -20.803  0.00  0.00    +0.001 C 
BRANCH  13  19
ATOM     19  C   UNL     1      34.937 -17.809 -23.773  0.00  0.00    -0.050 C 
BRANCH  19  20
ATOM     20  N   UNL     1      34.294 -16.523 -23.511  0.00  0.00    +0.387 N 
ATOM     21  N   UNL     1      34.264 -13.634 -23.402  0.00  0.00    +0.384 N 
ATOM     22  C   UNL     1      35.002 -15.792 -22.452  0.00  0.00    -0.100 C 
ATOM     23  C   UNL     1      34.226 -15.714 -24.735  0.00  0.00    -0.100 C 
ATOM     24  C   UNL     1      34.332 -14.442 -22.178  0.00  0.00    -0.101 C 
ATOM     25  C   UNL     1      33.555 -14.364 -24.459  0.00  0.00    -0.101 C 
ATOM     26  H   UNL     1      33.342 -16.706 -23.193  0.00  0.00    -0.079 HD
ATOM     27  H   UNL     1      35.216 -13.452 -23.721  0.00  0.00    -0.080 HD
BRANCH  21  28
ATOM     28  C   UNL     1      33.623 -12.347 -23.140  0.00  0.00    -0.078 C 
ATOM     29  C   UNL     1      33.952 -11.338 -24.227  0.00  0.00    -0.025 C 
ENDBRANCH  21  28
ENDBRANCH  19  20
ENDBRANCH  13  19
ENDBRANCH   5  16
BRANCH   2  30
ATOM     30  C   UNL     1      33.683 -23.961 -14.531  0.00  0.00    +0.093 C 
ATOM     31  C   UNL     1      34.457 -25.277 -14.571  0.00  0.00    +0.026 C 
BRANCH  30  32
ATOM     32  C   UNL     1      32.184 -24.155 -14.474  0.00  0.00    -0.005 C 
ATOM     33  C   UNL     1      31.640 -24.923 -13.459  0.00  0.00    -0.003 C 
ATOM     34  C   UNL     1      31.387 -23.562 -15.438  0.00  0.00    -0.003 C 
ATOM     35  C   UNL     1      30.258 -25.103 -13.406  0.00  0.00    -0.000 C 
ATOM     36  C   UNL     1      30.006 -23.741 -15.386  0.00  0.00    -0.000 C 
ATOM     37  C   UNL     1      29.441 -24.513 -14.370  0.00  0.00    -0.000 C 
ENDBRANCH  30  32
ENDBRANCH   2  30
TORSDOF 6
ENDMDL
MODEL 6
REMARK VINA RESULT:     -10.4      5.568     15.597
REMARK  Name = 10297043
REMARK  6 active torsions:
REMARK  status: ('A' for Active; 'I' for Inactive)
REMARK    1  A    between atoms: N_2  and  C_30
REMARK    2  A    between atoms: C_5  and  C_16
REMARK    3  A    between atoms: C_13  and  C_19
REMARK    4  A    between atoms: C_19  and  N_20
REMARK    5  A    between atoms: N_21  and  C_28
REMARK    6  A    between atoms: C_30  and  C_32
REMARK                            x       y       z     vdW  Elec       q    Type
REMARK                         _______ _______ _______ _____ _____    ______ ____
ROOT
ATOM      1  N   UNL     1      32.652 -10.610 -21.600  0.00  0.00    -0.301 N 
ATOM      2  N   UNL     1      32.906  -6.698 -24.130  0.00  0.00    -0.319 N 
ATOM      3  N   UNL     1      31.935  -8.599 -20.479  0.00  0.00    -0.233 NA
ATOM      4  N   UNL     1      32.106  -6.617 -21.882  0.00  0.00    -0.233 NA
ATOM      5  C   UNL     1      33.139 -10.940 -22.838  0.00  0.00    +0.046 C 
ATOM      6  C   UNL     1      32.758  -8.717 -22.777  0.00  0.00    +0.131 C 
ATOM      7  C   UNL     1      33.215  -9.786 -23.589  0.00  0.00    +0.003 C 
ATOM      8  C   UNL     1      32.416  -9.262 -21.545  0.00  0.00    +0.117 C 
ATOM      9  C   UNL     1      32.587  -7.341 -22.920  0.00  0.00    +0.113 C 
ATOM     10  C   UNL     1      31.815  -7.281 -20.741  0.00  0.00    +0.252 C 
ATOM     11  H   UNL     1      32.497 -11.244 -20.863  0.00  0.00    +0.153 HD
ATOM     12  H   UNL     1      33.254  -7.243 -24.873  0.00  0.00    +0.148 HD
ENDROOT
BRANCH   5  16
ATOM     13  C   UNL     1      34.149 -14.910 -23.859  0.00  0.00    -0.043 C 
ATOM     14  C   UNL     1      34.203 -14.507 -22.529  0.00  0.00    -0.006 C 
ATOM     15  C   UNL     1      33.767 -14.021 -24.856  0.00  0.00    -0.006 C 
ATOM     16  C   UNL     1      33.484 -12.296 -23.187  0.00  0.00    +0.013 C 
ATOM     17  C   UNL     1      33.868 -13.195 -22.193  0.00  0.00    +0.001 C 
ATOM     18  C   UNL     1      33.433 -12.709 -24.518  0.00  0.00    +0.001 C 
BRANCH  13  19
ATOM     19  C   UNL     1      34.509 -16.322 -24.222  0.00  0.00    -0.050 C 
BRANCH  19  20
ATOM     20  N   UNL     1      34.466 -17.212 -23.063  0.00  0.00    +0.387 N 
ATOM     21  N   UNL     1      35.447 -19.419 -21.475  0.00  0.00    +0.384 N 
ATOM     22  C   UNL     1      34.260 -18.604 -23.483  0.00  0.00    -0.100 C 
ATOM     23  C   UNL     1      35.695 -17.093 -22.268  0.00  0.00    -0.100 C 
ATOM     24  C   UNL     1      34.219 -19.540 -22.270  0.00  0.00    -0.101 C 
ATOM     25  C   UNL     1      35.651 -18.028 -21.055  0.00  0.00    -0.101 C 
ATOM     26  H   UNL     1      33.677 -16.932 -22.481  0.00  0.00    -0.079 HD
ATOM     27  H   UNL     1      36.237 -19.698 -22.058  0.00  0.00    -0.080 HD
BRANCH  21  28
ATOM     28  C   UNL     1      35.406 -20.311 -20.317  0.00  0.00    -0.078 C 
ATOM     29  C   UNL     1      33.975 -20.580 -19.882  0.00  0.00    -0.025 C 
ENDBRANCH  21  28
ENDBRANCH  19  20
ENDBRANCH  13  19
ENDBRANCH   5  16
BRANCH   2  30
ATOM     30  C   UNL     1      32.750  -5.290 -24.332  0.00  0.00    +0.093 C 
ATOM     31  C   UNL     1      31.271  -4.975 -24.545  0.00  0.00    +0.026 C 
BRANCH  30  32
ATOM     32  C   UNL     1      33.627  -4.822 -25.473  0.00  0.00    -0.005 C 
ATOM     33  C   UNL     1      33.035  -4.287 -26.604  0.00  0.00    -0.003 C 
ATOM     34  C   UNL     1      35.002  -4.940 -25.362  0.00  0.00    -0.003 C 
ATOM     35  C   UNL     1      33.843  -3.857 -27.656  0.00  0.00    -0.000 C 
ATOM     36  C   UNL     1      35.809  -4.510 -26.413  0.00  0.00    -0.000 C 
ATOM     37  C   UNL     1      35.231  -3.968 -27.561  0.00  0.00    -0.000 C 
ENDBRANCH  30  32
ENDBRANCH   2  30
TORSDOF 6
ENDMDL
MODEL 7
REMARK VINA RESULT:     -10.2      2.408      5.601
REMARK  Name = 10297043
REMARK  6 active torsions:
REMARK  status: ('A' for Active; 'I' for Inactive)
REMARK    1  A    between atoms: N_2  and  C_30
REMARK    2  A    between atoms: C_5  and  C_16
REMARK    3  A    between atoms: C_13  and  C_19
REMARK    4  A    between atoms: C_19  and  N_20
REMARK    5  A    between atoms: N_21  and  C_28
REMARK    6  A    between atoms: C_30  and  C_32
REMARK                            x       y       z     vdW  Elec       q    Type
REMARK                         _______ _______ _______ _____ _____    ______ ____
ROOT
ATOM      1  N   UNL     1      35.033 -21.939 -18.042  0.00  0.00    -0.301 N 
ATOM      2  N   UNL     1      30.743 -22.860 -16.457  0.00  0.00    -0.319 N 
ATOM      3  N   UNL     1      34.927 -23.355 -16.094  0.00  0.00    -0.233 NA
ATOM      4  N   UNL     1      32.648 -23.775 -15.347  0.00  0.00    -0.233 NA
ATOM      5  C   UNL     1      34.136 -21.295 -18.856  0.00  0.00    +0.046 C 
ATOM      6  C   UNL     1      32.998 -22.403 -17.253  0.00  0.00    +0.131 C 
ATOM      7  C   UNL     1      32.867 -21.566 -18.390  0.00  0.00    +0.003 C 
ATOM      8  C   UNL     1      34.358 -22.617 -17.062  0.00  0.00    +0.117 C 
ATOM      9  C   UNL     1      32.136 -23.018 -16.346  0.00  0.00    +0.113 C 
ATOM     10  C   UNL     1      33.994 -23.895 -15.284  0.00  0.00    +0.252 C 
ATOM     11  H   UNL     1      36.012 -21.916 -18.146  0.00  0.00    +0.153 HD
ATOM     12  H   UNL     1      30.391 -22.304 -17.190  0.00  0.00    +0.148 HD
ENDROOT
BRANCH   5  16
ATOM     13  C   UNL     1      35.378 -18.952 -22.141  0.00  0.00    -0.043 C 
ATOM     14  C   UNL     1      36.302 -19.320 -21.170  0.00  0.00    -0.006 C 
ATOM     15  C   UNL     1      34.049 -19.347 -22.042  0.00  0.00    -0.006 C 
ATOM     16  C   UNL     1      34.560 -20.495 -19.978  0.00  0.00    +0.013 C 
ATOM     17  C   UNL     1      35.892 -20.095 -20.085  0.00  0.00    +0.001 C 
ATOM     18  C   UNL     1      33.639 -20.122 -20.957  0.00  0.00    +0.001 C 
BRANCH  13  19
ATOM     19  C   UNL     1      35.819 -18.118 -23.309  0.00  0.00    -0.050 C 
BRANCH  19  20
ATOM     20  N   UNL     1      35.487 -16.706 -23.129  0.00  0.00    +0.387 N 
ATOM     21  N   UNL     1      33.648 -14.545 -22.577  0.00  0.00    +0.384 N 
ATOM     22  C   UNL     1      34.499 -16.272 -24.125  0.00  0.00    -0.100 C 
ATOM     23  C   UNL     1      34.989 -16.457 -21.770  0.00  0.00    -0.100 C 
ATOM     24  C   UNL     1      34.146 -14.794 -23.936  0.00  0.00    -0.101 C 
ATOM     25  C   UNL     1      34.636 -14.977 -21.582  0.00  0.00    -0.101 C 
ATOM     26  H   UNL     1      36.340 -16.162 -23.264  0.00  0.00    -0.079 HD
ATOM     27  H   UNL     1      32.796 -15.090 -22.442  0.00  0.00    -0.080 HD
BRANCH  21  28
ATOM     28  C   UNL     1      33.313 -13.134 -22.397  0.00  0.00    -0.078 C 
ATOM     29  C   UNL     1      32.537 -12.913 -21.110  0.00  0.00    -0.025 C 
ENDBRANCH  21  28
ENDBRANCH  19  20
ENDBRANCH  13  19
ENDBRANCH   5  16
BRANCH   2  30
ATOM     30  C   UNL     1      29.813 -23.467 -15.554  0.00  0.00    +0.093 C 
ATOM     31  C   UNL     1      29.852 -24.982 -15.738  0.00  0.00    +0.026 C 
BRANCH  30  32
ATOM     32  C   UNL     1      28.432 -22.881 -15.749  0.00  0.00    -0.005 C 
ATOM     33  C   UNL     1      27.691 -22.513 -14.639  0.00  0.00    -0.003 C 
ATOM     34  C   UNL     1      27.938 -22.725 -17.033  0.00  0.00    -0.003 C 
ATOM     35  C   UNL     1      26.418 -21.973 -14.819  0.00  0.00    -0.000 C 
ATOM     36  C   UNL     1      26.665 -22.185 -17.213  0.00  0.00    -0.000 C 
ATOM     37  C   UNL     1      25.905 -21.809 -16.106  0.00  0.00    -0.000 C 
ENDBRANCH  30  32
ENDBRANCH   2  30
TORSDOF 6
ENDMDL
MODEL 8
REMARK VINA RESULT:      -9.4      6.548     16.383
REMARK  Name = 10297043
REMARK  6 active torsions:
REMARK  status: ('A' for Active; 'I' for Inactive)
REMARK    1  A    between atoms: N_2  and  C_30
REMARK    2  A    between atoms: C_5  and  C_16
REMARK    3  A    between atoms: C_13  and  C_19
REMARK    4  A    between atoms: C_19  and  N_20
REMARK    5  A    between atoms: N_21  and  C_28
REMARK    6  A    between atoms: C_30  and  C_32
REMARK                            x       y       z     vdW  Elec       q    Type
REMARK                         _______ _______ _______ _____ _____    ______ ____
ROOT
ATOM      1  N   UNL     1      32.696  -9.507 -21.127  0.00  0.00    -0.301 N 
ATOM      2  N   UNL     1      32.442  -5.324 -23.176  0.00  0.00    -0.319 N 
ATOM      3  N   UNL     1      32.345  -7.642 -19.640  0.00  0.00    -0.233 NA
ATOM      4  N   UNL     1      32.226  -5.507 -20.805  0.00  0.00    -0.233 NA
ATOM      5  C   UNL     1      32.850  -9.689 -22.477  0.00  0.00    +0.046 C 
ATOM      6  C   UNL     1      32.568  -7.488 -22.068  0.00  0.00    +0.131 C 
ATOM      7  C   UNL     1      32.775  -8.454 -23.086  0.00  0.00    +0.003 C 
ATOM      8  C   UNL     1      32.525  -8.174 -20.861  0.00  0.00    +0.117 C 
ATOM      9  C   UNL     1      32.411  -6.104 -22.006  0.00  0.00    +0.113 C 
ATOM     10  C   UNL     1      32.206  -6.302 -19.711  0.00  0.00    +0.252 C 
ATOM     11  H   UNL     1      32.708 -10.224 -20.452  0.00  0.00    +0.153 HD
ATOM     12  H   UNL     1      32.577  -5.777 -24.039  0.00  0.00    +0.148 HD
ENDROOT
BRANCH   5  16
ATOM     13  C   UNL     1      33.446 -13.513 -24.164  0.00  0.00    -0.043 C 
ATOM     14  C   UNL     1      32.907 -13.401 -22.887  0.00  0.00    -0.006 C 
ATOM     15  C   UNL     1      33.790 -12.381 -24.891  0.00  0.00    -0.006 C 
ATOM     16  C   UNL     1      33.053 -10.996 -23.054  0.00  0.00    +0.013 C 
ATOM     17  C   UNL     1      32.710 -12.137 -22.330  0.00  0.00    +0.001 C 
ATOM     18  C   UNL     1      33.593 -11.117 -24.334  0.00  0.00    +0.001 C 
BRANCH  13  19
ATOM     19  C   UNL     1      33.658 -14.874 -24.763  0.00  0.00    -0.050 C 
BRANCH  19  20
ATOM     20  N   UNL     1      33.981 -15.874 -23.748  0.00  0.00    +0.387 N 
ATOM     21  N   UNL     1      35.757 -17.759 -22.464  0.00  0.00    +0.384 N 
ATOM     22  C   UNL     1      34.303 -17.164 -24.371  0.00  0.00    -0.100 C 
ATOM     23  C   UNL     1      35.092 -15.420 -22.903  0.00  0.00    -0.100 C 
ATOM     24  C   UNL     1      34.646 -18.213 -23.309  0.00  0.00    -0.101 C 
ATOM     25  C   UNL     1      35.433 -16.471 -21.840  0.00  0.00    -0.101 C 
ATOM     26  H   UNL     1      33.158 -16.000 -23.157  0.00  0.00    -0.079 HD
ATOM     27  H   UNL     1      36.579 -17.632 -23.055  0.00  0.00    -0.080 HD
BRANCH  21  28
ATOM     28  C   UNL     1      36.081 -18.760 -21.449  0.00  0.00    -0.078 C 
ATOM     29  C   UNL     1      34.828 -19.448 -20.937  0.00  0.00    -0.025 C 
ENDBRANCH  21  28
ENDBRANCH  19  20
ENDBRANCH  13  19
ENDBRANCH   5  16
BRANCH   2  30
ATOM     30  C   UNL     1      32.286  -3.900 -23.170  0.00  0.00    +0.093 C 
ATOM     31  C   UNL     1      31.054  -3.535 -22.345  0.00  0.00    +0.026 C 
BRANCH  30  32
ATOM     32  C   UNL     1      32.231  -3.372 -24.586  0.00  0.00    -0.005 C 
ATOM     33  C   UNL     1      33.088  -3.899 -25.538  0.00  0.00    -0.003 C 
ATOM     34  C   UNL     1      31.327  -2.373 -24.901  0.00  0.00    -0.003 C 
ATOM     35  C   UNL     1      33.038  -3.413 -26.843  0.00  0.00    -0.000 C 
ATOM     36  C   UNL     1      31.277  -1.886 -26.207  0.00  0.00    -0.000 C 
ATOM     37  C   UNL     1      32.132  -2.405 -27.178  0.00  0.00    -0.000 C 
ENDBRANCH  30  32
ENDBRANCH   2  30
TORSDOF 6
ENDMDL
MODEL 9
REMARK VINA RESULT:      -9.3      4.806      8.976
REMARK  Name = 10297043
REMARK  6 active torsions:
REMARK  status: ('A' for Active; 'I' for Inactive)
REMARK    1  A    between atoms: N_2  and  C_30
REMARK    2  A    between atoms: C_5  and  C_16
REMARK    3  A    between atoms: C_13  and  C_19
REMARK    4  A    between atoms: C_19  and  N_20
REMARK    5  A    between atoms: N_21  and  C_28
REMARK    6  A    between atoms: C_30  and  C_32
REMARK                            x       y       z     vdW  Elec       q    Type
REMARK                         _______ _______ _______ _____ _____    ______ ____
ROOT
ATOM      1  N   UNL     1      33.897 -15.940 -24.572  0.00  0.00    -0.301 N 
ATOM      2  N   UNL     1      35.859 -18.083 -20.921  0.00  0.00    -0.319 N 
ATOM      3  N   UNL     1      34.082 -18.338 -24.750  0.00  0.00    -0.233 NA
ATOM      4  N   UNL     1      35.116 -19.359 -22.797  0.00  0.00    -0.233 NA
ATOM      5  C   UNL     1      34.226 -14.982 -23.648  0.00  0.00    +0.046 C 
ATOM      6  C   UNL     1      34.830 -17.003 -22.845  0.00  0.00    +0.131 C 
ATOM      7  C   UNL     1      34.806 -15.612 -22.567  0.00  0.00    +0.003 C 
ATOM      8  C   UNL     1      34.258 -17.175 -24.100  0.00  0.00    +0.117 C 
ATOM      9  C   UNL     1      35.267 -18.156 -22.194  0.00  0.00    +0.113 C 
ATOM     10  C   UNL     1      34.542 -19.375 -24.021  0.00  0.00    +0.252 C 
ATOM     11  H   UNL     1      33.468 -15.767 -25.441  0.00  0.00    +0.153 HD
ATOM     12  H   UNL     1      35.959 -17.198 -20.500  0.00  0.00    +0.148 HD
ENDROOT
BRANCH   5  16
ATOM     13  C   UNL     1      33.467 -10.882 -24.310  0.00  0.00    -0.043 C 
ATOM     14  C   UNL     1      33.570 -11.746 -25.394  0.00  0.00    -0.006 C 
ATOM     15  C   UNL     1      33.611 -11.353 -23.010  0.00  0.00    -0.006 C 
ATOM     16  C   UNL     1      33.967 -13.581 -23.873  0.00  0.00    +0.013 C 
ATOM     17  C   UNL     1      33.820 -13.101 -25.174  0.00  0.00    +0.001 C 
ATOM     18  C   UNL     1      33.861 -12.708 -22.792  0.00  0.00    +0.001 C 
BRANCH  13  19
ATOM     19  C   UNL     1      33.198  -9.423 -24.545  0.00  0.00    -0.050 C 
BRANCH  19  20
ATOM     20  N   UNL     1      32.974  -8.701 -23.295  0.00  0.00    +0.387 N 
ATOM     21  N   UNL     1      32.517  -6.295 -21.759  0.00  0.00    +0.384 N 
ATOM     22  C   UNL     1      34.054  -7.735 -23.051  0.00  0.00    -0.100 C 
ATOM     23  C   UNL     1      31.672  -8.022 -23.311  0.00  0.00    -0.100 C 
ATOM     24  C   UNL     1      33.819  -6.973 -21.743  0.00  0.00    -0.101 C 
ATOM     25  C   UNL     1      31.439  -7.260 -22.001  0.00  0.00    -0.101 C 
ATOM     26  H   UNL     1      32.973  -9.381 -22.534  0.00  0.00    -0.079 HD
ATOM     27  H   UNL     1      32.518  -5.616 -22.521  0.00  0.00    -0.080 HD
BRANCH  21  28
ATOM     28  C   UNL     1      32.294  -5.570 -20.509  0.00  0.00    -0.078 C 
ATOM     29  C   UNL     1      32.426  -6.491 -19.309  0.00  0.00    -0.025 C 
ENDBRANCH  21  28
ENDBRANCH  19  20
ENDBRANCH  13  19
ENDBRANCH   5  16
BRANCH   2  30
ATOM     30  C   UNL     1      36.325 -19.234 -20.208  0.00  0.00    +0.093 C 
ATOM     31  C   UNL     1      37.398 -19.936 -21.037  0.00  0.00    +0.026 C 
BRANCH  30  32
ATOM     32  C   UNL     1      35.163 -20.137 -19.853  0.00  0.00    -0.005 C 
ATOM     33  C   UNL     1      35.403 -21.294 -19.132  0.00  0.00    -0.003 C 
ATOM     34  C   UNL     1      33.887 -19.788 -20.258  0.00  0.00    -0.003 C 
ATOM     35  C   UNL     1      34.334 -22.126 -18.805  0.00  0.00    -0.000 C 
ATOM     36  C   UNL     1      32.817 -20.620 -19.931  0.00  0.00    -0.000 C 
ATOM     37  C   UNL     1      33.040 -21.790 -19.205  0.00  0.00    -0.000 C 
ENDBRANCH  30  32
ENDBRANCH   2  30
TORSDOF 6
ENDMDL
