MODEL 1
REMARK VINA RESULT:     -11.3      0.000      0.000
REMARK  Name = 10250490
REMARK  6 active torsions:
REMARK  status: ('A' for Active; 'I' for Inactive)
REMARK    1  A    between atoms: N_2  and  C_18
REMARK    2  A    between atoms: C_3  and  C_6
REMARK    3  A    between atoms: C_5  and  N_12
REMARK    4  A    between atoms: C_18  and  C_19
REMARK    5  A    between atoms: C_19  and  N_21
REMARK    6  A    between atoms: C_22  and  C_26
REMARK                            x       y       z     vdW  Elec       q    Type
REMARK                         _______ _______ _______ _____ _____    ______ ____
ROOT
ATOM      1  O   UNL     1      33.801 -23.625 -17.538  0.00  0.00    -0.270 OA
ATOM      2  N   UNL     1      35.551 -22.512 -16.502  0.00  0.00    -0.299 N 
ATOM      3  C   UNL     1      34.615 -22.685 -17.528  0.00  0.00    +0.246 C 
ATOM      4  H   UNL     1      36.166 -21.745 -16.556  0.00  0.00    +0.150 HD
ENDROOT
BRANCH   3   6
ATOM      5  C   UNL     1      34.692 -19.868 -20.702  0.00  0.00    +0.058 C 
ATOM      6  C   UNL     1      34.642 -21.721 -18.616  0.00  0.00    +0.053 C 
ATOM      7  C   UNL     1      35.887 -20.338 -20.156  0.00  0.00    +0.015 C 
ATOM      8  C   UNL     1      33.472 -20.326 -20.205  0.00  0.00    +0.015 C 
ATOM      9  C   UNL     1      35.862 -21.264 -19.113  0.00  0.00    +0.006 C 
ATOM     10  C   UNL     1      33.447 -21.252 -19.161  0.00  0.00    +0.006 C 
BRANCH   5  12
ATOM     11  O   UNL     1      35.471 -17.094 -20.453  0.00  0.00    -0.269 OA
ATOM     12  N   UNL     1      34.719 -18.905 -21.785  0.00  0.00    -0.233 N 
ATOM     13  C   UNL     1      35.161 -17.579 -21.541  0.00  0.00    +0.257 C 
ATOM     14  C   UNL     1      34.292 -19.266 -23.065  0.00  0.00    +0.072 C 
ATOM     15  C   UNL     1      35.203 -16.663 -22.723  0.00  0.00    +0.059 C 
ATOM     16  C   UNL     1      34.307 -18.418 -24.100  0.00  0.00    +0.017 C 
ATOM     17  C   UNL     1      34.784 -17.079 -23.921  0.00  0.00    +0.006 C 
ENDBRANCH   5  12
ENDBRANCH   3   6
BRANCH   2  18
ATOM     18  C   UNL     1      35.665 -23.399 -15.366  0.00  0.00    +0.111 C 
BRANCH  18  19
ATOM     19  C   UNL     1      34.724 -23.011 -14.238  0.00  0.00    +0.111 C 
BRANCH  19  21
ATOM     20  O   UNL     1      32.835 -24.526 -12.697  0.00  0.00    -0.270 OA
ATOM     21  N   UNL     1      33.348 -23.263 -14.573  0.00  0.00    -0.299 N 
ATOM     22  C   UNL     1      32.505 -24.012 -13.762  0.00  0.00    +0.252 C 
ATOM     23  H   UNL     1      32.990 -22.890 -15.412  0.00  0.00    +0.150 HD
BRANCH  22  26
ATOM     24 CL   UNL     1      27.872 -23.535 -16.644  0.00  0.00    -0.075 Cl
ATOM     25  S   UNL     1      30.620 -23.246 -15.554  0.00  0.00    -0.071 S 
ATOM     26  C   UNL     1      31.118 -24.204 -14.262  0.00  0.00    +0.084 C 
ATOM     27  C   UNL     1      30.206 -25.067 -13.790  0.00  0.00    +0.012 C 
ATOM     28  C   UNL     1      28.994 -24.952 -14.532  0.00  0.00    +0.019 C 
ATOM     29  C   UNL     1      29.082 -23.999 -15.522  0.00  0.00    +0.087 C 
ENDBRANCH  22  26
ENDBRANCH  19  21
ENDBRANCH  18  19
ENDBRANCH   2  18
TORSDOF 6
ENDMDL
MODEL 2
REMARK VINA RESULT:     -11.1      2.954      4.107
REMARK  Name = 10250490
REMARK  6 active torsions:
REMARK  status: ('A' for Active; 'I' for Inactive)
REMARK    1  A    between atoms: N_2  and  C_18
REMARK    2  A    between atoms: C_3  and  C_6
REMARK    3  A    between atoms: C_5  and  N_12
REMARK    4  A    between atoms: C_18  and  C_19
REMARK    5  A    between atoms: C_19  and  N_21
REMARK    6  A    between atoms: C_22  and  C_26
REMARK                            x       y       z     vdW  Elec       q    Type
REMARK                         _______ _______ _______ _____ _____    ______ ____
ROOT
ATOM      1  O   UNL     1      34.260 -23.558 -17.039  0.00  0.00    -0.270 OA
ATOM      2  N   UNL     1      32.116 -22.698 -16.849  0.00  0.00    -0.299 N 
ATOM      3  C   UNL     1      33.389 -22.761 -17.427  0.00  0.00    +0.246 C 
ATOM      4  H   UNL     1      31.473 -22.042 -17.206  0.00  0.00    +0.150 HD
ENDROOT
BRANCH   3   6
ATOM      5  C   UNL     1      34.216 -20.034 -20.572  0.00  0.00    +0.058 C 
ATOM      6  C   UNL     1      33.671 -21.826 -18.504  0.00  0.00    +0.053 C 
ATOM      7  C   UNL     1      32.900 -20.252 -20.166  0.00  0.00    +0.015 C 
ATOM      8  C   UNL     1      35.261 -20.712 -19.943  0.00  0.00    +0.015 C 
ATOM      9  C   UNL     1      32.628 -21.148 -19.132  0.00  0.00    +0.006 C 
ATOM     10  C   UNL     1      34.989 -21.608 -18.910  0.00  0.00    +0.006 C 
BRANCH   5  12
ATOM     11  O   UNL     1      35.651 -17.538 -20.291  0.00  0.00    -0.269 OA
ATOM     12  N   UNL     1      34.498 -19.103 -21.648  0.00  0.00    -0.233 N 
ATOM     13  C   UNL     1      35.249 -17.928 -21.387  0.00  0.00    +0.257 C 
ATOM     14  C   UNL     1      34.017 -19.344 -22.936  0.00  0.00    +0.072 C 
ATOM     15  C   UNL     1      35.536 -17.047 -22.562  0.00  0.00    +0.059 C 
ATOM     16  C   UNL     1      34.258 -18.523 -23.965  0.00  0.00    +0.017 C 
ATOM     17  C   UNL     1      35.047 -17.343 -23.769  0.00  0.00    +0.006 C 
ENDBRANCH   5  12
ENDBRANCH   3   6
BRANCH   2  18
ATOM     18  C   UNL     1      31.691 -23.543 -15.756  0.00  0.00    +0.111 C 
BRANCH  18  19
ATOM     19  C   UNL     1      31.993 -22.925 -14.401  0.00  0.00    +0.111 C 
BRANCH  19  21
ATOM     20  O   UNL     1      32.912 -24.700 -12.342  0.00  0.00    -0.270 OA
ATOM     21  N   UNL     1      33.357 -23.143 -14.001  0.00  0.00    -0.299 N 
ATOM     22  C   UNL     1      33.709 -24.026 -12.988  0.00  0.00    +0.252 C 
ATOM     23  H   UNL     1      34.070 -22.645 -14.464  0.00  0.00    +0.150 HD
BRANCH  22  26
ATOM     24 CL   UNL     1      39.050 -25.205 -13.256  0.00  0.00    -0.075 Cl
ATOM     25  S   UNL     1      36.136 -24.951 -13.767  0.00  0.00    -0.071 S 
ATOM     26  C   UNL     1      35.158 -24.119 -12.676  0.00  0.00    +0.084 C 
ATOM     27  C   UNL     1      35.785 -23.606 -11.606  0.00  0.00    +0.012 C 
ATOM     28  C   UNL     1      37.178 -23.907 -11.663  0.00  0.00    +0.019 C 
ATOM     29  C   UNL     1      37.504 -24.633 -12.787  0.00  0.00    +0.087 C 
ENDBRANCH  22  26
ENDBRANCH  19  21
ENDBRANCH  18  19
ENDBRANCH   2  18
TORSDOF 6
ENDMDL
MODEL 3
REMARK VINA RESULT:     -10.7      3.808      5.197
REMARK  Name = 10250490
REMARK  6 active torsions:
REMARK  status: ('A' for Active; 'I' for Inactive)
REMARK    1  A    between atoms: N_2  and  C_18
REMARK    2  A    between atoms: C_3  and  C_6
REMARK    3  A    between atoms: C_5  and  N_12
REMARK    4  A    between atoms: C_18  and  C_19
REMARK    5  A    between atoms: C_19  and  N_21
REMARK    6  A    between atoms: C_22  and  C_26
REMARK                            x       y       z     vdW  Elec       q    Type
REMARK                         _______ _______ _______ _____ _____    ______ ____
ROOT
ATOM      1  O   UNL     1      33.496 -24.049 -18.039  0.00  0.00    -0.270 OA
ATOM      2  N   UNL     1      34.421 -22.630 -16.458  0.00  0.00    -0.299 N 
ATOM      3  C   UNL     1      33.985 -22.944 -17.749  0.00  0.00    +0.246 C 
ATOM      4  H   UNL     1      34.798 -21.734 -16.297  0.00  0.00    +0.150 HD
ENDROOT
BRANCH   3   6
ATOM      5  C   UNL     1      34.456 -19.950 -20.722  0.00  0.00    +0.058 C 
ATOM      6  C   UNL     1      34.147 -21.919 -18.768  0.00  0.00    +0.053 C 
ATOM      7  C   UNL     1      35.576 -20.595 -20.196  0.00  0.00    +0.015 C 
ATOM      8  C   UNL     1      33.181 -20.291 -20.270  0.00  0.00    +0.015 C 
ATOM      9  C   UNL     1      35.421 -21.579 -19.220  0.00  0.00    +0.006 C 
ATOM     10  C   UNL     1      33.026 -21.275 -19.293  0.00  0.00    +0.006 C 
BRANCH   5  12
ATOM     11  O   UNL     1      35.495 -17.291 -20.262  0.00  0.00    -0.269 OA
ATOM     12  N   UNL     1      34.618 -18.927 -21.736  0.00  0.00    -0.233 N 
ATOM     13  C   UNL     1      35.179 -17.671 -21.389  0.00  0.00    +0.257 C 
ATOM     14  C   UNL     1      34.205 -19.160 -23.049  0.00  0.00    +0.072 C 
ATOM     15  C   UNL     1      35.355 -16.689 -22.505  0.00  0.00    +0.059 C 
ATOM     16  C   UNL     1      34.342 -18.253 -24.023  0.00  0.00    +0.017 C 
ATOM     17  C   UNL     1      34.941 -16.984 -23.740  0.00  0.00    +0.006 C 
ENDBRANCH   5  12
ENDBRANCH   3   6
BRANCH   2  18
ATOM     18  C   UNL     1      34.349 -23.549 -15.344  0.00  0.00    +0.111 C 
BRANCH  18  19
ATOM     19  C   UNL     1      35.388 -23.242 -14.279  0.00  0.00    +0.111 C 
BRANCH  19  21
ATOM     20  O   UNL     1      38.169 -23.035 -14.959  0.00  0.00    -0.270 OA
ATOM     21  N   UNL     1      36.377 -24.282 -14.176  0.00  0.00    -0.299 N 
ATOM     22  C   UNL     1      37.706 -24.089 -14.530  0.00  0.00    +0.252 C 
ATOM     23  H   UNL     1      36.100 -25.165 -13.841  0.00  0.00    +0.150 HD
BRANCH  22  26
ATOM     24 CL   UNL     1      39.541 -29.214 -13.932  0.00  0.00    -0.075 Cl
ATOM     25  S   UNL     1      37.868 -26.777 -14.219  0.00  0.00    -0.071 S 
ATOM     26  C   UNL     1      38.598 -25.269 -14.391  0.00  0.00    +0.084 C 
ATOM     27  C   UNL     1      39.940 -25.268 -14.386  0.00  0.00    +0.012 C 
ATOM     28  C   UNL     1      40.430 -26.597 -14.229  0.00  0.00    +0.019 C 
ATOM     29  C   UNL     1      39.410 -27.516 -14.127  0.00  0.00    +0.087 C 
ENDBRANCH  22  26
ENDBRANCH  19  21
ENDBRANCH  18  19
ENDBRANCH   2  18
TORSDOF 6
ENDMDL
MODEL 4
REMARK VINA RESULT:     -10.6      1.035      1.670
REMARK  Name = 10250490
REMARK  6 active torsions:
REMARK  status: ('A' for Active; 'I' for Inactive)
REMARK    1  A    between atoms: N_2  and  C_18
REMARK    2  A    between atoms: C_3  and  C_6
REMARK    3  A    between atoms: C_5  and  N_12
REMARK    4  A    between atoms: C_18  and  C_19
REMARK    5  A    between atoms: C_19  and  N_21
REMARK    6  A    between atoms: C_22  and  C_26
REMARK                            x       y       z     vdW  Elec       q    Type
REMARK                         _______ _______ _______ _____ _____    ______ ____
ROOT
ATOM      1  O   UNL     1      34.098 -23.275 -18.020  0.00  0.00    -0.270 OA
ATOM      2  N   UNL     1      35.776 -22.140 -16.892  0.00  0.00    -0.299 N 
ATOM      3  C   UNL     1      34.870 -22.303 -17.946  0.00  0.00    +0.246 C 
ATOM      4  H   UNL     1      36.359 -21.346 -16.896  0.00  0.00    +0.150 HD
ENDROOT
BRANCH   3   6
ATOM      5  C   UNL     1      34.899 -19.341 -20.986  0.00  0.00    +0.058 C 
ATOM      6  C   UNL     1      34.879 -21.288 -18.987  0.00  0.00    +0.053 C 
ATOM      7  C   UNL     1      33.687 -19.829 -20.498  0.00  0.00    +0.015 C 
ATOM      8  C   UNL     1      36.102 -19.826 -20.472  0.00  0.00    +0.015 C 
ATOM      9  C   UNL     1      33.677 -20.802 -19.499  0.00  0.00    +0.006 C 
ATOM     10  C   UNL     1      36.092 -20.800 -19.474  0.00  0.00    +0.006 C 
BRANCH   5  12
ATOM     11  O   UNL     1      34.591 -19.850 -23.816  0.00  0.00    -0.269 OA
ATOM     12  N   UNL     1      34.908 -18.330 -22.025  0.00  0.00    -0.233 N 
ATOM     13  C   UNL     1      34.706 -18.706 -23.379  0.00  0.00    +0.257 C 
ATOM     14  C   UNL     1      35.138 -16.990 -21.708  0.00  0.00    +0.072 C 
ATOM     15  C   UNL     1      34.683 -17.596 -24.381  0.00  0.00    +0.059 C 
ATOM     16  C   UNL     1      35.146 -16.018 -22.627  0.00  0.00    +0.017 C 
ATOM     17  C   UNL     1      34.904 -16.334 -24.003  0.00  0.00    +0.006 C 
ENDBRANCH   5  12
ENDBRANCH   3   6
BRANCH   2  18
ATOM     18  C   UNL     1      35.903 -23.074 -15.796  0.00  0.00    +0.111 C 
BRANCH  18  19
ATOM     19  C   UNL     1      35.032 -22.692 -14.612  0.00  0.00    +0.111 C 
BRANCH  19  21
ATOM     20  O   UNL     1      33.436 -24.391 -12.936  0.00  0.00    -0.270 OA
ATOM     21  N   UNL     1      33.655 -23.052 -14.817  0.00  0.00    -0.299 N 
ATOM     22  C   UNL     1      32.960 -23.885 -13.949  0.00  0.00    +0.252 C 
ATOM     23  H   UNL     1      33.186 -22.694 -15.606  0.00  0.00    +0.150 HD
BRANCH  22  26
ATOM     24 CL   UNL     1      28.049 -23.759 -16.368  0.00  0.00    -0.075 Cl
ATOM     25  S   UNL     1      30.858 -23.262 -15.544  0.00  0.00    -0.071 S 
ATOM     26  C   UNL     1      31.551 -24.182 -14.315  0.00  0.00    +0.084 C 
ATOM     27  C   UNL     1      30.757 -25.115 -13.767  0.00  0.00    +0.012 C 
ATOM     28  C   UNL     1      29.474 -25.092 -14.388  0.00  0.00    +0.019 C 
ATOM     29  C   UNL     1      29.393 -24.131 -15.372  0.00  0.00    +0.087 C 
ENDBRANCH  22  26
ENDBRANCH  19  21
ENDBRANCH  18  19
ENDBRANCH   2  18
TORSDOF 6
ENDMDL
MODEL 5
REMARK VINA RESULT:     -10.5      7.039     11.109
REMARK  Name = 10250490
REMARK  6 active torsions:
REMARK  status: ('A' for Active; 'I' for Inactive)
REMARK    1  A    between atoms: N_2  and  C_18
REMARK    2  A    between atoms: C_3  and  C_6
REMARK    3  A    between atoms: C_5  and  N_12
REMARK    4  A    between atoms: C_18  and  C_19
REMARK    5  A    between atoms: C_19  and  N_21
REMARK    6  A    between atoms: C_22  and  C_26
REMARK                            x       y       z     vdW  Elec       q    Type
REMARK                         _______ _______ _______ _____ _____    ______ ____
ROOT
ATOM      1  O   UNL     1      33.558 -14.167 -21.663  0.00  0.00    -0.270 OA
ATOM      2  N   UNL     1      33.185 -13.870 -23.931  0.00  0.00    -0.299 N 
ATOM      3  C   UNL     1      33.244 -13.422 -22.607  0.00  0.00    +0.246 C 
ATOM      4  H   UNL     1      32.930 -13.227 -24.632  0.00  0.00    +0.150 HD
ENDROOT
BRANCH   3   6
ATOM      5  C   UNL     1      32.226  -9.363 -21.899  0.00  0.00    +0.058 C 
ATOM      6  C   UNL     1      32.895 -12.031 -22.366  0.00  0.00    +0.053 C 
ATOM      7  C   UNL     1      33.140  -9.689 -22.901  0.00  0.00    +0.015 C 
ATOM      8  C   UNL     1      31.646 -10.372 -21.130  0.00  0.00    +0.015 C 
ATOM      9  C   UNL     1      33.474 -11.023 -23.134  0.00  0.00    +0.006 C 
ATOM     10  C   UNL     1      31.980 -11.706 -21.363  0.00  0.00    +0.006 C 
BRANCH   5  12
ATOM     11  O   UNL     1      32.811  -7.893 -19.478  0.00  0.00    -0.269 OA
ATOM     12  N   UNL     1      31.880  -7.976 -21.656  0.00  0.00    -0.233 N 
ATOM     13  C   UNL     1      32.260  -7.355 -20.438  0.00  0.00    +0.257 C 
ATOM     14  C   UNL     1      31.155  -7.251 -22.603  0.00  0.00    +0.072 C 
ATOM     15  C   UNL     1      31.906  -5.909 -20.289  0.00  0.00    +0.059 C 
ATOM     16  C   UNL     1      30.820  -5.967 -22.433  0.00  0.00    +0.017 C 
ATOM     17  C   UNL     1      31.215  -5.277 -21.241  0.00  0.00    +0.006 C 
ENDBRANCH   5  12
ENDBRANCH   3   6
BRANCH   2  18
ATOM     18  C   UNL     1      33.480 -15.229 -24.329  0.00  0.00    +0.111 C 
BRANCH  18  19
ATOM     19  C   UNL     1      34.973 -15.509 -24.355  0.00  0.00    +0.111 C 
BRANCH  19  21
ATOM     20  O   UNL     1      34.385 -18.311 -24.156  0.00  0.00    -0.270 OA
ATOM     21  N   UNL     1      35.374 -16.397 -23.297  0.00  0.00    -0.299 N 
ATOM     22  C   UNL     1      35.041 -17.746 -23.285  0.00  0.00    +0.252 C 
ATOM     23  H   UNL     1      35.904 -16.033 -22.551  0.00  0.00    +0.150 HD
BRANCH  22  26
ATOM     24 CL   UNL     1      35.254 -21.259 -19.090  0.00  0.00    -0.075 Cl
ATOM     25  S   UNL     1      34.439 -19.643 -21.444  0.00  0.00    -0.071 S 
ATOM     26  C   UNL     1      35.507 -18.523 -22.108  0.00  0.00    +0.084 C 
ATOM     27  C   UNL     1      36.703 -18.431 -21.505  0.00  0.00    +0.012 C 
ATOM     28  C   UNL     1      36.771 -19.341 -20.410  0.00  0.00    +0.019 C 
ATOM     29  C   UNL     1      35.607 -20.063 -20.264  0.00  0.00    +0.087 C 
ENDBRANCH  22  26
ENDBRANCH  19  21
ENDBRANCH  18  19
ENDBRANCH   2  18
TORSDOF 6
ENDMDL
MODEL 6
REMARK VINA RESULT:     -10.4      5.575      9.124
REMARK  Name = 10250490
REMARK  6 active torsions:
REMARK  status: ('A' for Active; 'I' for Inactive)
REMARK    1  A    between atoms: N_2  and  C_18
REMARK    2  A    between atoms: C_3  and  C_6
REMARK    3  A    between atoms: C_5  and  N_12
REMARK    4  A    between atoms: C_18  and  C_19
REMARK    5  A    between atoms: C_19  and  N_21
REMARK    6  A    between atoms: C_22  and  C_26
REMARK                            x       y       z     vdW  Elec       q    Type
REMARK                         _______ _______ _______ _____ _____    ______ ____
ROOT
ATOM      1  O   UNL     1      33.821 -15.523 -25.479  0.00  0.00    -0.270 OA
ATOM      2  N   UNL     1      34.562 -15.953 -23.325  0.00  0.00    -0.299 N 
ATOM      3  C   UNL     1      34.054 -15.119 -24.327  0.00  0.00    +0.246 C 
ATOM      4  H   UNL     1      34.723 -15.568 -22.433  0.00  0.00    +0.150 HD
ENDROOT
BRANCH   3   6
ATOM      5  C   UNL     1      33.380 -11.057 -23.295  0.00  0.00    +0.058 C 
ATOM      6  C   UNL     1      33.823 -13.727 -23.972  0.00  0.00    +0.053 C 
ATOM      7  C   UNL     1      33.377 -12.039 -22.304  0.00  0.00    +0.015 C 
ATOM      8  C   UNL     1      33.605 -11.411 -24.626  0.00  0.00    +0.015 C 
ATOM      9  C   UNL     1      33.599 -13.373 -22.643  0.00  0.00    +0.006 C 
ATOM     10  C   UNL     1      33.826 -12.746 -24.965  0.00  0.00    +0.006 C 
BRANCH   5  12
ATOM     11  O   UNL     1      35.338  -8.936 -23.475  0.00  0.00    -0.269 OA
ATOM     12  N   UNL     1      33.148  -9.670 -22.943  0.00  0.00    -0.233 N 
ATOM     13  C   UNL     1      34.182  -8.714 -23.115  0.00  0.00    +0.257 C 
ATOM     14  C   UNL     1      31.919  -9.270 -22.413  0.00  0.00    +0.072 C 
ATOM     15  C   UNL     1      33.844  -7.298 -22.772  0.00  0.00    +0.059 C 
ATOM     16  C   UNL     1      31.651  -8.002 -22.082  0.00  0.00    +0.017 C 
ATOM     17  C   UNL     1      32.644  -6.987 -22.275  0.00  0.00    +0.006 C 
ENDBRANCH   5  12
ENDBRANCH   3   6
BRANCH   2  18
ATOM     18  C   UNL     1      34.865 -17.352 -23.528  0.00  0.00    +0.111 C 
BRANCH  18  19
ATOM     19  C   UNL     1      35.697 -17.930 -22.394  0.00  0.00    +0.111 C 
BRANCH  19  21
ATOM     20  O   UNL     1      36.712 -19.680 -20.359  0.00  0.00    -0.270 OA
ATOM     21  N   UNL     1      34.927 -18.807 -21.554  0.00  0.00    -0.299 N 
ATOM     22  C   UNL     1      35.508 -19.622 -20.591  0.00  0.00    +0.252 C 
ATOM     23  H   UNL     1      33.949 -18.830 -21.667  0.00  0.00    +0.150 HD
BRANCH  22  26
ATOM     24 CL   UNL     1      33.506 -23.428 -17.200  0.00  0.00    -0.075 Cl
ATOM     25  S   UNL     1      35.258 -21.634 -18.791  0.00  0.00    -0.071 S 
ATOM     26  C   UNL     1      34.578 -20.490 -19.823  0.00  0.00    +0.084 C 
ATOM     27  C   UNL     1      33.237 -20.464 -19.860  0.00  0.00    +0.012 C 
ATOM     28  C   UNL     1      32.703 -21.451 -18.982  0.00  0.00    +0.019 C 
ATOM     29  C   UNL     1      33.692 -22.159 -18.337  0.00  0.00    +0.087 C 
ENDBRANCH  22  26
ENDBRANCH  19  21
ENDBRANCH  18  19
ENDBRANCH   2  18
TORSDOF 6
ENDMDL
MODEL 7
REMARK VINA RESULT:     -10.3      5.610      9.202
REMARK  Name = 10250490
REMARK  6 active torsions:
REMARK  status: ('A' for Active; 'I' for Inactive)
REMARK    1  A    between atoms: N_2  and  C_18
REMARK    2  A    between atoms: C_3  and  C_6
REMARK    3  A    between atoms: C_5  and  N_12
REMARK    4  A    between atoms: C_18  and  C_19
REMARK    5  A    between atoms: C_19  and  N_21
REMARK    6  A    between atoms: C_22  and  C_26
REMARK                            x       y       z     vdW  Elec       q    Type
REMARK                         _______ _______ _______ _____ _____    ______ ____
ROOT
ATOM      1  O   UNL     1      33.814 -15.419 -25.469  0.00  0.00    -0.270 OA
ATOM      2  N   UNL     1      34.621 -15.847 -23.338  0.00  0.00    -0.299 N 
ATOM      3  C   UNL     1      34.111 -15.007 -24.334  0.00  0.00    +0.246 C 
ATOM      4  H   UNL     1      34.835 -15.455 -22.461  0.00  0.00    +0.150 HD
ENDROOT
BRANCH   3   6
ATOM      5  C   UNL     1      33.664 -10.902 -23.351  0.00  0.00    +0.058 C 
ATOM      6  C   UNL     1      33.959 -13.600 -23.997  0.00  0.00    +0.053 C 
ATOM      7  C   UNL     1      33.783 -11.854 -22.338  0.00  0.00    +0.015 C 
ATOM      8  C   UNL     1      33.693 -11.300 -24.688  0.00  0.00    +0.015 C 
ATOM      9  C   UNL     1      33.930 -13.202 -22.661  0.00  0.00    +0.006 C 
ATOM     10  C   UNL     1      33.840 -12.649 -25.011  0.00  0.00    +0.006 C 
BRANCH   5  12
ATOM     11  O   UNL     1      31.342  -9.733 -22.084  0.00  0.00    -0.269 OA
ATOM     12  N   UNL     1      33.509  -9.500 -23.015  0.00  0.00    -0.233 N 
ATOM     13  C   UNL     1      32.334  -9.056 -22.356  0.00  0.00    +0.257 C 
ATOM     14  C   UNL     1      34.500  -8.577 -23.354  0.00  0.00    +0.072 C 
ATOM     15  C   UNL     1      32.276  -7.604 -22.003  0.00  0.00    +0.059 C 
ATOM     16  C   UNL     1      34.411  -7.275 -23.057  0.00  0.00    +0.017 C 
ATOM     17  C   UNL     1      33.266  -6.779 -22.354  0.00  0.00    +0.006 C 
ENDBRANCH   5  12
ENDBRANCH   3   6
BRANCH   2  18
ATOM     18  C   UNL     1      34.852 -17.261 -23.527  0.00  0.00    +0.111 C 
BRANCH  18  19
ATOM     19  C   UNL     1      35.678 -17.864 -22.403  0.00  0.00    +0.111 C 
BRANCH  19  21
ATOM     20  O   UNL     1      36.665 -19.553 -20.303  0.00  0.00    -0.270 OA
ATOM     21  N   UNL     1      34.903 -18.758 -21.584  0.00  0.00    -0.299 N 
ATOM     22  C   UNL     1      35.470 -19.541 -20.587  0.00  0.00    +0.252 C 
ATOM     23  H   UNL     1      33.932 -18.816 -21.739  0.00  0.00    +0.150 HD
BRANCH  22  26
ATOM     24 CL   UNL     1      33.460 -23.429 -17.296  0.00  0.00    -0.075 Cl
ATOM     25  S   UNL     1      35.216 -21.589 -18.828  0.00  0.00    -0.071 S 
ATOM     26  C   UNL     1      34.538 -20.432 -19.847  0.00  0.00    +0.084 C 
ATOM     27  C   UNL     1      33.198 -20.417 -19.902  0.00  0.00    +0.012 C 
ATOM     28  C   UNL     1      32.662 -21.426 -19.050  0.00  0.00    +0.019 C 
ATOM     29  C   UNL     1      33.649 -22.137 -18.405  0.00  0.00    +0.087 C 
ENDBRANCH  22  26
ENDBRANCH  19  21
ENDBRANCH  18  19
ENDBRANCH   2  18
TORSDOF 6
ENDMDL
MODEL 8
REMARK VINA RESULT:     -10.2      4.870      8.229
REMARK  Name = 10250490
REMARK  6 active torsions:
REMARK  status: ('A' for Active; 'I' for Inactive)
REMARK    1  A    between atoms: N_2  and  C_18
REMARK    2  A    between atoms: C_3  and  C_6
REMARK    3  A    between atoms: C_5  and  N_12
REMARK    4  A    between atoms: C_18  and  C_19
REMARK    5  A    between atoms: C_19  and  N_21
REMARK    6  A    between atoms: C_22  and  C_26
REMARK                            x       y       z     vdW  Elec       q    Type
REMARK                         _______ _______ _______ _____ _____    ______ ____
ROOT
ATOM      1  O   UNL     1      34.666 -16.737 -24.904  0.00  0.00    -0.270 OA
ATOM      2  N   UNL     1      35.223 -16.925 -22.662  0.00  0.00    -0.299 N 
ATOM      3  C   UNL     1      34.736 -16.228 -23.772  0.00  0.00    +0.246 C 
ATOM      4  H   UNL     1      35.251 -16.461 -21.794  0.00  0.00    +0.150 HD
ENDROOT
BRANCH   3   6
ATOM      5  C   UNL     1      33.546 -12.202 -23.144  0.00  0.00    +0.058 C 
ATOM      6  C   UNL     1      34.327 -14.848 -23.558  0.00  0.00    +0.053 C 
ATOM      7  C   UNL     1      33.357 -12.799 -24.391  0.00  0.00    +0.015 C 
ATOM      8  C   UNL     1      34.125 -12.929 -22.104  0.00  0.00    +0.015 C 
ATOM      9  C   UNL     1      33.748 -14.122 -24.597  0.00  0.00    +0.006 C 
ATOM     10  C   UNL     1      34.516 -14.252 -22.311  0.00  0.00    +0.006 C 
BRANCH   5  12
ATOM     11  O   UNL     1      34.937  -9.874 -24.150  0.00  0.00    -0.269 OA
ATOM     12  N   UNL     1      33.141 -10.826 -22.931  0.00  0.00    -0.233 N 
ATOM     13  C   UNL     1      33.888  -9.770 -23.513  0.00  0.00    +0.257 C 
ATOM     14  C   UNL     1      32.031 -10.530 -22.137  0.00  0.00    +0.072 C 
ATOM     15  C   UNL     1      33.374  -8.384 -23.283  0.00  0.00    +0.059 C 
ATOM     16  C   UNL     1      31.610  -9.279 -21.917  0.00  0.00    +0.017 C 
ATOM     17  C   UNL     1      32.301  -8.176 -22.516  0.00  0.00    +0.006 C 
ENDBRANCH   5  12
ENDBRANCH   3   6
BRANCH   2  18
ATOM     18  C   UNL     1      35.689 -18.293 -22.719  0.00  0.00    +0.111 C 
BRANCH  18  19
ATOM     19  C   UNL     1      34.592 -19.288 -22.378  0.00  0.00    +0.111 C 
BRANCH  19  21
ATOM     20  O   UNL     1      32.707 -20.358 -20.497  0.00  0.00    -0.270 OA
ATOM     21  N   UNL     1      34.897 -20.040 -21.191  0.00  0.00    -0.299 N 
ATOM     22  C   UNL     1      33.913 -20.521 -20.335  0.00  0.00    +0.252 C 
ATOM     23  H   UNL     1      35.841 -20.222 -20.977  0.00  0.00    +0.150 HD
BRANCH  22  26
ATOM     24 CL   UNL     1      34.071 -23.562 -15.784  0.00  0.00    -0.075 Cl
ATOM     25  S   UNL     1      33.239 -22.053 -18.203  0.00  0.00    -0.071 S 
ATOM     26  C   UNL     1      34.393 -21.258 -19.138  0.00  0.00    +0.084 C 
ATOM     27  C   UNL     1      35.661 -21.362 -18.711  0.00  0.00    +0.012 C 
ATOM     28  C   UNL     1      35.715 -22.151 -17.525  0.00  0.00    +0.019 C 
ATOM     29  C   UNL     1      34.469 -22.591 -17.139  0.00  0.00    +0.087 C 
ENDBRANCH  22  26
ENDBRANCH  19  21
ENDBRANCH  18  19
ENDBRANCH   2  18
TORSDOF 6
ENDMDL
MODEL 9
REMARK VINA RESULT:     -10.1      8.026     13.230
REMARK  Name = 10250490
REMARK  6 active torsions:
REMARK  status: ('A' for Active; 'I' for Inactive)
REMARK    1  A    between atoms: N_2  and  C_18
REMARK    2  A    between atoms: C_3  and  C_6
REMARK    3  A    between atoms: C_5  and  N_12
REMARK    4  A    between atoms: C_18  and  C_19
REMARK    5  A    between atoms: C_19  and  N_21
REMARK    6  A    between atoms: C_22  and  C_26
REMARK                            x       y       z     vdW  Elec       q    Type
REMARK                         _______ _______ _______ _____ _____    ______ ____
ROOT
ATOM      1  O   UNL     1      33.781 -14.520 -25.304  0.00  0.00    -0.270 OA
ATOM      2  N   UNL     1      34.184 -13.134 -23.490  0.00  0.00    -0.299 N 
ATOM      3  C   UNL     1      34.124 -14.383 -24.117  0.00  0.00    +0.246 C 
ATOM      4  H   UNL     1      34.465 -13.097 -22.547  0.00  0.00    +0.150 HD
ENDROOT
BRANCH   3   6
ATOM      5  C   UNL     1      35.107 -17.770 -21.754  0.00  0.00    +0.058 C 
ATOM      6  C   UNL     1      34.462 -15.544 -23.308  0.00  0.00    +0.053 C 
ATOM      7  C   UNL     1      34.875 -17.916 -23.122  0.00  0.00    +0.015 C 
ATOM      8  C   UNL     1      35.017 -16.509 -21.164  0.00  0.00    +0.015 C 
ATOM      9  C   UNL     1      34.553 -16.803 -23.899  0.00  0.00    +0.006 C 
ATOM     10  C   UNL     1      34.694 -15.396 -21.940  0.00  0.00    +0.006 C 
BRANCH   5  12
ATOM     11  O   UNL     1      37.779 -18.538 -20.958  0.00  0.00    -0.269 OA
ATOM     12  N   UNL     1      35.441 -18.927 -20.947  0.00  0.00    -0.233 N 
ATOM     13  C   UNL     1      36.792 -19.174 -20.590  0.00  0.00    +0.257 C 
ATOM     14  C   UNL     1      34.445 -19.815 -20.537  0.00  0.00    +0.072 C 
ATOM     15  C   UNL     1      37.043 -20.362 -19.716  0.00  0.00    +0.059 C 
ATOM     16  C   UNL     1      34.699 -20.891 -19.783  0.00  0.00    +0.017 C 
ATOM     17  C   UNL     1      36.039 -21.166 -19.356  0.00  0.00    +0.006 C 
ENDBRANCH   5  12
ENDBRANCH   3   6
BRANCH   2  18
ATOM     18  C   UNL     1      33.857 -11.891 -24.152  0.00  0.00    +0.111 C 
BRANCH  18  19
ATOM     19  C   UNL     1      33.175 -10.905 -23.218  0.00  0.00    +0.111 C 
BRANCH  19  21
ATOM     20  O   UNL     1      32.512  -8.556 -21.708  0.00  0.00    -0.270 OA
ATOM     21  N   UNL     1      33.426  -9.541 -23.599  0.00  0.00    -0.299 N 
ATOM     22  C   UNL     1      33.068  -8.462 -22.799  0.00  0.00    +0.252 C 
ATOM     23  H   UNL     1      33.869  -9.365 -24.460  0.00  0.00    +0.150 HD
BRANCH  22  26
ATOM     24 CL   UNL     1      32.668  -3.200 -24.260  0.00  0.00    -0.075 Cl
ATOM     25  S   UNL     1      32.180  -5.933 -23.207  0.00  0.00    -0.071 S 
ATOM     26  C   UNL     1      33.372  -7.115 -23.346  0.00  0.00    +0.084 C 
ATOM     27  C   UNL     1      34.507  -6.729 -23.949  0.00  0.00    +0.012 C 
ATOM     28  C   UNL     1      34.416  -5.360 -24.335  0.00  0.00    +0.019 C 
ATOM     29  C   UNL     1      33.203  -4.805 -23.991  0.00  0.00    +0.087 C 
ENDBRANCH  22  26
ENDBRANCH  19  21
ENDBRANCH  18  19
ENDBRANCH   2  18
TORSDOF 6
ENDMDL
