MODEL 1
REMARK VINA RESULT:     -11.2      0.000      0.000
REMARK  Name = 4369498
REMARK  8 active torsions:
REMARK  status: ('A' for Active; 'I' for Inactive)
REMARK    1  A    between atoms: N_2  and  C_11
REMARK    2  A    between atoms: C_5  and  C_25
REMARK    3  A    between atoms: C_8  and  S_14
REMARK    4  A    between atoms: C_13  and  O_23
REMARK    5  A    between atoms: S_14  and  N_17
REMARK    6  A    between atoms: N_17  and  C_19
REMARK    7  A    between atoms: C_19  and  C_20
REMARK    8  A    between atoms: C_26  and  C_32
REMARK                            x       y       z     vdW  Elec       q    Type
REMARK                         _______ _______ _______ _____ _____    ______ ____
ROOT
ATOM      1  O   UNL     1      34.221 -20.365 -20.348  0.00  0.00    -0.424 OA
ATOM      2  N   UNL     1      33.969 -21.661 -18.468  0.00  0.00    -0.265 N 
ATOM      3  N   UNL     1      36.074 -20.677 -19.090  0.00  0.00    -0.193 NA
ATOM      4  C   UNL     1      34.794 -20.926 -19.248  0.00  0.00    +0.293 C 
ATOM      5  C   UNL     1      35.251 -19.696 -20.938  0.00  0.00    +0.168 C 
ATOM      6  C   UNL     1      36.373 -19.889 -20.172  0.00  0.00    +0.141 C 
ATOM      7  H   UNL     1      33.038 -21.711 -18.783  0.00  0.00    +0.157 HD
ENDROOT
BRANCH   2  11
ATOM      8  C   UNL     1      35.808 -23.101 -15.582  0.00  0.00    +0.123 C 
ATOM      9  C   UNL     1      35.533 -22.402 -16.758  0.00  0.00    +0.038 C 
ATOM     10  C   UNL     1      34.783 -23.771 -14.913  0.00  0.00    +0.023 C 
ATOM     11  C   UNL     1      34.234 -22.375 -17.265  0.00  0.00    +0.087 C 
ATOM     12  C   UNL     1      33.484 -23.744 -15.421  0.00  0.00    +0.040 C 
ATOM     13  C   UNL     1      33.210 -23.045 -16.597  0.00  0.00    +0.152 C 
BRANCH   8  14
ATOM     14  S   UNL     1      37.434 -23.138 -14.947  0.00  0.00    +0.060 S 
ATOM     15  O   UNL     1      38.319 -22.456 -15.883  0.00  0.00    -0.153 OA
ATOM     16  O   UNL     1      37.381 -22.693 -13.561  0.00  0.00    -0.153 OA
BRANCH  14  17
ATOM     17  N   UNL     1      37.799 -24.808 -14.968  0.00  0.00    -0.179 NA
ATOM     18  H   UNL     1      38.651 -24.917 -15.519  0.00  0.00    +0.149 HD
BRANCH  17  19
ATOM     19  C   UNL     1      38.015 -25.526 -13.704  0.00  0.00    +0.091 C 
BRANCH  19  20
ATOM     20  C   UNL     1      39.473 -25.681 -13.426  0.00  0.00    +0.017 C 
ATOM     21  C   UNL     1      40.245 -26.756 -14.135  0.00  0.00    +0.001 C 
ATOM     22  C   UNL     1      40.466 -25.316 -14.491  0.00  0.00    +0.001 C 
ENDBRANCH  19  20
ENDBRANCH  17  19
ENDBRANCH  14  17
ENDBRANCH   8  14
BRANCH  13  23
ATOM     23  O   UNL     1      31.934 -23.032 -17.078  0.00  0.00    -0.470 OA
ATOM     24  C   UNL     1      30.882 -22.968 -16.117  0.00  0.00    +0.253 C 
ENDBRANCH  13  23
ENDBRANCH   2  11
BRANCH   5  25
ATOM     25  C   UNL     1      34.941 -18.988 -22.155  0.00  0.00    +0.036 C 
ATOM     26  C   UNL     1      34.464 -16.920 -23.311  0.00  0.00    +0.002 C 
ATOM     27  C   UNL     1      34.763 -17.604 -22.133  0.00  0.00    +0.003 C 
ATOM     28  C   UNL     1      34.821 -19.686 -23.357  0.00  0.00    +0.003 C 
ATOM     29  C   UNL     1      34.343 -17.619 -24.512  0.00  0.00    +0.000 C 
ATOM     30  C   UNL     1      34.522 -19.002 -24.535  0.00  0.00    +0.000 C 
BRANCH  26  32
ATOM     31  N   UNL     1      33.605 -13.471 -24.443  0.00  0.00    -0.242 NA
ATOM     32  C   UNL     1      34.278 -15.486 -23.287  0.00  0.00    +0.019 C 
ATOM     33  C   UNL     1      34.571 -14.743 -22.149  0.00  0.00    +0.003 C 
ATOM     34  C   UNL     1      33.801 -14.808 -24.398  0.00  0.00    +0.099 C 
ATOM     35  C   UNL     1      34.383 -13.365 -22.157  0.00  0.00    +0.021 C 
ATOM     36  C   UNL     1      33.901 -12.783 -23.319  0.00  0.00    +0.099 C 
ENDBRANCH  26  32
ENDBRANCH   5  25
TORSDOF 8
ENDMDL
MODEL 2
REMARK VINA RESULT:     -11.0      5.150      9.971
REMARK  Name = 4369498
REMARK  8 active torsions:
REMARK  status: ('A' for Active; 'I' for Inactive)
REMARK    1  A    between atoms: N_2  and  C_11
REMARK    2  A    between atoms: C_5  and  C_25
REMARK    3  A    between atoms: C_8  and  S_14
REMARK    4  A    between atoms: C_13  and  O_23
REMARK    5  A    between atoms: S_14  and  N_17
REMARK    6  A    between atoms: N_17  and  C_19
REMARK    7  A    between atoms: C_19  and  C_20
REMARK    8  A    between atoms: C_26  and  C_32
REMARK                            x       y       z     vdW  Elec       q    Type
REMARK                         _______ _______ _______ _____ _____    ______ ____
ROOT
ATOM      1  O   UNL     1      33.501 -11.148 -22.117  0.00  0.00    -0.424 OA
ATOM      2  N   UNL     1      34.217 -13.196 -22.872  0.00  0.00    -0.265 N 
ATOM      3  N   UNL     1      32.043 -12.863 -21.899  0.00  0.00    -0.193 NA
ATOM      4  C   UNL     1      33.230 -12.470 -22.301  0.00  0.00    +0.293 C 
ATOM      5  C   UNL     1      32.364 -10.667 -21.539  0.00  0.00    +0.168 C 
ATOM      6  C   UNL     1      31.483 -11.712 -21.409  0.00  0.00    +0.141 C 
ATOM      7  H   UNL     1      35.030 -12.687 -23.095  0.00  0.00    +0.157 HD
ENDROOT
BRANCH   2  11
ATOM      8  C   UNL     1      34.936 -16.830 -22.632  0.00  0.00    +0.123 C 
ATOM      9  C   UNL     1      34.876 -15.472 -22.320  0.00  0.00    +0.038 C 
ATOM     10  C   UNL     1      34.387 -17.295 -23.827  0.00  0.00    +0.023 C 
ATOM     11  C   UNL     1      34.268 -14.580 -23.203  0.00  0.00    +0.087 C 
ATOM     12  C   UNL     1      33.779 -16.403 -24.710  0.00  0.00    +0.040 C 
ATOM     13  C   UNL     1      33.720 -15.045 -24.398  0.00  0.00    +0.152 C 
BRANCH   8  14
ATOM     14  S   UNL     1      35.699 -17.948 -21.529  0.00  0.00    +0.060 S 
ATOM     15  O   UNL     1      37.000 -18.325 -22.069  0.00  0.00    -0.153 OA
ATOM     16  O   UNL     1      35.620 -17.377 -20.192  0.00  0.00    -0.153 OA
BRANCH  14  17
ATOM     17  N   UNL     1      34.663 -19.305 -21.604  0.00  0.00    -0.179 NA
ATOM     18  H   UNL     1      35.135 -20.006 -22.175  0.00  0.00    +0.149 HD
BRANCH  17  19
ATOM     19  C   UNL     1      34.246 -19.977 -20.364  0.00  0.00    +0.091 C 
BRANCH  19  20
ATOM     20  C   UNL     1      35.136 -21.137 -20.066  0.00  0.00    +0.017 C 
ATOM     21  C   UNL     1      36.271 -20.960 -19.099  0.00  0.00    +0.001 C 
ATOM     22  C   UNL     1      35.076 -21.779 -18.711  0.00  0.00    +0.001 C 
ENDBRANCH  19  20
ENDBRANCH  17  19
ENDBRANCH  14  17
ENDBRANCH   8  14
BRANCH  13  23
ATOM     23  O   UNL     1      33.123 -14.189 -25.274  0.00  0.00    -0.470 OA
ATOM     24  C   UNL     1      33.952 -13.196 -25.875  0.00  0.00    +0.253 C 
ENDBRANCH  13  23
ENDBRANCH   2  11
BRANCH   5  25
ATOM     25  C   UNL     1      32.354  -9.262 -21.218  0.00  0.00    +0.036 C 
ATOM     26  C   UNL     1      32.682  -6.961 -21.879  0.00  0.00    +0.002 C 
ATOM     27  C   UNL     1      32.693  -8.320 -22.190  0.00  0.00    +0.003 C 
ATOM     28  C   UNL     1      32.002  -8.842 -19.935  0.00  0.00    +0.003 C 
ATOM     29  C   UNL     1      32.331  -6.542 -20.595  0.00  0.00    +0.000 C 
ATOM     30  C   UNL     1      31.990  -7.483 -19.623  0.00  0.00    +0.000 C 
BRANCH  26  32
ATOM     31  N   UNL     1      32.533  -3.905 -24.013  0.00  0.00    -0.242 NA
ATOM     32  C   UNL     1      33.036  -5.985 -22.886  0.00  0.00    +0.019 C 
ATOM     33  C   UNL     1      34.164  -6.150 -23.681  0.00  0.00    +0.003 C 
ATOM     34  C   UNL     1      32.260  -4.854 -23.091  0.00  0.00    +0.099 C 
ATOM     35  C   UNL     1      34.478  -5.195 -24.641  0.00  0.00    +0.021 C 
ATOM     36  C   UNL     1      33.638  -4.101 -24.766  0.00  0.00    +0.099 C 
ENDBRANCH  26  32
ENDBRANCH   5  25
TORSDOF 8
ENDMDL
MODEL 3
REMARK VINA RESULT:     -10.8      1.579      2.047
REMARK  Name = 4369498
REMARK  8 active torsions:
REMARK  status: ('A' for Active; 'I' for Inactive)
REMARK    1  A    between atoms: N_2  and  C_11
REMARK    2  A    between atoms: C_5  and  C_25
REMARK    3  A    between atoms: C_8  and  S_14
REMARK    4  A    between atoms: C_13  and  O_23
REMARK    5  A    between atoms: S_14  and  N_17
REMARK    6  A    between atoms: N_17  and  C_19
REMARK    7  A    between atoms: C_19  and  C_20
REMARK    8  A    between atoms: C_26  and  C_32
REMARK                            x       y       z     vdW  Elec       q    Type
REMARK                         _______ _______ _______ _____ _____    ______ ____
ROOT
ATOM      1  O   UNL     1      33.552 -20.480 -20.237  0.00  0.00    -0.424 OA
ATOM      2  N   UNL     1      32.907 -21.676 -18.384  0.00  0.00    -0.265 N 
ATOM      3  N   UNL     1      35.206 -21.129 -18.837  0.00  0.00    -0.193 NA
ATOM      4  C   UNL     1      33.917 -21.126 -19.095  0.00  0.00    +0.293 C 
ATOM      5  C   UNL     1      34.736 -20.033 -20.743  0.00  0.00    +0.168 C 
ATOM      6  C   UNL     1      35.735 -20.429 -19.890  0.00  0.00    +0.141 C 
ATOM      7  H   UNL     1      32.011 -21.548 -18.772  0.00  0.00    +0.157 HD
ENDROOT
BRANCH   2  11
ATOM      8  C   UNL     1      34.201 -23.518 -15.432  0.00  0.00    +0.123 C 
ATOM      9  C   UNL     1      34.160 -22.794 -16.625  0.00  0.00    +0.038 C 
ATOM     10  C   UNL     1      33.014 -23.856 -14.781  0.00  0.00    +0.023 C 
ATOM     11  C   UNL     1      32.933 -22.411 -17.165  0.00  0.00    +0.087 C 
ATOM     12  C   UNL     1      31.787 -23.472 -15.323  0.00  0.00    +0.040 C 
ATOM     13  C   UNL     1      31.747 -22.749 -16.515  0.00  0.00    +0.152 C 
BRANCH   8  14
ATOM     14  S   UNL     1      35.736 -24.002 -14.755  0.00  0.00    +0.060 S 
ATOM     15  O   UNL     1      35.711 -25.440 -14.517  0.00  0.00    -0.153 OA
ATOM     16  O   UNL     1      36.787 -23.434 -15.588  0.00  0.00    -0.153 OA
BRANCH  14  17
ATOM     17  N   UNL     1      35.743 -23.199 -13.246  0.00  0.00    -0.179 NA
ATOM     18  H   UNL     1      34.991 -22.510 -13.275  0.00  0.00    +0.149 HD
BRANCH  17  19
ATOM     19  C   UNL     1      35.566 -23.969 -12.006  0.00  0.00    +0.091 C 
BRANCH  19  20
ATOM     20  C   UNL     1      36.844 -24.039 -11.240  0.00  0.00    +0.017 C 
ATOM     21  C   UNL     1      37.502 -25.372 -11.032  0.00  0.00    +0.001 C 
ATOM     22  C   UNL     1      38.116 -24.370 -11.965  0.00  0.00    +0.001 C 
ENDBRANCH  19  20
ENDBRANCH  17  19
ENDBRANCH  14  17
ENDBRANCH   8  14
BRANCH  13  23
ATOM     23  O   UNL     1      30.538 -22.384 -17.028  0.00  0.00    -0.470 OA
ATOM     24  C   UNL     1      29.381 -22.733 -16.270  0.00  0.00    +0.253 C 
ENDBRANCH  13  23
ENDBRANCH   2  11
BRANCH   5  25
ATOM     25  C   UNL     1      34.665 -19.295 -21.980  0.00  0.00    +0.036 C 
ATOM     26  C   UNL     1      34.477 -17.192 -23.155  0.00  0.00    +0.002 C 
ATOM     27  C   UNL     1      34.544 -17.905 -21.959  0.00  0.00    +0.003 C 
ATOM     28  C   UNL     1      34.721 -19.971 -23.199  0.00  0.00    +0.003 C 
ATOM     29  C   UNL     1      34.531 -17.870 -24.374  0.00  0.00    +0.000 C 
ATOM     30  C   UNL     1      34.654 -19.259 -24.396  0.00  0.00    +0.000 C 
BRANCH  26  32
ATOM     31  N   UNL     1      34.637 -13.671 -21.935  0.00  0.00    -0.242 NA
ATOM     32  C   UNL     1      34.350 -15.752 -23.134  0.00  0.00    +0.019 C 
ATOM     33  C   UNL     1      33.844 -15.059 -24.228  0.00  0.00    +0.003 C 
ATOM     34  C   UNL     1      34.729 -15.017 -22.021  0.00  0.00    +0.099 C 
ATOM     35  C   UNL     1      33.734 -13.674 -24.177  0.00  0.00    +0.021 C 
ATOM     36  C   UNL     1      34.140 -13.034 -23.017  0.00  0.00    +0.099 C 
ENDBRANCH  26  32
ENDBRANCH   5  25
TORSDOF 8
ENDMDL
MODEL 4
REMARK VINA RESULT:     -10.8      3.680      6.061
REMARK  Name = 4369498
REMARK  8 active torsions:
REMARK  status: ('A' for Active; 'I' for Inactive)
REMARK    1  A    between atoms: N_2  and  C_11
REMARK    2  A    between atoms: C_5  and  C_25
REMARK    3  A    between atoms: C_8  and  S_14
REMARK    4  A    between atoms: C_13  and  O_23
REMARK    5  A    between atoms: S_14  and  N_17
REMARK    6  A    between atoms: N_17  and  C_19
REMARK    7  A    between atoms: C_19  and  C_20
REMARK    8  A    between atoms: C_26  and  C_32
REMARK                            x       y       z     vdW  Elec       q    Type
REMARK                         _______ _______ _______ _____ _____    ______ ____
ROOT
ATOM      1  O   UNL     1      34.594 -16.315 -22.656  0.00  0.00    -0.424 OA
ATOM      2  N   UNL     1      35.126 -18.327 -21.683  0.00  0.00    -0.265 N 
ATOM      3  N   UNL     1      34.940 -16.287 -20.421  0.00  0.00    -0.193 NA
ATOM      4  C   UNL     1      34.902 -17.003 -21.522  0.00  0.00    +0.293 C 
ATOM      5  C   UNL     1      34.422 -15.037 -22.216  0.00  0.00    +0.168 C 
ATOM      6  C   UNL     1      34.633 -15.025 -20.860  0.00  0.00    +0.141 C 
ATOM      7  H   UNL     1      35.041 -18.652 -22.609  0.00  0.00    +0.157 HD
ENDROOT
BRANCH   2  11
ATOM      8  C   UNL     1      34.808 -21.207 -19.362  0.00  0.00    +0.123 C 
ATOM      9  C   UNL     1      34.490 -20.226 -20.301  0.00  0.00    +0.038 C 
ATOM     10  C   UNL     1      36.103 -21.288 -18.850  0.00  0.00    +0.023 C 
ATOM     11  C   UNL     1      35.466 -19.326 -20.727  0.00  0.00    +0.087 C 
ATOM     12  C   UNL     1      37.080 -20.388 -19.276  0.00  0.00    +0.040 C 
ATOM     13  C   UNL     1      36.761 -19.407 -20.215  0.00  0.00    +0.152 C 
BRANCH   8  14
ATOM     14  S   UNL     1      33.586 -22.333 -18.825  0.00  0.00    +0.060 S 
ATOM     15  O   UNL     1      32.287 -21.673 -18.873  0.00  0.00    -0.153 OA
ATOM     16  O   UNL     1      33.780 -23.580 -19.552  0.00  0.00    -0.153 OA
BRANCH  14  17
ATOM     17  N   UNL     1      34.011 -22.585 -17.189  0.00  0.00    -0.179 NA
ATOM     18  H   UNL     1      33.933 -21.682 -16.721  0.00  0.00    +0.149 HD
BRANCH  17  19
ATOM     19  C   UNL     1      33.256 -23.551 -16.377  0.00  0.00    +0.091 C 
BRANCH  19  20
ATOM     20  C   UNL     1      31.974 -22.953 -15.902  0.00  0.00    +0.017 C 
ATOM     21  C   UNL     1      30.955 -23.834 -15.239  0.00  0.00    +0.001 C 
ATOM     22  C   UNL     1      31.722 -22.833 -14.427  0.00  0.00    +0.001 C 
ENDBRANCH  19  20
ENDBRANCH  17  19
ENDBRANCH  14  17
ENDBRANCH   8  14
BRANCH  13  23
ATOM     23  O   UNL     1      37.729 -18.536 -20.617  0.00  0.00    -0.470 OA
ATOM     24  C   UNL     1      38.133 -18.603 -21.983  0.00  0.00    +0.253 C 
ENDBRANCH  13  23
ENDBRANCH   2  11
BRANCH   5  25
ATOM     25  C   UNL     1      34.080 -14.056 -23.216  0.00  0.00    +0.036 C 
ATOM     26  C   UNL     1      33.748 -11.751 -23.861  0.00  0.00    +0.002 C 
ATOM     27  C   UNL     1      34.078 -12.699 -22.893  0.00  0.00    +0.003 C 
ATOM     28  C   UNL     1      33.753 -14.464 -24.510  0.00  0.00    +0.003 C 
ATOM     29  C   UNL     1      33.420 -12.161 -25.154  0.00  0.00    +0.000 C 
ATOM     30  C   UNL     1      33.423 -13.517 -25.478  0.00  0.00    +0.000 C 
BRANCH  26  32
ATOM     31  N   UNL     1      32.678  -8.495 -22.389  0.00  0.00    -0.242 NA
ATOM     32  C   UNL     1      33.744 -10.344 -23.525  0.00  0.00    +0.019 C 
ATOM     33  C   UNL     1      34.747  -9.496 -23.978  0.00  0.00    +0.003 C 
ATOM     34  C   UNL     1      32.740  -9.799 -22.739  0.00  0.00    +0.099 C 
ATOM     35  C   UNL     1      34.716  -8.148 -23.639  0.00  0.00    +0.021 C 
ATOM     36  C   UNL     1      33.669  -7.702 -22.849  0.00  0.00    +0.099 C 
ENDBRANCH  26  32
ENDBRANCH   5  25
TORSDOF 8
ENDMDL
MODEL 5
REMARK VINA RESULT:     -10.7      6.079     13.747
REMARK  Name = 4369498
REMARK  8 active torsions:
REMARK  status: ('A' for Active; 'I' for Inactive)
REMARK    1  A    between atoms: N_2  and  C_11
REMARK    2  A    between atoms: C_5  and  C_25
REMARK    3  A    between atoms: C_8  and  S_14
REMARK    4  A    between atoms: C_13  and  O_23
REMARK    5  A    between atoms: S_14  and  N_17
REMARK    6  A    between atoms: N_17  and  C_19
REMARK    7  A    between atoms: C_19  and  C_20
REMARK    8  A    between atoms: C_26  and  C_32
REMARK                            x       y       z     vdW  Elec       q    Type
REMARK                         _______ _______ _______ _____ _____    ______ ____
ROOT
ATOM      1  O   UNL     1      34.378 -14.374 -23.607  0.00  0.00    -0.424 OA
ATOM      2  N   UNL     1      34.147 -12.121 -23.991  0.00  0.00    -0.265 N 
ATOM      3  N   UNL     1      34.456 -13.034 -21.787  0.00  0.00    -0.193 NA
ATOM      4  C   UNL     1      34.326 -13.115 -23.091  0.00  0.00    +0.293 C 
ATOM      5  C   UNL     1      34.560 -15.161 -22.509  0.00  0.00    +0.168 C 
ATOM      6  C   UNL     1      34.606 -14.343 -21.407  0.00  0.00    +0.141 C 
ATOM      7  H   UNL     1      34.074 -12.418 -24.927  0.00  0.00    +0.157 HD
ENDROOT
BRANCH   2  11
ATOM      8  C   UNL     1      32.956  -8.831 -22.751  0.00  0.00    +0.123 C 
ATOM      9  C   UNL     1      33.067 -10.208 -22.946  0.00  0.00    +0.038 C 
ATOM     10  C   UNL     1      33.826  -7.961 -23.409  0.00  0.00    +0.023 C 
ATOM     11  C   UNL     1      34.047 -10.714 -23.799  0.00  0.00    +0.087 C 
ATOM     12  C   UNL     1      34.806  -8.468 -24.262  0.00  0.00    +0.040 C 
ATOM     13  C   UNL     1      34.917  -9.844 -24.457  0.00  0.00    +0.152 C 
BRANCH   8  14
ATOM     14  S   UNL     1      31.726  -8.195 -21.686  0.00  0.00    +0.060 S 
ATOM     15  O   UNL     1      30.576  -7.793 -22.486  0.00  0.00    -0.153 OA
ATOM     16  O   UNL     1      31.543  -9.149 -20.601  0.00  0.00    -0.153 OA
BRANCH  14  17
ATOM     17  N   UNL     1      32.473  -6.792 -21.058  0.00  0.00    -0.179 NA
ATOM     18  H   UNL     1      33.374  -6.701 -21.528  0.00  0.00    +0.149 HD
BRANCH  17  19
ATOM     19  C   UNL     1      31.800  -5.490 -21.175  0.00  0.00    +0.091 C 
BRANCH  19  20
ATOM     20  C   UNL     1      32.352  -4.710 -22.321  0.00  0.00    +0.017 C 
ATOM     21  C   UNL     1      31.562  -4.617 -23.594  0.00  0.00    +0.001 C 
ATOM     22  C   UNL     1      31.701  -3.414 -22.708  0.00  0.00    +0.001 C 
ENDBRANCH  19  20
ENDBRANCH  17  19
ENDBRANCH  14  17
ENDBRANCH   8  14
BRANCH  13  23
ATOM     23  O   UNL     1      35.881 -10.319 -25.295  0.00  0.00    -0.470 OA
ATOM     24  C   UNL     1      35.464 -10.723 -26.598  0.00  0.00    +0.253 C 
ENDBRANCH  13  23
ENDBRANCH   2  11
BRANCH   5  25
ATOM     25  C   UNL     1      34.654 -16.580 -22.746  0.00  0.00    +0.036 C 
ATOM     26  C   UNL     1      34.900 -18.832 -21.905  0.00  0.00    +0.002 C 
ATOM     27  C   UNL     1      34.809 -17.459 -21.675  0.00  0.00    +0.003 C 
ATOM     28  C   UNL     1      34.589 -17.075 -24.050  0.00  0.00    +0.003 C 
ATOM     29  C   UNL     1      34.835 -19.325 -23.208  0.00  0.00    +0.000 C 
ATOM     30  C   UNL     1      34.680 -18.447 -24.281  0.00  0.00    +0.000 C 
BRANCH  26  32
ATOM     31  N   UNL     1      36.523 -20.788 -19.175  0.00  0.00    -0.242 NA
ATOM     32  C   UNL     1      35.062 -19.743 -20.794  0.00  0.00    +0.019 C 
ATOM     33  C   UNL     1      33.976 -20.438 -20.272  0.00  0.00    +0.003 C 
ATOM     34  C   UNL     1      36.304 -19.952 -20.214  0.00  0.00    +0.099 C 
ATOM     35  C   UNL     1      34.163 -21.307 -19.203  0.00  0.00    +0.021 C 
ATOM     36  C   UNL     1      35.445 -21.445 -18.696  0.00  0.00    +0.099 C 
ENDBRANCH  26  32
ENDBRANCH   5  25
TORSDOF 8
ENDMDL
MODEL 6
REMARK VINA RESULT:     -10.7      3.180      6.578
REMARK  Name = 4369498
REMARK  8 active torsions:
REMARK  status: ('A' for Active; 'I' for Inactive)
REMARK    1  A    between atoms: N_2  and  C_11
REMARK    2  A    between atoms: C_5  and  C_25
REMARK    3  A    between atoms: C_8  and  S_14
REMARK    4  A    between atoms: C_13  and  O_23
REMARK    5  A    between atoms: S_14  and  N_17
REMARK    6  A    between atoms: N_17  and  C_19
REMARK    7  A    between atoms: C_19  and  C_20
REMARK    8  A    between atoms: C_26  and  C_32
REMARK                            x       y       z     vdW  Elec       q    Type
REMARK                         _______ _______ _______ _____ _____    ______ ____
ROOT
ATOM      1  O   UNL     1      34.556 -21.626 -17.948  0.00  0.00    -0.424 OA
ATOM      2  N   UNL     1      33.686 -22.859 -16.216  0.00  0.00    -0.265 N 
ATOM      3  N   UNL     1      32.357 -22.136 -18.086  0.00  0.00    -0.193 NA
ATOM      4  C   UNL     1      33.471 -22.235 -17.396  0.00  0.00    +0.293 C 
ATOM      5  C   UNL     1      34.069 -21.091 -19.103  0.00  0.00    +0.168 C 
ATOM      6  C   UNL     1      32.734 -21.403 -19.182  0.00  0.00    +0.141 C 
ATOM      7  H   UNL     1      34.611 -22.804 -15.881  0.00  0.00    +0.157 HD
ENDROOT
BRANCH   2  11
ATOM      8  C   UNL     1      30.542 -24.326 -14.894  0.00  0.00    +0.123 C 
ATOM      9  C   UNL     1      31.434 -23.624 -15.707  0.00  0.00    +0.038 C 
ATOM     10  C   UNL     1      31.007 -24.983 -13.755  0.00  0.00    +0.023 C 
ATOM     11  C   UNL     1      32.789 -23.580 -15.379  0.00  0.00    +0.087 C 
ATOM     12  C   UNL     1      32.362 -24.939 -13.428  0.00  0.00    +0.040 C 
ATOM     13  C   UNL     1      33.253 -24.238 -14.240  0.00  0.00    +0.152 C 
BRANCH   8  14
ATOM     14  S   UNL     1      28.845 -24.378 -15.301  0.00  0.00    +0.060 S 
ATOM     15  O   UNL     1      28.713 -24.646 -16.728  0.00  0.00    -0.153 OA
ATOM     16  O   UNL     1      28.186 -25.259 -14.346  0.00  0.00    -0.153 OA
BRANCH  14  17
ATOM     17  N   UNL     1      28.343 -22.773 -14.997  0.00  0.00    -0.179 NA
ATOM     18  H   UNL     1      29.008 -22.161 -15.470  0.00  0.00    +0.149 HD
BRANCH  17  19
ATOM     19  C   UNL     1      27.000 -22.336 -15.404  0.00  0.00    +0.091 C 
BRANCH  19  20
ATOM     20  C   UNL     1      27.051 -21.615 -16.709  0.00  0.00    +0.017 C 
ATOM     21  C   UNL     1      26.375 -22.216 -17.907  0.00  0.00    +0.001 C 
ATOM     22  C   UNL     1      25.798 -20.995 -17.254  0.00  0.00    +0.001 C 
ENDBRANCH  19  20
ENDBRANCH  17  19
ENDBRANCH  14  17
ENDBRANCH   8  14
BRANCH  13  23
ATOM     23  O   UNL     1      34.573 -24.206 -13.902  0.00  0.00    -0.470 OA
ATOM     24  C   UNL     1      34.891 -23.807 -12.570  0.00  0.00    +0.253 C 
ENDBRANCH  13  23
ENDBRANCH   2  11
BRANCH   5  25
ATOM     25  C   UNL     1      35.010 -20.366 -19.920  0.00  0.00    +0.036 C 
ATOM     26  C   UNL     1      35.464 -18.745 -21.653  0.00  0.00    +0.002 C 
ATOM     27  C   UNL     1      34.553 -19.446 -20.864  0.00  0.00    +0.003 C 
ATOM     28  C   UNL     1      36.379 -20.585 -19.767  0.00  0.00    +0.003 C 
ATOM     29  C   UNL     1      36.833 -18.965 -21.500  0.00  0.00    +0.000 C 
ATOM     30  C   UNL     1      37.291 -19.884 -20.556  0.00  0.00    +0.000 C 
BRANCH  26  32
ATOM     31  N   UNL     1      33.837 -17.371 -24.716  0.00  0.00    -0.242 NA
ATOM     32  C   UNL     1      34.989 -17.791 -22.632  0.00  0.00    +0.019 C 
ATOM     33  C   UNL     1      35.203 -16.427 -22.468  0.00  0.00    +0.003 C 
ATOM     34  C   UNL     1      34.306 -18.208 -23.764  0.00  0.00    +0.099 C 
ATOM     35  C   UNL     1      34.736 -15.535 -23.426  0.00  0.00    +0.021 C 
ATOM     36  C   UNL     1      34.065 -16.053 -24.522  0.00  0.00    +0.099 C 
ENDBRANCH  26  32
ENDBRANCH   5  25
TORSDOF 8
ENDMDL
MODEL 7
REMARK VINA RESULT:     -10.6      2.495     11.293
REMARK  Name = 4369498
REMARK  8 active torsions:
REMARK  status: ('A' for Active; 'I' for Inactive)
REMARK    1  A    between atoms: N_2  and  C_11
REMARK    2  A    between atoms: C_5  and  C_25
REMARK    3  A    between atoms: C_8  and  S_14
REMARK    4  A    between atoms: C_13  and  O_23
REMARK    5  A    between atoms: S_14  and  N_17
REMARK    6  A    between atoms: N_17  and  C_19
REMARK    7  A    between atoms: C_19  and  C_20
REMARK    8  A    between atoms: C_26  and  C_32
REMARK                            x       y       z     vdW  Elec       q    Type
REMARK                         _______ _______ _______ _____ _____    ______ ____
ROOT
ATOM      1  O   UNL     1      36.256 -23.149 -16.089  0.00  0.00    -0.424 OA
ATOM      2  N   UNL     1      35.174 -22.281 -17.921  0.00  0.00    -0.265 N 
ATOM      3  N   UNL     1      36.841 -21.051 -16.697  0.00  0.00    -0.193 NA
ATOM      4  C   UNL     1      36.089 -22.100 -16.942  0.00  0.00    +0.293 C 
ATOM      5  C   UNL     1      37.211 -22.707 -15.224  0.00  0.00    +0.168 C 
ATOM      6  C   UNL     1      37.562 -21.434 -15.596  0.00  0.00    +0.141 C 
ATOM      7  H   UNL     1      34.726 -23.157 -17.912  0.00  0.00    +0.157 HD
ENDROOT
BRANCH   2  11
ATOM      8  C   UNL     1      35.283 -19.657 -20.545  0.00  0.00    +0.123 C 
ATOM      9  C   UNL     1      35.679 -20.523 -19.525  0.00  0.00    +0.038 C 
ATOM     10  C   UNL     1      33.965 -19.675 -21.003  0.00  0.00    +0.023 C 
ATOM     11  C   UNL     1      34.757 -21.405 -18.963  0.00  0.00    +0.087 C 
ATOM     12  C   UNL     1      33.043 -20.558 -20.440  0.00  0.00    +0.040 C 
ATOM     13  C   UNL     1      33.440 -21.424 -19.421  0.00  0.00    +0.152 C 
BRANCH   8  14
ATOM     14  S   UNL     1      36.435 -18.548 -21.247  0.00  0.00    +0.060 S 
ATOM     15  O   UNL     1      37.488 -18.288 -20.274  0.00  0.00    -0.153 OA
ATOM     16  O   UNL     1      36.791 -19.054 -22.566  0.00  0.00    -0.153 OA
BRANCH  14  17
ATOM     17  N   UNL     1      35.506 -17.126 -21.441  0.00  0.00    -0.179 NA
ATOM     18  H   UNL     1      36.089 -16.349 -21.131  0.00  0.00    +0.149 HD
BRANCH  17  19
ATOM     19  C   UNL     1      34.990 -16.765 -22.770  0.00  0.00    +0.091 C 
BRANCH  19  20
ATOM     20  C   UNL     1      35.029 -15.287 -22.969  0.00  0.00    +0.017 C 
ATOM     21  C   UNL     1      33.819 -14.589 -23.520  0.00  0.00    +0.001 C 
ATOM     22  C   UNL     1      34.200 -14.405 -22.081  0.00  0.00    +0.001 C 
ENDBRANCH  19  20
ENDBRANCH  17  19
ENDBRANCH  14  17
ENDBRANCH   8  14
BRANCH  13  23
ATOM     23  O   UNL     1      32.523 -22.278 -18.884  0.00  0.00    -0.470 OA
ATOM     24  C   UNL     1      32.202 -22.099 -17.506  0.00  0.00    +0.253 C 
ENDBRANCH  13  23
ENDBRANCH   2  11
BRANCH   5  25
ATOM     25  C   UNL     1      37.604 -23.624 -14.182  0.00  0.00    +0.036 C 
ATOM     26  C   UNL     1      38.601 -25.716 -13.500  0.00  0.00    +0.002 C 
ATOM     27  C   UNL     1      38.221 -24.831 -14.508  0.00  0.00    +0.003 C 
ATOM     28  C   UNL     1      37.368 -23.301 -12.845  0.00  0.00    +0.003 C 
ATOM     29  C   UNL     1      38.364 -25.394 -12.164  0.00  0.00    +0.000 C 
ATOM     30  C   UNL     1      37.748 -24.186 -11.836  0.00  0.00    +0.000 C 
BRANCH  26  32
ATOM     31  N   UNL     1      41.078 -28.129 -14.899  0.00  0.00    -0.242 NA
ATOM     32  C   UNL     1      39.240 -26.969 -13.840  0.00  0.00    +0.019 C 
ATOM     33  C   UNL     1      38.680 -28.185 -13.465  0.00  0.00    +0.003 C 
ATOM     34  C   UNL     1      40.430 -26.996 -14.550  0.00  0.00    +0.099 C 
ATOM     35  C   UNL     1      39.317 -29.372 -13.806  0.00  0.00    +0.021 C 
ATOM     36  C   UNL     1      40.503 -29.291 -14.517  0.00  0.00    +0.099 C 
ENDBRANCH  26  32
ENDBRANCH   5  25
TORSDOF 8
ENDMDL
MODEL 8
REMARK VINA RESULT:     -10.3      2.391      5.606
REMARK  Name = 4369498
REMARK  8 active torsions:
REMARK  status: ('A' for Active; 'I' for Inactive)
REMARK    1  A    between atoms: N_2  and  C_11
REMARK    2  A    between atoms: C_5  and  C_25
REMARK    3  A    between atoms: C_8  and  S_14
REMARK    4  A    between atoms: C_13  and  O_23
REMARK    5  A    between atoms: S_14  and  N_17
REMARK    6  A    between atoms: N_17  and  C_19
REMARK    7  A    between atoms: C_19  and  C_20
REMARK    8  A    between atoms: C_26  and  C_32
REMARK                            x       y       z     vdW  Elec       q    Type
REMARK                         _______ _______ _______ _____ _____    ______ ____
ROOT
ATOM      1  O   UNL     1      36.128 -21.071 -18.075  0.00  0.00    -0.424 OA
ATOM      2  N   UNL     1      35.967 -22.254 -16.113  0.00  0.00    -0.265 N 
ATOM      3  N   UNL     1      34.424 -22.551 -17.934  0.00  0.00    -0.193 NA
ATOM      4  C   UNL     1      35.465 -22.009 -17.344  0.00  0.00    +0.293 C 
ATOM      5  C   UNL     1      35.427 -21.023 -19.243  0.00  0.00    +0.168 C 
ATOM      6  C   UNL     1      34.394 -21.922 -19.152  0.00  0.00    +0.141 C 
ATOM      7  H   UNL     1      36.763 -21.725 -15.877  0.00  0.00    +0.157 HD
ENDROOT
BRANCH   2  11
ATOM      8  C   UNL     1      33.734 -24.060 -13.760  0.00  0.00    +0.123 C 
ATOM      9  C   UNL     1      34.178 -23.183 -14.751  0.00  0.00    +0.038 C 
ATOM     10  C   UNL     1      34.639 -24.909 -13.124  0.00  0.00    +0.023 C 
ATOM     11  C   UNL     1      35.527 -23.156 -15.103  0.00  0.00    +0.087 C 
ATOM     12  C   UNL     1      35.988 -24.881 -13.476  0.00  0.00    +0.040 C 
ATOM     13  C   UNL     1      36.432 -24.005 -14.466  0.00  0.00    +0.152 C 
BRANCH   8  14
ATOM     14  S   UNL     1      32.045 -24.093 -13.316  0.00  0.00    +0.060 S 
ATOM     15  O   UNL     1      31.598 -25.480 -13.276  0.00  0.00    -0.153 OA
ATOM     16  O   UNL     1      31.880 -23.256 -12.136  0.00  0.00    -0.153 OA
BRANCH  14  17
ATOM     17  N   UNL     1      31.300 -23.316 -14.643  0.00  0.00    -0.179 NA
ATOM     18  H   UNL     1      32.031 -23.142 -15.332  0.00  0.00    +0.149 HD
BRANCH  17  19
ATOM     19  C   UNL     1      30.196 -23.979 -15.354  0.00  0.00    +0.091 C 
BRANCH  19  20
ATOM     20  C   UNL     1      29.307 -22.973 -16.005  0.00  0.00    +0.017 C 
ATOM     21  C   UNL     1      28.037 -23.432 -16.661  0.00  0.00    +0.001 C 
ATOM     22  C   UNL     1      27.980 -22.654 -15.380  0.00  0.00    +0.001 C 
ENDBRANCH  19  20
ENDBRANCH  17  19
ENDBRANCH  14  17
ENDBRANCH   8  14
BRANCH  13  23
ATOM     23  O   UNL     1      37.755 -23.992 -14.795  0.00  0.00    -0.470 OA
ATOM     24  C   UNL     1      38.588 -24.964 -14.165  0.00  0.00    +0.253 C 
ENDBRANCH  13  23
ENDBRANCH   2  11
BRANCH   5  25
ATOM     25  C   UNL     1      35.904 -20.095 -20.239  0.00  0.00    +0.036 C 
ATOM     26  C   UNL     1      35.515 -18.765 -22.218  0.00  0.00    +0.002 C 
ATOM     27  C   UNL     1      35.054 -19.662 -21.256  0.00  0.00    +0.003 C 
ATOM     28  C   UNL     1      37.219 -19.630 -20.185  0.00  0.00    +0.003 C 
ATOM     29  C   UNL     1      36.830 -18.300 -22.163  0.00  0.00    +0.000 C 
ATOM     30  C   UNL     1      37.681 -18.732 -21.147  0.00  0.00    +0.000 C 
BRANCH  26  32
ATOM     31  N   UNL     1      33.932 -16.550 -24.768  0.00  0.00    -0.242 NA
ATOM     32  C   UNL     1      34.633 -18.316 -23.272  0.00  0.00    +0.019 C 
ATOM     33  C   UNL     1      33.666 -19.160 -23.806  0.00  0.00    +0.003 C 
ATOM     34  C   UNL     1      34.725 -17.031 -23.784  0.00  0.00    +0.099 C 
ATOM     35  C   UNL     1      32.832 -18.701 -24.819  0.00  0.00    +0.021 C 
ATOM     36  C   UNL     1      33.005 -17.399 -25.261  0.00  0.00    +0.099 C 
ENDBRANCH  26  32
ENDBRANCH   5  25
TORSDOF 8
ENDMDL
MODEL 9
REMARK VINA RESULT:     -10.1      4.338      8.333
REMARK  Name = 4369498
REMARK  8 active torsions:
REMARK  status: ('A' for Active; 'I' for Inactive)
REMARK    1  A    between atoms: N_2  and  C_11
REMARK    2  A    between atoms: C_5  and  C_25
REMARK    3  A    between atoms: C_8  and  S_14
REMARK    4  A    between atoms: C_13  and  O_23
REMARK    5  A    between atoms: S_14  and  N_17
REMARK    6  A    between atoms: N_17  and  C_19
REMARK    7  A    between atoms: C_19  and  C_20
REMARK    8  A    between atoms: C_26  and  C_32
REMARK                            x       y       z     vdW  Elec       q    Type
REMARK                         _______ _______ _______ _____ _____    ______ ____
ROOT
ATOM      1  O   UNL     1      34.281 -13.325 -23.892  0.00  0.00    -0.424 OA
ATOM      2  N   UNL     1      34.509 -15.611 -23.927  0.00  0.00    -0.265 N 
ATOM      3  N   UNL     1      34.124 -14.378 -21.897  0.00  0.00    -0.193 NA
ATOM      4  C   UNL     1      34.304 -14.493 -23.193  0.00  0.00    +0.293 C 
ATOM      5  C   UNL     1      34.065 -12.383 -22.931  0.00  0.00    +0.168 C 
ATOM      6  C   UNL     1      33.970 -13.027 -21.723  0.00  0.00    +0.141 C 
ATOM      7  H   UNL     1      34.619 -15.457 -24.893  0.00  0.00    +0.157 HD
ENDROOT
BRANCH   2  11
ATOM      8  C   UNL     1      35.571 -18.669 -22.109  0.00  0.00    +0.123 C 
ATOM      9  C   UNL     1      35.478 -17.336 -22.512  0.00  0.00    +0.038 C 
ATOM     10  C   UNL     1      34.774 -19.638 -22.719  0.00  0.00    +0.023 C 
ATOM     11  C   UNL     1      34.590 -16.974 -23.524  0.00  0.00    +0.087 C 
ATOM     12  C   UNL     1      33.885 -19.275 -23.731  0.00  0.00    +0.040 C 
ATOM     13  C   UNL     1      33.793 -17.943 -24.134  0.00  0.00    +0.152 C 
BRANCH   8  14
ATOM     14  S   UNL     1      36.685 -19.125 -20.844  0.00  0.00    +0.060 S 
ATOM     15  O   UNL     1      38.036 -19.139 -21.392  0.00  0.00    -0.153 OA
ATOM     16  O   UNL     1      36.396 -18.300 -19.679  0.00  0.00    -0.153 OA
BRANCH  14  17
ATOM     17  N   UNL     1      36.216 -20.733 -20.503  0.00  0.00    -0.179 NA
ATOM     18  H   UNL     1      37.066 -21.297 -20.515  0.00  0.00    +0.149 HD
BRANCH  17  19
ATOM     19  C   UNL     1      35.520 -21.040 -19.245  0.00  0.00    +0.091 C 
BRANCH  19  20
ATOM     20  C   UNL     1      34.187 -21.654 -19.515  0.00  0.00    +0.017 C 
ATOM     21  C   UNL     1      33.127 -21.604 -18.453  0.00  0.00    +0.001 C 
ATOM     22  C   UNL     1      32.991 -20.764 -19.688  0.00  0.00    +0.001 C 
ENDBRANCH  19  20
ENDBRANCH  17  19
ENDBRANCH  14  17
ENDBRANCH   8  14
BRANCH  13  23
ATOM     23  O   UNL     1      32.920 -17.609 -25.126  0.00  0.00    -0.470 OA
ATOM     24  C   UNL     1      31.848 -18.516 -25.376  0.00  0.00    +0.253 C 
ENDBRANCH  13  23
ENDBRANCH   2  11
BRANCH   5  25
ATOM     25  C   UNL     1      33.991 -11.015 -23.381  0.00  0.00    +0.036 C 
ATOM     26  C   UNL     1      33.236  -8.743 -23.057  0.00  0.00    +0.002 C 
ATOM     27  C   UNL     1      33.307 -10.065 -22.622  0.00  0.00    +0.003 C 
ATOM     28  C   UNL     1      34.605 -10.640 -24.576  0.00  0.00    +0.003 C 
ATOM     29  C   UNL     1      33.850  -8.369 -24.252  0.00  0.00    +0.000 C 
ATOM     30  C   UNL     1      34.535  -9.317 -25.011  0.00  0.00    +0.000 C 
BRANCH  26  32
ATOM     31  N   UNL     1      30.745  -6.129 -22.118  0.00  0.00    -0.242 NA
ATOM     32  C   UNL     1      32.525  -7.759 -22.270  0.00  0.00    +0.019 C 
ATOM     33  C   UNL     1      32.897  -7.484 -20.959  0.00  0.00    +0.003 C 
ATOM     34  C   UNL     1      31.451  -7.060 -22.798  0.00  0.00    +0.099 C 
ATOM     35  C   UNL     1      32.195  -6.532 -20.228  0.00  0.00    +0.021 C 
ATOM     36  C   UNL     1      31.137  -5.889 -20.848  0.00  0.00    +0.099 C 
ENDBRANCH  26  32
ENDBRANCH   5  25
TORSDOF 8
ENDMDL
