MODEL 1
REMARK VINA RESULT:     -13.0      0.000      0.000
REMARK  Name = 25171648
REMARK  8 active torsions:
REMARK  status: ('A' for Active; 'I' for Inactive)
REMARK    1  A    between atoms: C_1  and  C_12
REMARK    2  A    between atoms: C_2  and  C_23
REMARK    3  A    between atoms: C_9  and  O_13
REMARK    4  A    between atoms: O_13  and  C_14
REMARK    5  A    between atoms: C_14  and  C_16
REMARK    6  A    between atoms: C_23  and  N_25
REMARK    7  A    between atoms: C_27  and  C_31
REMARK    8  A    between atoms: C_34  and  C_38
REMARK                            x       y       z     vdW  Elec       q    Type
REMARK                         _______ _______ _______ _____ _____    ______ ____
ROOT
ATOM      1  C   UNL     1      35.290 -20.398 -19.901  0.00  0.00    +0.062 C 
ATOM      2  C   UNL     1      34.253 -22.115 -18.553  0.00  0.00    +0.000 C 
ATOM      3  C   UNL     1      34.185 -21.194 -19.600  0.00  0.00    +0.007 C 
ATOM      4  C   UNL     1      36.463 -20.522 -19.157  0.00  0.00    +0.010 C 
ATOM      5  C   UNL     1      35.427 -22.239 -17.810  0.00  0.00    -0.003 C 
ATOM      6  C   UNL     1      36.531 -21.443 -18.112  0.00  0.00    +0.000 C 
ENDROOT
BRANCH   1  12
ATOM      7  N   UNL     1      35.760 -18.237 -20.752  0.00  0.00    -0.212 NA
ATOM      8  N   UNL     1      34.619 -19.866 -22.112  0.00  0.00    -0.190 NA
ATOM      9  C   UNL     1      35.087 -17.677 -22.995  0.00  0.00    +0.161 C 
ATOM     10  C   UNL     1      35.676 -17.372 -21.785  0.00  0.00    +0.201 C 
ATOM     11  C   UNL     1      34.571 -18.952 -23.103  0.00  0.00    +0.144 C 
ATOM     12  C   UNL     1      35.219 -19.448 -20.981  0.00  0.00    +0.031 C 
BRANCH   9  13
ATOM     13  O   UNL     1      35.020 -16.771 -24.024  0.00  0.00    -0.476 OA
BRANCH  13  14
ATOM     14  C   UNL     1      33.821 -16.030 -24.154  0.00  0.00    +0.205 C 
BRANCH  14  16
ATOM     15  N   UNL     1      33.251 -11.808 -23.446  0.00  0.00    +0.386 N 
ATOM     16  C   UNL     1      34.143 -14.549 -23.982  0.00  0.00    +0.040 C 
ATOM     17  C   UNL     1      33.771 -14.065 -22.576  0.00  0.00    -0.019 C 
ATOM     18  C   UNL     1      33.417 -13.701 -25.031  0.00  0.00    -0.019 C 
ATOM     19  C   UNL     1      33.998 -12.559 -22.427  0.00  0.00    -0.077 C 
ATOM     20  C   UNL     1      33.656 -12.207 -24.801  0.00  0.00    -0.077 C 
ATOM     21  C   UNL     1      33.437 -10.368 -23.259  0.00  0.00    -0.101 C 
ATOM     22  H   UNL     1      32.262 -12.027 -23.336  0.00  0.00    -0.080 HD
ENDBRANCH  14  16
ENDBRANCH  13  14
ENDBRANCH   9  13
ENDBRANCH   1  12
BRANCH   2  23
ATOM     23  C   UNL     1      33.072 -22.966 -18.230  0.00  0.00    +0.146 C 
BRANCH  23  25
ATOM     24  O   UNL     1      30.617 -22.314 -16.902  0.00  0.00    -0.268 OA
ATOM     25  N   UNL     1      32.822 -23.043 -16.800  0.00  0.00    -0.173 N 
ATOM     26  N   UNL     1      33.887 -23.460 -16.055  0.00  0.00    -0.175 NA
ATOM     27  C   UNL     1      33.741 -23.546 -14.772  0.00  0.00    +0.099 C 
ATOM     28  C   UNL     1      31.591 -22.705 -16.258  0.00  0.00    +0.268 C 
ATOM     29  C   UNL     1      32.488 -23.246 -14.052  0.00  0.00    +0.025 C 
ATOM     30  C   UNL     1      31.459 -22.838 -14.792  0.00  0.00    +0.061 C 
BRANCH  27  31
ATOM     31  C   UNL     1      34.895 -23.995 -13.948  0.00  0.00    +0.020 C 
ATOM     32  C   UNL     1      34.773 -24.077 -12.561  0.00  0.00    +0.012 C 
ATOM     33  C   UNL     1      36.100 -24.335 -14.564  0.00  0.00    +0.002 C 
ATOM     34  C   UNL     1      35.857 -24.499 -11.790  0.00  0.00    +0.068 C 
ATOM     35  C   UNL     1      37.184 -24.757 -13.793  0.00  0.00    +0.001 C 
ATOM     36  C   UNL     1      37.062 -24.839 -12.406  0.00  0.00    +0.010 C 
BRANCH  34  38
ATOM     37  N   UNL     1      35.633 -24.650  -9.215  0.00  0.00    -0.191 NA
ATOM     38  C   UNL     1      35.733 -24.582 -10.369  0.00  0.00    +0.100 C 
ENDBRANCH  34  38
ENDBRANCH  27  31
ENDBRANCH  23  25
ENDBRANCH   2  23
TORSDOF 8
ENDMDL
MODEL 2
REMARK VINA RESULT:     -12.9      4.046     14.340
REMARK  Name = 25171648
REMARK  8 active torsions:
REMARK  status: ('A' for Active; 'I' for Inactive)
REMARK    1  A    between atoms: C_1  and  C_12
REMARK    2  A    between atoms: C_2  and  C_23
REMARK    3  A    between atoms: C_9  and  O_13
REMARK    4  A    between atoms: O_13  and  C_14
REMARK    5  A    between atoms: C_14  and  C_16
REMARK    6  A    between atoms: C_23  and  N_25
REMARK    7  A    between atoms: C_27  and  C_31
REMARK    8  A    between atoms: C_34  and  C_38
REMARK                            x       y       z     vdW  Elec       q    Type
REMARK                         _______ _______ _______ _____ _____    ______ ____
ROOT
ATOM      1  C   UNL     1      33.761 -13.175 -23.202  0.00  0.00    +0.062 C 
ATOM      2  C   UNL     1      32.447 -11.311 -22.404  0.00  0.00    +0.000 C 
ATOM      3  C   UNL     1      32.869 -12.635 -22.276  0.00  0.00    +0.007 C 
ATOM      4  C   UNL     1      34.232 -12.391 -24.256  0.00  0.00    +0.010 C 
ATOM      5  C   UNL     1      32.917 -10.528 -23.458  0.00  0.00    -0.003 C 
ATOM      6  C   UNL     1      33.810 -11.067 -24.383  0.00  0.00    +0.000 C 
ENDROOT
BRANCH   1  12
ATOM      7  N   UNL     1      34.126 -15.304 -24.176  0.00  0.00    -0.212 NA
ATOM      8  N   UNL     1      34.632 -14.918 -21.852  0.00  0.00    -0.190 NA
ATOM      9  C   UNL     1      35.010 -17.088 -22.823  0.00  0.00    +0.161 C 
ATOM     10  C   UNL     1      34.542 -16.577 -24.017  0.00  0.00    +0.201 C 
ATOM     11  C   UNL     1      35.033 -16.203 -21.764  0.00  0.00    +0.144 C 
ATOM     12  C   UNL     1      34.197 -14.541 -23.070  0.00  0.00    +0.031 C 
BRANCH   9  13
ATOM     13  O   UNL     1      35.426 -18.390 -22.697  0.00  0.00    -0.476 OA
BRANCH  13  14
ATOM     14  C   UNL     1      36.040 -18.755 -21.476  0.00  0.00    +0.205 C 
BRANCH  14  16
ATOM     15  N   UNL     1      33.982 -21.379 -18.731  0.00  0.00    +0.386 N 
ATOM     16  C   UNL     1      35.342 -19.996 -20.931  0.00  0.00    +0.040 C 
ATOM     17  C   UNL     1      33.896 -19.683 -20.531  0.00  0.00    -0.019 C 
ATOM     18  C   UNL     1      36.098 -20.572 -19.729  0.00  0.00    -0.019 C 
ATOM     19  C   UNL     1      33.219 -20.897 -19.891  0.00  0.00    -0.077 C 
ATOM     20  C   UNL     1      35.348 -21.758 -19.116  0.00  0.00    -0.077 C 
ATOM     21  C   UNL     1      33.296 -22.507 -18.100  0.00  0.00    -0.101 C 
ATOM     22  H   UNL     1      34.045 -20.616 -18.057  0.00  0.00    -0.080 HD
ENDBRANCH  14  16
ENDBRANCH  13  14
ENDBRANCH   9  13
ENDBRANCH   1  12
BRANCH   2  23
ATOM     23  C   UNL     1      31.492 -10.733 -21.414  0.00  0.00    +0.146 C 
BRANCH  23  25
ATOM     24  O   UNL     1      31.698  -9.921 -18.674  0.00  0.00    -0.268 OA
ATOM     25  N   UNL     1      31.916  -9.429 -20.934  0.00  0.00    -0.173 N 
ATOM     26  N   UNL     1      32.227  -8.531 -21.916  0.00  0.00    -0.175 NA
ATOM     27  C   UNL     1      32.606  -7.345 -21.563  0.00  0.00    +0.099 C 
ATOM     28  C   UNL     1      31.983  -9.138 -19.580  0.00  0.00    +0.268 C 
ATOM     29  C   UNL     1      32.751  -6.896 -20.166  0.00  0.00    +0.025 C 
ATOM     30  C   UNL     1      32.442  -7.780 -19.220  0.00  0.00    +0.061 C 
BRANCH  27  31
ATOM     31  C   UNL     1      32.943  -6.357 -22.623  0.00  0.00    +0.020 C 
ATOM     32  C   UNL     1      32.012  -5.386 -22.993  0.00  0.00    +0.012 C 
ATOM     33  C   UNL     1      34.190  -6.401 -23.246  0.00  0.00    +0.002 C 
ATOM     34  C   UNL     1      32.329  -4.460 -23.987  0.00  0.00    +0.068 C 
ATOM     35  C   UNL     1      34.508  -5.475 -24.240  0.00  0.00    +0.001 C 
ATOM     36  C   UNL     1      33.577  -4.504 -24.610  0.00  0.00    +0.010 C 
BRANCH  34  38
ATOM     37  N   UNL     1      30.602  -2.658 -24.677  0.00  0.00    -0.191 NA
ATOM     38  C   UNL     1      31.376  -3.465 -24.368  0.00  0.00    +0.100 C 
ENDBRANCH  34  38
ENDBRANCH  27  31
ENDBRANCH  23  25
ENDBRANCH   2  23
TORSDOF 8
ENDMDL
MODEL 3
REMARK VINA RESULT:     -12.8      4.315      8.990
REMARK  Name = 25171648
REMARK  8 active torsions:
REMARK  status: ('A' for Active; 'I' for Inactive)
REMARK    1  A    between atoms: C_1  and  C_12
REMARK    2  A    between atoms: C_2  and  C_23
REMARK    3  A    between atoms: C_9  and  O_13
REMARK    4  A    between atoms: O_13  and  C_14
REMARK    5  A    between atoms: C_14  and  C_16
REMARK    6  A    between atoms: C_23  and  N_25
REMARK    7  A    between atoms: C_27  and  C_31
REMARK    8  A    between atoms: C_34  and  C_38
REMARK                            x       y       z     vdW  Elec       q    Type
REMARK                         _______ _______ _______ _____ _____    ______ ____
ROOT
ATOM      1  C   UNL     1      33.036 -12.341 -21.714  0.00  0.00    +0.062 C 
ATOM      2  C   UNL     1      34.327 -14.356 -22.050  0.00  0.00    +0.000 C 
ATOM      3  C   UNL     1      33.945 -13.082 -22.470  0.00  0.00    +0.007 C 
ATOM      4  C   UNL     1      32.510 -12.876 -20.538  0.00  0.00    +0.010 C 
ATOM      5  C   UNL     1      33.800 -14.890 -20.874  0.00  0.00    -0.003 C 
ATOM      6  C   UNL     1      32.893 -14.149 -20.118  0.00  0.00    +0.000 C 
ENDROOT
BRANCH   1  12
ATOM      7  N   UNL     1      31.681 -10.419 -21.428  0.00  0.00    -0.212 NA
ATOM      8  N   UNL     1      33.276 -10.535 -23.230  0.00  0.00    -0.190 NA
ATOM      9  C   UNL     1      31.908  -8.574 -22.957  0.00  0.00    +0.161 C 
ATOM     10  C   UNL     1      31.336  -9.189 -21.862  0.00  0.00    +0.201 C 
ATOM     11  C   UNL     1      32.883  -9.301 -23.608  0.00  0.00    +0.144 C 
ATOM     12  C   UNL     1      32.642 -11.026 -22.148  0.00  0.00    +0.031 C 
BRANCH   9  13
ATOM     13  O   UNL     1      31.533  -7.319 -23.369  0.00  0.00    -0.476 OA
BRANCH  13  14
ATOM     14  C   UNL     1      32.076  -6.220 -22.663  0.00  0.00    +0.205 C 
BRANCH  14  16
ATOM     15  N   UNL     1      33.806  -4.764 -26.343  0.00  0.00    +0.386 N 
ATOM     16  C   UNL     1      32.724  -5.270 -23.665  0.00  0.00    +0.040 C 
ATOM     17  C   UNL     1      31.826  -5.065 -24.890  0.00  0.00    -0.019 C 
ATOM     18  C   UNL     1      34.095  -5.789 -24.110  0.00  0.00    -0.019 C 
ATOM     19  C   UNL     1      32.512  -4.193 -25.944  0.00  0.00    -0.077 C 
ATOM     20  C   UNL     1      34.707  -4.893 -25.189  0.00  0.00    -0.077 C 
ATOM     21  C   UNL     1      34.425  -3.948 -27.387  0.00  0.00    -0.101 C 
ATOM     22  H   UNL     1      33.636  -5.698 -26.716  0.00  0.00    -0.080 HD
ENDBRANCH  14  16
ENDBRANCH  13  14
ENDBRANCH   9  13
ENDBRANCH   1  12
BRANCH   2  23
ATOM     23  C   UNL     1      35.299 -15.149 -22.859  0.00  0.00    +0.146 C 
BRANCH  23  25
ATOM     24  O   UNL     1      33.952 -16.159 -25.178  0.00  0.00    -0.268 OA
ATOM     25  N   UNL     1      34.856 -16.517 -23.067  0.00  0.00    -0.173 N 
ATOM     26  N   UNL     1      35.118 -17.367 -22.031  0.00  0.00    -0.175 NA
ATOM     27  C   UNL     1      34.746 -18.602 -22.142  0.00  0.00    +0.099 C 
ATOM     28  C   UNL     1      34.213 -16.904 -24.233  0.00  0.00    +0.268 C 
ATOM     29  C   UNL     1      34.076 -19.168 -23.328  0.00  0.00    +0.025 C 
ATOM     30  C   UNL     1      33.825 -18.327 -24.329  0.00  0.00    +0.061 C 
BRANCH  27  31
ATOM     31  C   UNL     1      35.021 -19.536 -21.018  0.00  0.00    +0.020 C 
ATOM     32  C   UNL     1      33.965 -20.167 -20.360  0.00  0.00    +0.012 C 
ATOM     33  C   UNL     1      36.336 -19.783 -20.623  0.00  0.00    +0.002 C 
ATOM     34  C   UNL     1      34.224 -21.043 -19.306  0.00  0.00    +0.068 C 
ATOM     35  C   UNL     1      36.596 -20.659 -19.569  0.00  0.00    +0.001 C 
ATOM     36  C   UNL     1      35.540 -21.290 -18.911  0.00  0.00    +0.010 C 
BRANCH  34  38
ATOM     37  N   UNL     1      32.265 -22.214 -18.083  0.00  0.00    -0.191 NA
ATOM     38  C   UNL     1      33.143 -21.689 -18.631  0.00  0.00    +0.100 C 
ENDBRANCH  34  38
ENDBRANCH  27  31
ENDBRANCH  23  25
ENDBRANCH   2  23
TORSDOF 8
ENDMDL
MODEL 4
REMARK VINA RESULT:     -12.6      2.209      3.724
REMARK  Name = 25171648
REMARK  8 active torsions:
REMARK  status: ('A' for Active; 'I' for Inactive)
REMARK    1  A    between atoms: C_1  and  C_12
REMARK    2  A    between atoms: C_2  and  C_23
REMARK    3  A    between atoms: C_9  and  O_13
REMARK    4  A    between atoms: O_13  and  C_14
REMARK    5  A    between atoms: C_14  and  C_16
REMARK    6  A    between atoms: C_23  and  N_25
REMARK    7  A    between atoms: C_27  and  C_31
REMARK    8  A    between atoms: C_34  and  C_38
REMARK                            x       y       z     vdW  Elec       q    Type
REMARK                         _______ _______ _______ _____ _____    ______ ____
ROOT
ATOM      1  C   UNL     1      34.484 -20.131 -20.293  0.00  0.00    +0.062 C 
ATOM      2  C   UNL     1      35.464 -21.569 -18.616  0.00  0.00    +0.000 C 
ATOM      3  C   UNL     1      35.609 -20.613 -19.623  0.00  0.00    +0.007 C 
ATOM      4  C   UNL     1      33.216 -20.604 -19.957  0.00  0.00    +0.010 C 
ATOM      5  C   UNL     1      34.196 -22.042 -18.281  0.00  0.00    -0.003 C 
ATOM      6  C   UNL     1      33.072 -21.559 -18.950  0.00  0.00    +0.000 C 
ENDROOT
BRANCH   1  12
ATOM      7  N   UNL     1      35.272 -18.009 -20.993  0.00  0.00    -0.212 NA
ATOM      8  N   UNL     1      34.121 -19.458 -22.536  0.00  0.00    -0.190 NA
ATOM      9  C   UNL     1      34.913 -17.306 -23.268  0.00  0.00    +0.161 C 
ATOM     10  C   UNL     1      35.395 -17.107 -21.990  0.00  0.00    +0.201 C 
ATOM     11  C   UNL     1      34.279 -18.513 -23.485  0.00  0.00    +0.144 C 
ATOM     12  C   UNL     1      34.634 -19.145 -21.331  0.00  0.00    +0.031 C 
BRANCH   9  13
ATOM     13  O   UNL     1      35.056 -16.366 -24.258  0.00  0.00    -0.476 OA
BRANCH  13  14
ATOM     14  C   UNL     1      33.908 -15.614 -24.604  0.00  0.00    +0.205 C 
BRANCH  14  16
ATOM     15  N   UNL     1      33.105 -11.497 -23.578  0.00  0.00    +0.386 N 
ATOM     16  C   UNL     1      34.154 -14.154 -24.236  0.00  0.00    +0.040 C 
ATOM     17  C   UNL     1      33.551 -13.823 -22.866  0.00  0.00    -0.019 C 
ATOM     18  C   UNL     1      33.574 -13.213 -25.297  0.00  0.00    -0.019 C 
ATOM     19  C   UNL     1      33.705 -12.338 -22.533  0.00  0.00    -0.077 C 
ATOM     20  C   UNL     1      33.728 -11.747 -24.884  0.00  0.00    -0.077 C 
ATOM     21  C   UNL     1      33.214 -10.082 -23.221  0.00  0.00    -0.101 C 
ATOM     22  H   UNL     1      32.117 -11.741 -23.648  0.00  0.00    -0.080 HD
ENDBRANCH  14  16
ENDBRANCH  13  14
ENDBRANCH   9  13
ENDBRANCH   1  12
BRANCH   2  23
ATOM     23  C   UNL     1      36.666 -22.086 -17.899  0.00  0.00    +0.146 C 
BRANCH  23  25
ATOM     24  O   UNL     1      38.536 -21.971 -15.731  0.00  0.00    -0.268 OA
ATOM     25  N   UNL     1      36.387 -22.396 -16.507  0.00  0.00    -0.173 N 
ATOM     26  N   UNL     1      35.103 -22.784 -16.253  0.00  0.00    -0.175 NA
ATOM     27  C   UNL     1      34.783 -23.084 -15.036  0.00  0.00    +0.099 C 
ATOM     28  C   UNL     1      37.369 -22.306 -15.531  0.00  0.00    +0.268 C 
ATOM     29  C   UNL     1      35.706 -23.012 -13.888  0.00  0.00    +0.025 C 
ATOM     30  C   UNL     1      36.956 -22.634 -14.151  0.00  0.00    +0.061 C 
BRANCH  27  31
ATOM     31  C   UNL     1      33.388 -23.513 -14.747  0.00  0.00    +0.020 C 
ATOM     32  C   UNL     1      32.333 -23.022 -15.517  0.00  0.00    +0.012 C 
ATOM     33  C   UNL     1      33.136 -24.408 -13.707  0.00  0.00    +0.002 C 
ATOM     34  C   UNL     1      31.026 -23.426 -15.245  0.00  0.00    +0.068 C 
ATOM     35  C   UNL     1      31.828 -24.811 -13.435  0.00  0.00    +0.001 C 
ATOM     36  C   UNL     1      30.773 -24.321 -14.205  0.00  0.00    +0.010 C 
BRANCH  34  38
ATOM     37  N   UNL     1      29.066 -22.514 -16.672  0.00  0.00    -0.191 NA
ATOM     38  C   UNL     1      29.944 -22.923 -16.032  0.00  0.00    +0.100 C 
ENDBRANCH  34  38
ENDBRANCH  27  31
ENDBRANCH  23  25
ENDBRANCH   2  23
TORSDOF 8
ENDMDL
MODEL 5
REMARK VINA RESULT:     -12.3      1.361      2.116
REMARK  Name = 25171648
REMARK  8 active torsions:
REMARK  status: ('A' for Active; 'I' for Inactive)
REMARK    1  A    between atoms: C_1  and  C_12
REMARK    2  A    between atoms: C_2  and  C_23
REMARK    3  A    between atoms: C_9  and  O_13
REMARK    4  A    between atoms: O_13  and  C_14
REMARK    5  A    between atoms: C_14  and  C_16
REMARK    6  A    between atoms: C_23  and  N_25
REMARK    7  A    between atoms: C_27  and  C_31
REMARK    8  A    between atoms: C_34  and  C_38
REMARK                            x       y       z     vdW  Elec       q    Type
REMARK                         _______ _______ _______ _____ _____    ______ ____
ROOT
ATOM      1  C   UNL     1      35.232 -20.432 -19.771  0.00  0.00    +0.062 C 
ATOM      2  C   UNL     1      34.219 -22.186 -18.453  0.00  0.00    +0.000 C 
ATOM      3  C   UNL     1      34.128 -21.228 -19.463  0.00  0.00    +0.007 C 
ATOM      4  C   UNL     1      36.425 -20.594 -19.067  0.00  0.00    +0.010 C 
ATOM      5  C   UNL     1      35.413 -22.347 -17.750  0.00  0.00    -0.003 C 
ATOM      6  C   UNL     1      36.516 -21.552 -18.058  0.00  0.00    +0.000 C 
ENDROOT
BRANCH   1  12
ATOM      7  N   UNL     1      34.393 -19.770 -21.886  0.00  0.00    -0.212 NA
ATOM      8  N   UNL     1      35.804 -18.290 -20.610  0.00  0.00    -0.190 NA
ATOM      9  C   UNL     1      34.963 -17.599 -22.757  0.00  0.00    +0.161 C 
ATOM     10  C   UNL     1      34.327 -18.821 -22.843  0.00  0.00    +0.201 C 
ATOM     11  C   UNL     1      35.693 -17.387 -21.606  0.00  0.00    +0.144 C 
ATOM     12  C   UNL     1      35.138 -19.444 -20.813  0.00  0.00    +0.031 C 
BRANCH   9  13
ATOM     13  O   UNL     1      34.872 -16.657 -23.751  0.00  0.00    -0.476 OA
BRANCH  13  14
ATOM     14  C   UNL     1      35.210 -15.326 -23.409  0.00  0.00    +0.205 C 
BRANCH  14  16
ATOM     15  N   UNL     1      32.711 -12.283 -21.633  0.00  0.00    +0.386 N 
ATOM     16  C   UNL     1      33.976 -14.645 -22.824  0.00  0.00    +0.040 C 
ATOM     17  C   UNL     1      33.580 -13.418 -23.653  0.00  0.00    -0.019 C 
ATOM     18  C   UNL     1      34.213 -14.231 -21.368  0.00  0.00    -0.019 C 
ATOM     19  C   UNL     1      32.405 -12.672 -23.017  0.00  0.00    -0.077 C 
ATOM     20  C   UNL     1      33.016 -13.459 -20.807  0.00  0.00    -0.077 C 
ATOM     21  C   UNL     1      31.599 -11.527 -21.057  0.00  0.00    -0.101 C 
ATOM     22  H   UNL     1      33.538 -11.687 -21.650  0.00  0.00    -0.080 HD
ENDBRANCH  14  16
ENDBRANCH  13  14
ENDBRANCH   9  13
ENDBRANCH   1  12
BRANCH   2  23
ATOM     23  C   UNL     1      33.039 -23.037 -18.123  0.00  0.00    +0.146 C 
BRANCH  23  25
ATOM     24  O   UNL     1      30.555 -22.363 -16.864  0.00  0.00    -0.268 OA
ATOM     25  N   UNL     1      32.763 -23.069 -16.697  0.00  0.00    -0.173 N 
ATOM     26  N   UNL     1      33.817 -23.452 -15.918  0.00  0.00    -0.175 NA
ATOM     27  C   UNL     1      33.646 -23.496 -14.635  0.00  0.00    +0.099 C 
ATOM     28  C   UNL     1      31.519 -22.724 -16.189  0.00  0.00    +0.268 C 
ATOM     29  C   UNL     1      32.378 -23.184 -13.950  0.00  0.00    +0.025 C 
ATOM     30  C   UNL     1      31.360 -22.810 -14.722  0.00  0.00    +0.061 C 
BRANCH  27  31
ATOM     31  C   UNL     1      34.789 -23.907 -13.776  0.00  0.00    +0.020 C 
ATOM     32  C   UNL     1      36.062 -24.049 -14.327  0.00  0.00    +0.012 C 
ATOM     33  C   UNL     1      34.586 -24.149 -12.417  0.00  0.00    +0.002 C 
ATOM     34  C   UNL     1      37.132 -24.434 -13.520  0.00  0.00    +0.068 C 
ATOM     35  C   UNL     1      35.656 -24.534 -11.609  0.00  0.00    +0.001 C 
ATOM     36  C   UNL     1      36.930 -24.676 -12.160  0.00  0.00    +0.010 C 
BRANCH  34  38
ATOM     37  N   UNL     1      39.497 -24.701 -14.543  0.00  0.00    -0.191 NA
ATOM     38  C   UNL     1      38.437 -24.581 -14.084  0.00  0.00    +0.100 C 
ENDBRANCH  34  38
ENDBRANCH  27  31
ENDBRANCH  23  25
ENDBRANCH   2  23
TORSDOF 8
ENDMDL
MODEL 6
REMARK VINA RESULT:     -12.1      4.214      9.068
REMARK  Name = 25171648
REMARK  8 active torsions:
REMARK  status: ('A' for Active; 'I' for Inactive)
REMARK    1  A    between atoms: C_1  and  C_12
REMARK    2  A    between atoms: C_2  and  C_23
REMARK    3  A    between atoms: C_9  and  O_13
REMARK    4  A    between atoms: O_13  and  C_14
REMARK    5  A    between atoms: C_14  and  C_16
REMARK    6  A    between atoms: C_23  and  N_25
REMARK    7  A    between atoms: C_27  and  C_31
REMARK    8  A    between atoms: C_34  and  C_38
REMARK                            x       y       z     vdW  Elec       q    Type
REMARK                         _______ _______ _______ _____ _____    ______ ____
ROOT
ATOM      1  C   UNL     1      33.287 -12.424 -21.813  0.00  0.00    +0.062 C 
ATOM      2  C   UNL     1      34.431 -14.528 -22.133  0.00  0.00    +0.000 C 
ATOM      3  C   UNL     1      34.156 -13.226 -22.553  0.00  0.00    +0.007 C 
ATOM      4  C   UNL     1      32.694 -12.924 -20.654  0.00  0.00    +0.010 C 
ATOM      5  C   UNL     1      33.838 -15.027 -20.974  0.00  0.00    -0.003 C 
ATOM      6  C   UNL     1      32.970 -14.225 -20.234  0.00  0.00    +0.000 C 
ENDROOT
BRANCH   1  12
ATOM      7  N   UNL     1      33.668 -10.646 -23.333  0.00  0.00    -0.212 NA
ATOM      8  N   UNL     1      32.099 -10.394 -21.521  0.00  0.00    -0.190 NA
ATOM      9  C   UNL     1      32.472  -8.576 -23.054  0.00  0.00    +0.161 C 
ATOM     10  C   UNL     1      33.377  -9.384 -23.711  0.00  0.00    +0.201 C 
ATOM     11  C   UNL     1      31.856  -9.140 -21.955  0.00  0.00    +0.144 C 
ATOM     12  C   UNL     1      33.003 -11.081 -22.246  0.00  0.00    +0.031 C 
BRANCH   9  13
ATOM     13  O   UNL     1      32.200  -7.295 -23.468  0.00  0.00    -0.476 OA
BRANCH  13  14
ATOM     14  C   UNL     1      32.673  -6.241 -22.651  0.00  0.00    +0.205 C 
BRANCH  14  16
ATOM     15  N   UNL     1      30.747  -3.019 -24.789  0.00  0.00    +0.386 N 
ATOM     16  C   UNL     1      32.491  -4.925 -23.402  0.00  0.00    +0.040 C 
ATOM     17  C   UNL     1      31.531  -3.993 -22.654  0.00  0.00    -0.019 C 
ATOM     18  C   UNL     1      31.973  -5.168 -24.824  0.00  0.00    -0.019 C 
ATOM     19  C   UNL     1      31.265  -2.713 -23.449  0.00  0.00    -0.077 C 
ATOM     20  C   UNL     1      31.693  -3.849 -25.547  0.00  0.00    -0.077 C 
ATOM     21  C   UNL     1      30.449  -1.786 -25.517  0.00  0.00    -0.101 C 
ATOM     22  H   UNL     1      29.883  -3.550 -24.678  0.00  0.00    -0.080 HD
ENDBRANCH  14  16
ENDBRANCH  13  14
ENDBRANCH   9  13
ENDBRANCH   1  12
BRANCH   2  23
ATOM     23  C   UNL     1      35.360 -15.386 -22.924  0.00  0.00    +0.146 C 
BRANCH  23  25
ATOM     24  O   UNL     1      33.871 -16.423 -25.142  0.00  0.00    -0.268 OA
ATOM     25  N   UNL     1      34.868 -16.746 -23.068  0.00  0.00    -0.173 N 
ATOM     26  N   UNL     1      35.156 -17.572 -22.019  0.00  0.00    -0.175 NA
ATOM     27  C   UNL     1      34.742 -18.798 -22.073  0.00  0.00    +0.099 C 
ATOM     28  C   UNL     1      34.156 -17.147 -24.188  0.00  0.00    +0.268 C 
ATOM     29  C   UNL     1      33.997 -19.378 -23.206  0.00  0.00    +0.025 C 
ATOM     30  C   UNL     1      33.722 -18.560 -24.220  0.00  0.00    +0.061 C 
BRANCH  27  31
ATOM     31  C   UNL     1      35.045 -19.706 -20.935  0.00  0.00    +0.020 C 
ATOM     32  C   UNL     1      34.010 -20.375 -20.282  0.00  0.00    +0.012 C 
ATOM     33  C   UNL     1      36.365 -19.890 -20.522  0.00  0.00    +0.002 C 
ATOM     34  C   UNL     1      34.295 -21.227 -19.215  0.00  0.00    +0.068 C 
ATOM     35  C   UNL     1      36.650 -20.742 -19.455  0.00  0.00    +0.001 C 
ATOM     36  C   UNL     1      35.615 -21.411 -18.802  0.00  0.00    +0.010 C 
BRANCH  34  38
ATOM     37  N   UNL     1      32.375 -22.469 -17.999  0.00  0.00    -0.191 NA
ATOM     38  C   UNL     1      33.236 -21.912 -18.544  0.00  0.00    +0.100 C 
ENDBRANCH  34  38
ENDBRANCH  27  31
ENDBRANCH  23  25
ENDBRANCH   2  23
TORSDOF 8
ENDMDL
MODEL 7
REMARK VINA RESULT:     -12.1      3.991     15.002
REMARK  Name = 25171648
REMARK  8 active torsions:
REMARK  status: ('A' for Active; 'I' for Inactive)
REMARK    1  A    between atoms: C_1  and  C_12
REMARK    2  A    between atoms: C_2  and  C_23
REMARK    3  A    between atoms: C_9  and  O_13
REMARK    4  A    between atoms: O_13  and  C_14
REMARK    5  A    between atoms: C_14  and  C_16
REMARK    6  A    between atoms: C_23  and  N_25
REMARK    7  A    between atoms: C_27  and  C_31
REMARK    8  A    between atoms: C_34  and  C_38
REMARK                            x       y       z     vdW  Elec       q    Type
REMARK                         _______ _______ _______ _____ _____    ______ ____
ROOT
ATOM      1  C   UNL     1      33.995 -13.727 -24.284  0.00  0.00    +0.062 C 
ATOM      2  C   UNL     1      33.989 -11.350 -23.851  0.00  0.00    +0.000 C 
ATOM      3  C   UNL     1      34.252 -12.654 -23.431  0.00  0.00    +0.007 C 
ATOM      4  C   UNL     1      33.474 -13.496 -25.557  0.00  0.00    +0.010 C 
ATOM      5  C   UNL     1      33.468 -11.119 -25.124  0.00  0.00    -0.003 C 
ATOM      6  C   UNL     1      33.211 -12.192 -25.977  0.00  0.00    +0.000 C 
ENDROOT
BRANCH   1  12
ATOM      7  N   UNL     1      33.954 -16.057 -24.713  0.00  0.00    -0.212 NA
ATOM      8  N   UNL     1      34.808 -15.211 -22.624  0.00  0.00    -0.190 NA
ATOM      9  C   UNL     1      34.775 -17.582 -23.040  0.00  0.00    +0.161 C 
ATOM     10  C   UNL     1      34.222 -17.304 -24.274  0.00  0.00    +0.201 C 
ATOM     11  C   UNL     1      35.050 -16.484 -22.250  0.00  0.00    +0.144 C 
ATOM     12  C   UNL     1      34.267 -15.073 -23.850  0.00  0.00    +0.031 C 
BRANCH   9  13
ATOM     13  O   UNL     1      35.035 -18.865 -22.627  0.00  0.00    -0.476 OA
BRANCH  13  14
ATOM     14  C   UNL     1      36.023 -19.031 -21.628  0.00  0.00    +0.205 C 
BRANCH  14  16
ATOM     15  N   UNL     1      34.135 -21.965 -19.082  0.00  0.00    +0.386 N 
ATOM     16  C   UNL     1      35.371 -19.655 -20.398  0.00  0.00    +0.040 C 
ATOM     17  C   UNL     1      36.190 -20.845 -19.885  0.00  0.00    -0.019 C 
ATOM     18  C   UNL     1      33.938 -20.105 -20.701  0.00  0.00    -0.019 C 
ATOM     19  C   UNL     1      35.492 -21.538 -18.713  0.00  0.00    -0.077 C 
ATOM     20  C   UNL     1      33.314 -20.821 -19.501  0.00  0.00    -0.077 C 
ATOM     21  C   UNL     1      33.500 -22.670 -17.968  0.00  0.00    -0.101 C 
ATOM     22  H   UNL     1      34.212 -22.605 -19.872  0.00  0.00    -0.080 HD
ENDBRANCH  14  16
ENDBRANCH  13  14
ENDBRANCH   9  13
ENDBRANCH   1  12
BRANCH   2  23
ATOM     23  C   UNL     1      34.264 -10.201 -22.939  0.00  0.00    +0.146 C 
BRANCH  23  25
ATOM     24  O   UNL     1      31.642 -10.536 -21.831  0.00  0.00    -0.268 OA
ATOM     25  N   UNL     1      33.194  -9.218 -22.952  0.00  0.00    -0.173 N 
ATOM     26  N   UNL     1      33.507  -8.041 -23.569  0.00  0.00    -0.175 NA
ATOM     27  C   UNL     1      32.600  -7.119 -23.625  0.00  0.00    +0.099 C 
ATOM     28  C   UNL     1      31.957  -9.481 -22.383  0.00  0.00    +0.268 C 
ATOM     29  C   UNL     1      31.249  -7.240 -23.045  0.00  0.00    +0.025 C 
ATOM     30  C   UNL     1      30.958  -8.394 -22.449  0.00  0.00    +0.061 C 
BRANCH  27  31
ATOM     31  C   UNL     1      32.926  -5.834 -24.299  0.00  0.00    +0.020 C 
ATOM     32  C   UNL     1      31.952  -4.843 -24.422  0.00  0.00    +0.012 C 
ATOM     33  C   UNL     1      34.208  -5.619 -24.806  0.00  0.00    +0.002 C 
ATOM     34  C   UNL     1      32.260  -3.638 -25.054  0.00  0.00    +0.068 C 
ATOM     35  C   UNL     1      34.516  -4.414 -25.438  0.00  0.00    +0.001 C 
ATOM     36  C   UNL     1      33.542  -3.423 -25.562  0.00  0.00    +0.010 C 
BRANCH  34  38
ATOM     37  N   UNL     1      30.453  -1.798 -25.286  0.00  0.00    -0.191 NA
ATOM     38  C   UNL     1      31.263  -2.622 -25.182  0.00  0.00    +0.100 C 
ENDBRANCH  34  38
ENDBRANCH  27  31
ENDBRANCH  23  25
ENDBRANCH   2  23
TORSDOF 8
ENDMDL
MODEL 8
REMARK VINA RESULT:     -11.8      3.530      5.058
REMARK  Name = 25171648
REMARK  8 active torsions:
REMARK  status: ('A' for Active; 'I' for Inactive)
REMARK    1  A    between atoms: C_1  and  C_12
REMARK    2  A    between atoms: C_2  and  C_23
REMARK    3  A    between atoms: C_9  and  O_13
REMARK    4  A    between atoms: O_13  and  C_14
REMARK    5  A    between atoms: C_14  and  C_16
REMARK    6  A    between atoms: C_23  and  N_25
REMARK    7  A    between atoms: C_27  and  C_31
REMARK    8  A    between atoms: C_34  and  C_38
REMARK                            x       y       z     vdW  Elec       q    Type
REMARK                         _______ _______ _______ _____ _____    ______ ____
ROOT
ATOM      1  C   UNL     1      34.897 -21.984 -17.632  0.00  0.00    +0.062 C 
ATOM      2  C   UNL     1      36.186 -22.736 -15.731  0.00  0.00    +0.000 C 
ATOM      3  C   UNL     1      36.083 -21.978 -16.899  0.00  0.00    +0.007 C 
ATOM      4  C   UNL     1      33.814 -22.749 -17.198  0.00  0.00    +0.010 C 
ATOM      5  C   UNL     1      35.102 -23.500 -15.299  0.00  0.00    -0.003 C 
ATOM      6  C   UNL     1      33.916 -23.505 -16.031  0.00  0.00    +0.000 C 
ENDROOT
BRANCH   1  12
ATOM      7  N   UNL     1      35.943 -20.732 -19.350  0.00  0.00    -0.212 NA
ATOM      8  N   UNL     1      33.550 -21.020 -19.328  0.00  0.00    -0.190 NA
ATOM      9  C   UNL     1      34.593 -19.744 -21.082  0.00  0.00    +0.161 C 
ATOM     10  C   UNL     1      35.806 -20.004 -20.478  0.00  0.00    +0.201 C 
ATOM     11  C   UNL     1      33.488 -20.284 -20.457  0.00  0.00    +0.144 C 
ATOM     12  C   UNL     1      34.791 -21.202 -18.836  0.00  0.00    +0.031 C 
BRANCH   9  13
ATOM     13  O   UNL     1      34.493 -19.000 -22.231  0.00  0.00    -0.476 OA
BRANCH  13  14
ATOM     14  C   UNL     1      35.691 -18.463 -22.757  0.00  0.00    +0.205 C 
BRANCH  14  16
ATOM     15  N   UNL     1      33.632 -14.711 -23.342  0.00  0.00    +0.386 N 
ATOM     16  C   UNL     1      35.447 -17.005 -23.134  0.00  0.00    +0.040 C 
ATOM     17  C   UNL     1      35.012 -16.186 -21.913  0.00  0.00    -0.019 C 
ATOM     18  C   UNL     1      34.390 -16.889 -24.238  0.00  0.00    -0.019 C 
ATOM     19  C   UNL     1      34.668 -14.747 -22.301  0.00  0.00    -0.077 C 
ATOM     20  C   UNL     1      34.068 -15.426 -24.549  0.00  0.00    -0.077 C 
ATOM     21  C   UNL     1      33.278 -13.329 -23.665  0.00  0.00    -0.101 C 
ATOM     22  H   UNL     1      32.805 -15.184 -22.978  0.00  0.00    -0.080 HD
ENDBRANCH  14  16
ENDBRANCH  13  14
ENDBRANCH   9  13
ENDBRANCH   1  12
BRANCH   2  23
ATOM     23  C   UNL     1      37.455 -22.730 -14.947  0.00  0.00    +0.146 C 
BRANCH  23  25
ATOM     24  O   UNL     1      37.151 -22.909 -12.103  0.00  0.00    -0.268 OA
ATOM     25  N   UNL     1      37.610 -23.929 -14.140  0.00  0.00    -0.173 N 
ATOM     26  N   UNL     1      37.943 -25.052 -14.842  0.00  0.00    -0.175 NA
ATOM     27  C   UNL     1      38.105 -26.157 -14.189  0.00  0.00    +0.099 C 
ATOM     28  C   UNL     1      37.438 -23.907 -12.764  0.00  0.00    +0.268 C 
ATOM     29  C   UNL     1      37.933 -26.298 -12.731  0.00  0.00    +0.025 C 
ATOM     30  C   UNL     1      37.611 -25.195 -12.059  0.00  0.00    +0.061 C 
BRANCH  27  31
ATOM     31  C   UNL     1      38.472 -27.386 -14.942  0.00  0.00    +0.020 C 
ATOM     32  C   UNL     1      39.790 -27.585 -15.354  0.00  0.00    +0.012 C 
ATOM     33  C   UNL     1      37.498 -28.341 -15.235  0.00  0.00    +0.002 C 
ATOM     34  C   UNL     1      40.133 -28.739 -16.059  0.00  0.00    +0.068 C 
ATOM     35  C   UNL     1      37.841 -29.494 -15.940  0.00  0.00    +0.001 C 
ATOM     36  C   UNL     1      39.158 -29.694 -16.352  0.00  0.00    +0.010 C 
BRANCH  34  38
ATOM     37  N   UNL     1      42.579 -29.109 -16.827  0.00  0.00    -0.191 NA
ATOM     38  C   UNL     1      41.483 -28.943 -16.483  0.00  0.00    +0.100 C 
ENDBRANCH  34  38
ENDBRANCH  27  31
ENDBRANCH  23  25
ENDBRANCH   2  23
TORSDOF 8
ENDMDL
MODEL 9
REMARK VINA RESULT:     -11.5      3.345      6.431
REMARK  Name = 25171648
REMARK  8 active torsions:
REMARK  status: ('A' for Active; 'I' for Inactive)
REMARK    1  A    between atoms: C_1  and  C_12
REMARK    2  A    between atoms: C_2  and  C_23
REMARK    3  A    between atoms: C_9  and  O_13
REMARK    4  A    between atoms: O_13  and  C_14
REMARK    5  A    between atoms: C_14  and  C_16
REMARK    6  A    between atoms: C_23  and  N_25
REMARK    7  A    between atoms: C_27  and  C_31
REMARK    8  A    between atoms: C_34  and  C_38
REMARK                            x       y       z     vdW  Elec       q    Type
REMARK                         _______ _______ _______ _____ _____    ______ ____
ROOT
ATOM      1  C   UNL     1      34.032 -23.303 -15.247  0.00  0.00    +0.062 C 
ATOM      2  C   UNL     1      34.307 -24.041 -12.962  0.00  0.00    +0.000 C 
ATOM      3  C   UNL     1      34.848 -23.510 -14.134  0.00  0.00    +0.007 C 
ATOM      4  C   UNL     1      32.677 -23.627 -15.187  0.00  0.00    +0.010 C 
ATOM      5  C   UNL     1      32.952 -24.364 -12.904  0.00  0.00    -0.003 C 
ATOM      6  C   UNL     1      32.136 -24.156 -14.016  0.00  0.00    +0.000 C 
ENDROOT
BRANCH   1  12
ATOM      7  N   UNL     1      33.764 -22.674 -17.516  0.00  0.00    -0.212 NA
ATOM      8  N   UNL     1      35.882 -22.380 -16.406  0.00  0.00    -0.190 NA
ATOM      9  C   UNL     1      35.631 -21.735 -18.711  0.00  0.00    +0.161 C 
ATOM     10  C   UNL     1      34.319 -22.156 -18.631  0.00  0.00    +0.201 C 
ATOM     11  C   UNL     1      36.372 -21.871 -17.555  0.00  0.00    +0.144 C 
ATOM     12  C   UNL     1      34.590 -22.756 -16.456  0.00  0.00    +0.031 C 
BRANCH   9  13
ATOM     13  O   UNL     1      36.162 -21.212 -19.864  0.00  0.00    -0.476 OA
BRANCH  13  14
ATOM     14  C   UNL     1      36.552 -19.852 -19.834  0.00  0.00    +0.205 C 
BRANCH  14  16
ATOM     15  N   UNL     1      34.983 -17.889 -23.346  0.00  0.00    +0.386 N 
ATOM     16  C   UNL     1      35.609 -19.055 -20.730  0.00  0.00    +0.040 C 
ATOM     17  C   UNL     1      35.131 -19.902 -21.915  0.00  0.00    -0.019 C 
ATOM     18  C   UNL     1      36.283 -17.779 -21.244  0.00  0.00    -0.019 C 
ATOM     19  C   UNL     1      34.265 -19.081 -22.873  0.00  0.00    -0.077 C 
ATOM     20  C   UNL     1      35.379 -17.028 -22.224  0.00  0.00    -0.077 C 
ATOM     21  C   UNL     1      34.161 -17.142 -24.300  0.00  0.00    -0.101 C 
ATOM     22  H   UNL     1      35.831 -18.200 -23.819  0.00  0.00    -0.080 HD
ENDBRANCH  14  16
ENDBRANCH  13  14
ENDBRANCH   9  13
ENDBRANCH   1  12
BRANCH   2  23
ATOM     23  C   UNL     1      35.179 -24.263 -11.772  0.00  0.00    +0.146 C 
BRANCH  23  25
ATOM     24  O   UNL     1      37.470 -22.904 -10.716  0.00  0.00    -0.268 OA
ATOM     25  N   UNL     1      36.564 -24.502 -12.139  0.00  0.00    -0.173 N 
ATOM     26  N   UNL     1      36.746 -25.467 -13.088  0.00  0.00    -0.175 NA
ATOM     27  C   UNL     1      37.954 -25.730 -13.471  0.00  0.00    +0.099 C 
ATOM     28  C   UNL     1      37.604 -23.787 -11.564  0.00  0.00    +0.268 C 
ATOM     29  C   UNL     1      39.161 -25.074 -12.935  0.00  0.00    +0.025 C 
ATOM     30  C   UNL     1      38.968 -24.133 -12.012  0.00  0.00    +0.061 C 
BRANCH  27  31
ATOM     31  C   UNL     1      38.164 -26.776 -14.508  0.00  0.00    +0.020 C 
ATOM     32  C   UNL     1      39.457 -27.190 -14.829  0.00  0.00    +0.012 C 
ATOM     33  C   UNL     1      37.068 -27.344 -15.157  0.00  0.00    +0.002 C 
ATOM     34  C   UNL     1      39.653 -28.171 -15.801  0.00  0.00    +0.068 C 
ATOM     35  C   UNL     1      37.264 -28.325 -16.129  0.00  0.00    +0.001 C 
ATOM     36  C   UNL     1      38.556 -28.739 -16.451  0.00  0.00    +0.010 C 
BRANCH  34  38
ATOM     37  N   UNL     1      42.052 -28.940 -16.401  0.00  0.00    -0.191 NA
ATOM     38  C   UNL     1      40.977 -28.595 -16.132  0.00  0.00    +0.100 C 
ENDBRANCH  34  38
ENDBRANCH  27  31
ENDBRANCH  23  25
ENDBRANCH   2  23
TORSDOF 8
ENDMDL
