MODEL 1
REMARK VINA RESULT:     -11.6      0.000      0.000
REMARK  Name = 66555680
REMARK  4 active torsions:
REMARK  status: ('A' for Active; 'I' for Inactive)
REMARK    1  A    between atoms: N_1  and  C_8
REMARK    2  A    between atoms: C_3  and  C_22
REMARK    3  A    between atoms: C_4  and  N_18
REMARK    4  A    between atoms: C_22  and  C_24
REMARK                            x       y       z     vdW  Elec       q    Type
REMARK                         _______ _______ _______ _____ _____    ______ ____
ROOT
ATOM      1  N   UNL     1      33.270 -10.940 -23.151  0.00  0.00    -0.177 N 
ATOM      2  N   UNL     1      32.690 -11.603 -22.136  0.00  0.00    -0.171 NA
ATOM      3  C   UNL     1      33.459 -13.035 -23.741  0.00  0.00    +0.090 C 
ATOM      4  C   UNL     1      33.747 -11.751 -24.139  0.00  0.00    +0.122 C 
ATOM      5  C   UNL     1      32.809 -12.882 -22.503  0.00  0.00    +0.124 C 
ENDROOT
BRANCH   1   8
ATOM      6  N   UNL     1      31.402  -6.427 -22.517  0.00  0.00    -0.318 N 
ATOM      7  N   UNL     1      33.323  -5.398 -22.955  0.00  0.00    -0.318 N 
ATOM      8  C   UNL     1      33.332  -9.546 -23.114  0.00  0.00    +0.077 C 
ATOM      9  C   UNL     1      32.302  -7.428 -22.778  0.00  0.00    +0.060 C 
ATOM     10  C   UNL     1      32.180  -8.817 -22.800  0.00  0.00    +0.032 C 
ATOM     11  C   UNL     1      33.493  -6.760 -23.048  0.00  0.00    +0.059 C 
ATOM     12  C   UNL     1      34.542  -8.904 -23.390  0.00  0.00    +0.018 C 
ATOM     13  C   UNL     1      34.641  -7.508 -23.362  0.00  0.00    +0.017 C 
ATOM     14  C   UNL     1      32.059  -5.233 -22.634  0.00  0.00    +0.144 C 
ATOM     15  C   UNL     1      31.365  -3.952 -22.413  0.00  0.00    +0.044 C 
ATOM     16  H   UNL     1      30.453  -6.546 -22.285  0.00  0.00    +0.148 HD
ATOM     17  H   UNL     1      34.001  -4.698 -23.097  0.00  0.00    +0.148 HD
ENDBRANCH   1   8
BRANCH   4  18
ATOM     18  N   UNL     1      34.362 -11.261 -25.237  0.00  0.00    -0.344 N 
ATOM     19  H   UNL     1      34.592 -10.305 -25.287  0.00  0.00    +0.144 HD
ATOM     20  H   UNL     1      34.579 -11.859 -25.988  0.00  0.00    +0.144 HD
ENDBRANCH   4  18
BRANCH   3  22
ATOM     21  O   UNL     1      33.668 -14.232 -25.740  0.00  0.00    -0.285 OA
ATOM     22  C   UNL     1      33.786 -14.300 -24.494  0.00  0.00    +0.213 C 
BRANCH  22  24
ATOM     23  N   UNL     1      34.819 -15.546 -22.632  0.00  0.00    -0.310 N 
ATOM     24  C   UNL     1      34.201 -15.508 -23.853  0.00  0.00    +0.088 C 
ATOM     25  C   UNL     1      35.096 -16.849 -22.281  0.00  0.00    +0.048 C 
ATOM     26  C   UNL     1      34.637 -17.661 -23.320  0.00  0.00    +0.015 C 
ATOM     27  C   UNL     1      34.075 -16.801 -24.305  0.00  0.00    +0.019 C 
ATOM     28  C   UNL     1      35.713 -17.365 -21.136  0.00  0.00    +0.015 C 
ATOM     29  C   UNL     1      34.799 -19.056 -23.213  0.00  0.00    +0.001 C 
ATOM     30  C   UNL     1      35.863 -18.751 -21.052  0.00  0.00    +0.001 C 
ATOM     31  C   UNL     1      35.414 -19.586 -22.073  0.00  0.00    +0.000 C 
ATOM     32  H   UNL     1      35.033 -14.757 -22.083  0.00  0.00    +0.152 HD
ENDBRANCH  22  24
ENDBRANCH   3  22
TORSDOF 4
ENDMDL
MODEL 2
REMARK VINA RESULT:     -11.6      2.671      4.926
REMARK  Name = 66555680
REMARK  4 active torsions:
REMARK  status: ('A' for Active; 'I' for Inactive)
REMARK    1  A    between atoms: N_1  and  C_8
REMARK    2  A    between atoms: C_3  and  C_22
REMARK    3  A    between atoms: C_4  and  N_18
REMARK    4  A    between atoms: C_22  and  C_24
REMARK                            x       y       z     vdW  Elec       q    Type
REMARK                         _______ _______ _______ _____ _____    ______ ____
ROOT
ATOM      1  N   UNL     1      34.293 -15.104 -22.750  0.00  0.00    -0.177 N 
ATOM      2  N   UNL     1      34.343 -15.569 -24.010  0.00  0.00    -0.171 NA
ATOM      3  C   UNL     1      35.323 -17.019 -22.543  0.00  0.00    +0.090 C 
ATOM      4  C   UNL     1      34.867 -15.935 -21.833  0.00  0.00    +0.122 C 
ATOM      5  C   UNL     1      34.973 -16.740 -23.877  0.00  0.00    +0.124 C 
ENDROOT
BRANCH   1   8
ATOM      6  N   UNL     1      33.383 -10.343 -23.626  0.00  0.00    -0.318 N 
ATOM      7  N   UNL     1      31.995 -10.129 -21.902  0.00  0.00    -0.318 N 
ATOM      8  C   UNL     1      33.690 -13.870 -22.497  0.00  0.00    +0.077 C 
ATOM      9  C   UNL     1      33.340 -11.579 -23.034  0.00  0.00    +0.060 C 
ATOM     10  C   UNL     1      33.971 -12.786 -23.335  0.00  0.00    +0.032 C 
ATOM     11  C   UNL     1      32.468 -11.419 -21.961  0.00  0.00    +0.059 C 
ATOM     12  C   UNL     1      32.819 -13.741 -21.413  0.00  0.00    +0.018 C 
ATOM     13  C   UNL     1      32.197 -12.519 -21.129  0.00  0.00    +0.017 C 
ATOM     14  C   UNL     1      32.563  -9.511 -22.914  0.00  0.00    +0.144 C 
ATOM     15  C   UNL     1      32.386  -8.098 -23.297  0.00  0.00    +0.044 C 
ATOM     16  H   UNL     1      33.908 -10.098 -24.421  0.00  0.00    +0.148 HD
ATOM     17  H   UNL     1      31.367  -9.749 -21.245  0.00  0.00    +0.148 HD
ENDBRANCH   1   8
BRANCH   4  18
ATOM     18  N   UNL     1      34.909 -15.632 -20.517  0.00  0.00    -0.344 N 
ATOM     19  H   UNL     1      35.734 -15.269 -20.121  0.00  0.00    +0.144 HD
ATOM     20  H   UNL     1      34.115 -15.774 -19.954  0.00  0.00    +0.144 HD
ENDBRANCH   4  18
BRANCH   3  22
ATOM     21  O   UNL     1      37.228 -18.361 -22.339  0.00  0.00    -0.285 OA
ATOM     22  C   UNL     1      36.035 -18.223 -21.979  0.00  0.00    +0.213 C 
BRANCH  22  24
ATOM     23  N   UNL     1      36.103 -19.942 -20.210  0.00  0.00    -0.310 N 
ATOM     24  C   UNL     1      35.414 -19.159 -21.097  0.00  0.00    +0.088 C 
ATOM     25  C   UNL     1      35.231 -20.739 -19.502  0.00  0.00    +0.048 C 
ATOM     26  C   UNL     1      33.944 -20.447 -19.959  0.00  0.00    +0.015 C 
ATOM     27  C   UNL     1      34.075 -19.449 -20.965  0.00  0.00    +0.019 C 
ATOM     28  C   UNL     1      35.481 -21.685 -18.502  0.00  0.00    +0.015 C 
ATOM     29  C   UNL     1      32.852 -21.131 -19.392  0.00  0.00    +0.001 C 
ATOM     30  C   UNL     1      34.382 -22.352 -17.954  0.00  0.00    +0.001 C 
ATOM     31  C   UNL     1      33.086 -22.081 -18.391  0.00  0.00    +0.000 C 
ATOM     32  H   UNL     1      37.081 -19.936 -20.096  0.00  0.00    +0.152 HD
ENDBRANCH  22  24
ENDBRANCH   3  22
TORSDOF 4
ENDMDL
MODEL 3
REMARK VINA RESULT:     -11.5      2.016      9.766
REMARK  Name = 66555680
REMARK  4 active torsions:
REMARK  status: ('A' for Active; 'I' for Inactive)
REMARK    1  A    between atoms: N_1  and  C_8
REMARK    2  A    between atoms: C_3  and  C_22
REMARK    3  A    between atoms: C_4  and  N_18
REMARK    4  A    between atoms: C_22  and  C_24
REMARK                            x       y       z     vdW  Elec       q    Type
REMARK                         _______ _______ _______ _____ _____    ______ ____
ROOT
ATOM      1  N   UNL     1      33.555 -12.727 -22.977  0.00  0.00    -0.177 N 
ATOM      2  N   UNL     1      34.090 -11.826 -23.820  0.00  0.00    -0.171 NA
ATOM      3  C   UNL     1      32.544 -10.867 -22.438  0.00  0.00    +0.090 C 
ATOM      4  C   UNL     1      32.624 -12.203 -22.129  0.00  0.00    +0.122 C 
ATOM      5  C   UNL     1      33.469 -10.692 -23.485  0.00  0.00    +0.124 C 
ENDROOT
BRANCH   1   8
ATOM      6  N   UNL     1      35.509 -16.854 -21.130  0.00  0.00    -0.318 N 
ATOM      7  N   UNL     1      35.284 -17.996 -23.024  0.00  0.00    -0.318 N 
ATOM      8  C   UNL     1      33.976 -14.057 -23.037  0.00  0.00    +0.077 C 
ATOM      9  C   UNL     1      34.937 -15.980 -22.018  0.00  0.00    +0.060 C 
ATOM     10  C   UNL     1      34.534 -14.650 -21.900  0.00  0.00    +0.032 C 
ATOM     11  C   UNL     1      34.807 -16.716 -23.192  0.00  0.00    +0.059 C 
ATOM     12  C   UNL     1      33.833 -14.770 -24.229  0.00  0.00    +0.018 C 
ATOM     13  C   UNL     1      34.244 -16.104 -24.325  0.00  0.00    +0.017 C 
ATOM     14  C   UNL     1      35.696 -18.044 -21.777  0.00  0.00    +0.144 C 
ATOM     15  C   UNL     1      36.298 -19.202 -21.090  0.00  0.00    +0.044 C 
ATOM     16  H   UNL     1      35.742 -16.660 -20.193  0.00  0.00    +0.148 HD
ATOM     17  H   UNL     1      35.311 -18.719 -23.692  0.00  0.00    +0.148 HD
ENDBRANCH   1   8
BRANCH   4  18
ATOM     18  N   UNL     1      31.982 -12.959 -21.213  0.00  0.00    -0.344 N 
ATOM     19  H   UNL     1      31.109 -12.671 -20.859  0.00  0.00    +0.144 HD
ATOM     20  H   UNL     1      32.387 -13.800 -20.897  0.00  0.00    +0.144 HD
ENDBRANCH   4  18
BRANCH   3  22
ATOM     21  O   UNL     1      30.846 -10.300 -20.933  0.00  0.00    -0.285 OA
ATOM     22  C   UNL     1      31.652  -9.846 -21.778  0.00  0.00    +0.213 C 
BRANCH  22  24
ATOM     23  N   UNL     1      31.371  -7.926 -23.302  0.00  0.00    -0.310 N 
ATOM     24  C   UNL     1      31.701  -8.450 -22.081  0.00  0.00    +0.088 C 
ATOM     25  C   UNL     1      31.519  -6.556 -23.286  0.00  0.00    +0.048 C 
ATOM     26  C   UNL     1      31.958  -6.206 -22.007  0.00  0.00    +0.015 C 
ATOM     27  C   UNL     1      32.069  -7.411 -21.258  0.00  0.00    +0.019 C 
ATOM     28  C   UNL     1      31.300  -5.612 -24.294  0.00  0.00    +0.015 C 
ATOM     29  C   UNL     1      32.190  -4.847 -21.719  0.00  0.00    +0.001 C 
ATOM     30  C   UNL     1      31.536  -4.270 -23.985  0.00  0.00    +0.001 C 
ATOM     31  C   UNL     1      31.975  -3.891 -22.717  0.00  0.00    +0.000 C 
ATOM     32  H   UNL     1      31.071  -8.450 -24.079  0.00  0.00    +0.152 HD
ENDBRANCH  22  24
ENDBRANCH   3  22
TORSDOF 4
ENDMDL
MODEL 4
REMARK VINA RESULT:     -11.4      3.800     10.516
REMARK  Name = 66555680
REMARK  4 active torsions:
REMARK  status: ('A' for Active; 'I' for Inactive)
REMARK    1  A    between atoms: N_1  and  C_8
REMARK    2  A    between atoms: C_3  and  C_22
REMARK    3  A    between atoms: C_4  and  N_18
REMARK    4  A    between atoms: C_22  and  C_24
REMARK                            x       y       z     vdW  Elec       q    Type
REMARK                         _______ _______ _______ _____ _____    ______ ____
ROOT
ATOM      1  N   UNL     1      34.642 -18.921 -21.790  0.00  0.00    -0.177 N 
ATOM      2  N   UNL     1      34.288 -19.328 -23.021  0.00  0.00    -0.171 NA
ATOM      3  C   UNL     1      34.789 -17.099 -22.986  0.00  0.00    +0.090 C 
ATOM      4  C   UNL     1      34.952 -17.595 -21.715  0.00  0.00    +0.122 C 
ATOM      5  C   UNL     1      34.380 -18.210 -23.747  0.00  0.00    +0.124 C 
ENDROOT
BRANCH   1   8
ATOM      6  N   UNL     1      32.579 -21.807 -18.373  0.00  0.00    -0.318 N 
ATOM      7  N   UNL     1      34.524 -22.578 -17.622  0.00  0.00    -0.318 N 
ATOM      8  C   UNL     1      34.663 -19.844 -20.742  0.00  0.00    +0.077 C 
ATOM      9  C   UNL     1      33.536 -21.191 -19.137  0.00  0.00    +0.060 C 
ATOM     10  C   UNL     1      33.454 -20.269 -20.181  0.00  0.00    +0.032 C 
ATOM     11  C   UNL     1      34.741 -21.688 -18.649  0.00  0.00    +0.059 C 
ATOM     12  C   UNL     1      35.887 -20.325 -20.274  0.00  0.00    +0.018 C 
ATOM     13  C   UNL     1      35.946 -21.250 -19.225  0.00  0.00    +0.017 C 
ATOM     14  C   UNL     1      33.218 -22.626 -17.483  0.00  0.00    +0.144 C 
ATOM     15  C   UNL     1      32.463 -23.438 -16.511  0.00  0.00    +0.044 C 
ATOM     16  H   UNL     1      31.605 -21.684 -18.452  0.00  0.00    +0.148 HD
ATOM     17  H   UNL     1      35.200 -23.072 -17.103  0.00  0.00    +0.148 HD
ENDBRANCH   1   8
BRANCH   4  18
ATOM     18  N   UNL     1      35.330 -17.010 -20.557  0.00  0.00    -0.344 N 
ATOM     19  H   UNL     1      36.107 -17.357 -20.061  0.00  0.00    +0.144 HD
ATOM     20  H   UNL     1      34.829 -16.238 -20.209  0.00  0.00    +0.144 HD
ENDBRANCH   4  18
BRANCH   3  22
ATOM     21  O   UNL     1      35.906 -15.509 -24.287  0.00  0.00    -0.285 OA
ATOM     22  C   UNL     1      35.010 -15.674 -23.427  0.00  0.00    +0.213 C 
BRANCH  22  24
ATOM     23  N   UNL     1      33.703 -14.547 -21.663  0.00  0.00    -0.310 N 
ATOM     24  C   UNL     1      34.262 -14.570 -22.912  0.00  0.00    +0.088 C 
ATOM     25  C   UNL     1      33.048 -13.353 -21.459  0.00  0.00    +0.048 C 
ATOM     26  C   UNL     1      33.200 -12.596 -22.622  0.00  0.00    +0.015 C 
ATOM     27  C   UNL     1      33.969 -13.377 -23.531  0.00  0.00    +0.019 C 
ATOM     28  C   UNL     1      32.340 -12.890 -20.344  0.00  0.00    +0.015 C 
ATOM     29  C   UNL     1      32.619 -11.315 -22.678  0.00  0.00    +0.001 C 
ATOM     30  C   UNL     1      31.772 -11.616 -20.423  0.00  0.00    +0.001 C 
ATOM     31  C   UNL     1      31.908 -10.838 -21.571  0.00  0.00    +0.000 C 
ATOM     32  H   UNL     1      33.761 -15.278 -21.006  0.00  0.00    +0.152 HD
ENDBRANCH  22  24
ENDBRANCH   3  22
TORSDOF 4
ENDMDL
MODEL 5
REMARK VINA RESULT:     -11.3      1.978      9.739
REMARK  Name = 66555680
REMARK  4 active torsions:
REMARK  status: ('A' for Active; 'I' for Inactive)
REMARK    1  A    between atoms: N_1  and  C_8
REMARK    2  A    between atoms: C_3  and  C_22
REMARK    3  A    between atoms: C_4  and  N_18
REMARK    4  A    between atoms: C_22  and  C_24
REMARK                            x       y       z     vdW  Elec       q    Type
REMARK                         _______ _______ _______ _____ _____    ______ ____
ROOT
ATOM      1  N   UNL     1      33.567 -12.609 -23.026  0.00  0.00    -0.177 N 
ATOM      2  N   UNL     1      34.144 -11.709 -23.841  0.00  0.00    -0.171 NA
ATOM      3  C   UNL     1      32.581 -10.734 -22.491  0.00  0.00    +0.090 C 
ATOM      4  C   UNL     1      32.623 -12.076 -22.197  0.00  0.00    +0.122 C 
ATOM      5  C   UNL     1      33.537 -10.566 -23.509  0.00  0.00    +0.124 C 
ENDROOT
BRANCH   1   8
ATOM      6  N   UNL     1      35.464 -16.774 -21.205  0.00  0.00    -0.318 N 
ATOM      7  N   UNL     1      35.191 -17.910 -23.096  0.00  0.00    -0.318 N 
ATOM      8  C   UNL     1      33.960 -13.947 -23.091  0.00  0.00    +0.077 C 
ATOM      9  C   UNL     1      34.897 -15.889 -22.086  0.00  0.00    +0.060 C 
ATOM     10  C   UNL     1      34.522 -14.551 -21.962  0.00  0.00    +0.032 C 
ATOM     11  C   UNL     1      34.737 -16.622 -23.258  0.00  0.00    +0.059 C 
ATOM     12  C   UNL     1      33.787 -14.656 -24.281  0.00  0.00    +0.018 C 
ATOM     13  C   UNL     1      34.171 -15.999 -24.383  0.00  0.00    +0.017 C 
ATOM     14  C   UNL     1      35.620 -17.967 -21.855  0.00  0.00    +0.144 C 
ATOM     15  C   UNL     1      36.208 -19.137 -21.177  0.00  0.00    +0.044 C 
ATOM     16  H   UNL     1      35.714 -16.584 -20.272  0.00  0.00    +0.148 HD
ATOM     17  H   UNL     1      35.195 -18.634 -23.765  0.00  0.00    +0.148 HD
ENDBRANCH   1   8
BRANCH   4  18
ATOM     18  N   UNL     1      31.939 -12.829 -21.309  0.00  0.00    -0.344 N 
ATOM     19  H   UNL     1      31.603 -12.426 -20.476  0.00  0.00    +0.144 HD
ATOM     20  H   UNL     1      31.778 -13.783 -21.494  0.00  0.00    +0.144 HD
ENDBRANCH   4  18
BRANCH   3  22
ATOM     21  O   UNL     1      30.956 -10.127 -20.921  0.00  0.00    -0.285 OA
ATOM     22  C   UNL     1      31.692  -9.703 -21.843  0.00  0.00    +0.213 C 
BRANCH  22  24
ATOM     23  N   UNL     1      31.981  -7.293 -21.396  0.00  0.00    -0.310 N 
ATOM     24  C   UNL     1      31.670  -8.329 -22.236  0.00  0.00    +0.088 C 
ATOM     25  C   UNL     1      31.869  -6.093 -22.062  0.00  0.00    +0.048 C 
ATOM     26  C   UNL     1      31.472  -6.383 -23.369  0.00  0.00    +0.015 C 
ATOM     27  C   UNL     1      31.351  -7.799 -23.464  0.00  0.00    +0.019 C 
ATOM     28  C   UNL     1      32.085  -4.786 -21.612  0.00  0.00    +0.015 C 
ATOM     29  C   UNL     1      31.283  -5.320 -24.273  0.00  0.00    +0.001 C 
ATOM     30  C   UNL     1      31.891  -3.747 -22.525  0.00  0.00    +0.001 C 
ATOM     31  C   UNL     1      31.496  -4.007 -23.836  0.00  0.00    +0.000 C 
ATOM     32  H   UNL     1      32.246  -7.392 -20.454  0.00  0.00    +0.152 HD
ENDBRANCH  22  24
ENDBRANCH   3  22
TORSDOF 4
ENDMDL
MODEL 6
REMARK VINA RESULT:     -11.2      4.336     11.009
REMARK  Name = 66555680
REMARK  4 active torsions:
REMARK  status: ('A' for Active; 'I' for Inactive)
REMARK    1  A    between atoms: N_1  and  C_8
REMARK    2  A    between atoms: C_3  and  C_22
REMARK    3  A    between atoms: C_4  and  N_18
REMARK    4  A    between atoms: C_22  and  C_24
REMARK                            x       y       z     vdW  Elec       q    Type
REMARK                         _______ _______ _______ _____ _____    ______ ____
ROOT
ATOM      1  N   UNL     1      35.228 -19.642 -20.772  0.00  0.00    -0.177 N 
ATOM      2  N   UNL     1      36.457 -19.100 -20.839  0.00  0.00    -0.171 NA
ATOM      3  C   UNL     1      35.121 -18.361 -22.538  0.00  0.00    +0.090 C 
ATOM      4  C   UNL     1      34.389 -19.231 -21.767  0.00  0.00    +0.122 C 
ATOM      5  C   UNL     1      36.384 -18.318 -21.920  0.00  0.00    +0.124 C 
ENDROOT
BRANCH   1   8
ATOM      6  N   UNL     1      32.190 -22.163 -17.826  0.00  0.00    -0.318 N 
ATOM      7  N   UNL     1      33.839 -23.155 -16.713  0.00  0.00    -0.318 N 
ATOM      8  C   UNL     1      34.927 -20.535 -19.742  0.00  0.00    +0.077 C 
ATOM      9  C   UNL     1      33.348 -21.690 -18.388  0.00  0.00    +0.060 C 
ATOM     10  C   UNL     1      33.588 -20.791 -19.427  0.00  0.00    +0.032 C 
ATOM     11  C   UNL     1      34.362 -22.324 -17.676  0.00  0.00    +0.059 C 
ATOM     12  C   UNL     1      35.966 -21.155 -19.045  0.00  0.00    +0.018 C 
ATOM     13  C   UNL     1      35.702 -22.055 -18.006  0.00  0.00    +0.017 C 
ATOM     14  C   UNL     1      32.535 -23.035 -16.831  0.00  0.00    +0.144 C 
ATOM     15  C   UNL     1      31.509 -23.722 -16.025  0.00  0.00    +0.044 C 
ATOM     16  H   UNL     1      31.274 -21.920 -18.093  0.00  0.00    +0.148 HD
ATOM     17  H   UNL     1      34.332 -23.718 -16.073  0.00  0.00    +0.148 HD
ENDBRANCH   1   8
BRANCH   4  18
ATOM     18  N   UNL     1      33.115 -19.671 -21.859  0.00  0.00    -0.344 N 
ATOM     19  H   UNL     1      32.388 -19.165 -21.430  0.00  0.00    +0.144 HD
ATOM     20  H   UNL     1      32.915 -20.497 -22.354  0.00  0.00    +0.144 HD
ENDBRANCH   4  18
BRANCH   3  22
ATOM     21  O   UNL     1      34.451 -18.346 -24.779  0.00  0.00    -0.285 OA
ATOM     22  C   UNL     1      34.639 -17.631 -23.767  0.00  0.00    +0.213 C 
BRANCH  22  24
ATOM     23  N   UNL     1      34.002 -15.544 -24.919  0.00  0.00    -0.310 N 
ATOM     24  C   UNL     1      34.407 -16.222 -23.801  0.00  0.00    +0.088 C 
ATOM     25  C   UNL     1      33.866 -14.203 -24.638  0.00  0.00    +0.048 C 
ATOM     26  C   UNL     1      34.198 -14.028 -23.293  0.00  0.00    +0.015 C 
ATOM     27  C   UNL     1      34.538 -15.311 -22.777  0.00  0.00    +0.019 C 
ATOM     28  C   UNL     1      33.478 -13.142 -25.463  0.00  0.00    +0.015 C 
ATOM     29  C   UNL     1      34.141 -12.734 -22.743  0.00  0.00    +0.001 C 
ATOM     30  C   UNL     1      33.429 -11.866 -24.896  0.00  0.00    +0.001 C 
ATOM     31  C   UNL     1      33.755 -11.662 -23.556  0.00  0.00    +0.000 C 
ATOM     32  H   UNL     1      33.832 -15.956 -25.797  0.00  0.00    +0.152 HD
ENDBRANCH  22  24
ENDBRANCH   3  22
TORSDOF 4
ENDMDL
MODEL 7
REMARK VINA RESULT:     -11.1      5.788      9.703
REMARK  Name = 66555680
REMARK  4 active torsions:
REMARK  status: ('A' for Active; 'I' for Inactive)
REMARK    1  A    between atoms: N_1  and  C_8
REMARK    2  A    between atoms: C_3  and  C_22
REMARK    3  A    between atoms: C_4  and  N_18
REMARK    4  A    between atoms: C_22  and  C_24
REMARK                            x       y       z     vdW  Elec       q    Type
REMARK                         _______ _______ _______ _____ _____    ______ ____
ROOT
ATOM      1  N   UNL     1      35.210 -19.705 -20.408  0.00  0.00    -0.177 N 
ATOM      2  N   UNL     1      36.370 -20.003 -19.800  0.00  0.00    -0.171 NA
ATOM      3  C   UNL     1      34.776 -21.586 -19.385  0.00  0.00    +0.090 C 
ATOM      4  C   UNL     1      34.222 -20.621 -20.192  0.00  0.00    +0.122 C 
ATOM      5  C   UNL     1      36.099 -21.154 -19.177  0.00  0.00    +0.124 C 
ENDROOT
BRANCH   1   8
ATOM      6  N   UNL     1      34.502 -14.876 -21.076  0.00  0.00    -0.318 N 
ATOM      7  N   UNL     1      34.794 -14.978 -23.278  0.00  0.00    -0.318 N 
ATOM      8  C   UNL     1      35.115 -18.541 -21.173  0.00  0.00    +0.077 C 
ATOM      9  C   UNL     1      34.753 -16.196 -21.352  0.00  0.00    +0.060 C 
ATOM     10  C   UNL     1      34.837 -17.326 -20.538  0.00  0.00    +0.032 C 
ATOM     11  C   UNL     1      34.931 -16.233 -22.732  0.00  0.00    +0.059 C 
ATOM     12  C   UNL     1      35.299 -18.609 -22.555  0.00  0.00    +0.018 C 
ATOM     13  C   UNL     1      35.210 -17.463 -23.353  0.00  0.00    +0.017 C 
ATOM     14  C   UNL     1      34.537 -14.189 -22.258  0.00  0.00    +0.144 C 
ATOM     15  C   UNL     1      34.305 -12.734 -22.305  0.00  0.00    +0.044 C 
ATOM     16  H   UNL     1      34.328 -14.492 -20.186  0.00  0.00    +0.148 HD
ATOM     17  H   UNL     1      34.871 -14.725 -24.226  0.00  0.00    +0.148 HD
ENDBRANCH   1   8
BRANCH   4  18
ATOM     18  N   UNL     1      32.988 -20.486 -20.724  0.00  0.00    -0.344 N 
ATOM     19  H   UNL     1      32.884 -20.179 -21.654  0.00  0.00    +0.144 HD
ATOM     20  H   UNL     1      32.193 -20.695 -20.183  0.00  0.00    +0.144 HD
ENDBRANCH   4  18
BRANCH   3  22
ATOM     21  O   UNL     1      34.148 -23.829 -19.604  0.00  0.00    -0.285 OA
ATOM     22  C   UNL     1      34.086 -22.821 -18.862  0.00  0.00    +0.213 C 
BRANCH  22  24
ATOM     23  N   UNL     1      32.045 -22.719 -17.479  0.00  0.00    -0.310 N 
ATOM     24  C   UNL     1      33.400 -22.863 -17.609  0.00  0.00    +0.088 C 
ATOM     25  C   UNL     1      31.684 -22.804 -16.153  0.00  0.00    +0.048 C 
ATOM     26  C   UNL     1      32.854 -23.009 -15.420  0.00  0.00    +0.015 C 
ATOM     27  C   UNL     1      33.930 -23.044 -16.352  0.00  0.00    +0.019 C 
ATOM     28  C   UNL     1      30.423 -22.717 -15.552  0.00  0.00    +0.015 C 
ATOM     29  C   UNL     1      32.765 -23.134 -14.020  0.00  0.00    +0.001 C 
ATOM     30  C   UNL     1      30.359 -22.843 -14.163  0.00  0.00    +0.001 C 
ATOM     31  C   UNL     1      31.511 -23.049 -13.406  0.00  0.00    +0.000 C 
ATOM     32  H   UNL     1      31.419 -22.575 -18.225  0.00  0.00    +0.152 HD
ENDBRANCH  22  24
ENDBRANCH   3  22
TORSDOF 4
ENDMDL
MODEL 8
REMARK VINA RESULT:     -11.1      5.729      9.773
REMARK  Name = 66555680
REMARK  4 active torsions:
REMARK  status: ('A' for Active; 'I' for Inactive)
REMARK    1  A    between atoms: N_1  and  C_8
REMARK    2  A    between atoms: C_3  and  C_22
REMARK    3  A    between atoms: C_4  and  N_18
REMARK    4  A    between atoms: C_22  and  C_24
REMARK                            x       y       z     vdW  Elec       q    Type
REMARK                         _______ _______ _______ _____ _____    ______ ____
ROOT
ATOM      1  N   UNL     1      35.291 -19.611 -20.457  0.00  0.00    -0.177 N 
ATOM      2  N   UNL     1      36.518 -19.896 -19.988  0.00  0.00    -0.171 NA
ATOM      3  C   UNL     1      34.949 -21.330 -19.154  0.00  0.00    +0.090 C 
ATOM      4  C   UNL     1      34.315 -20.441 -19.988  0.00  0.00    +0.122 C 
ATOM      5  C   UNL     1      36.302 -20.947 -19.193  0.00  0.00    +0.124 C 
ENDROOT
BRANCH   1   8
ATOM      6  N   UNL     1      34.605 -14.873 -21.619  0.00  0.00    -0.318 N 
ATOM      7  N   UNL     1      34.615 -15.246 -23.810  0.00  0.00    -0.318 N 
ATOM      8  C   UNL     1      35.125 -18.543 -21.341  0.00  0.00    +0.077 C 
ATOM      9  C   UNL     1      34.792 -16.225 -21.760  0.00  0.00    +0.060 C 
ATOM     10  C   UNL     1      34.954 -17.252 -20.830  0.00  0.00    +0.032 C 
ATOM     11  C   UNL     1      34.794 -16.432 -23.136  0.00  0.00    +0.059 C 
ATOM     12  C   UNL     1      35.132 -18.782 -22.717  0.00  0.00    +0.018 C 
ATOM     13  C   UNL     1      34.967 -17.735 -23.632  0.00  0.00    +0.017 C 
ATOM     14  C   UNL     1      34.505 -14.333 -22.871  0.00  0.00    +0.144 C 
ATOM     15  C   UNL     1      34.299 -12.886 -23.066  0.00  0.00    +0.044 C 
ATOM     16  H   UNL     1      34.553 -14.381 -20.768  0.00  0.00    +0.148 HD
ATOM     17  H   UNL     1      34.577 -15.110 -24.785  0.00  0.00    +0.148 HD
ENDBRANCH   1   8
BRANCH   4  18
ATOM     18  N   UNL     1      33.022 -20.305 -20.351  0.00  0.00    -0.344 N 
ATOM     19  H   UNL     1      32.744 -19.546 -20.913  0.00  0.00    +0.144 HD
ATOM     20  H   UNL     1      32.355 -20.966 -20.054  0.00  0.00    +0.144 HD
ENDBRANCH   4  18
BRANCH   3  22
ATOM     21  O   UNL     1      33.465 -23.134 -19.026  0.00  0.00    -0.285 OA
ATOM     22  C   UNL     1      34.301 -22.455 -18.386  0.00  0.00    +0.213 C 
BRANCH  22  24
ATOM     23  N   UNL     1      35.811 -22.480 -16.435  0.00  0.00    -0.310 N 
ATOM     24  C   UNL     1      34.602 -22.745 -17.019  0.00  0.00    +0.088 C 
ATOM     25  C   UNL     1      35.796 -22.872 -15.114  0.00  0.00    +0.048 C 
ATOM     26  C   UNL     1      34.530 -23.403 -14.858  0.00  0.00    +0.015 C 
ATOM     27  C   UNL     1      33.788 -23.317 -16.069  0.00  0.00    +0.019 C 
ATOM     28  C   UNL     1      36.795 -22.798 -14.138  0.00  0.00    +0.015 C 
ATOM     29  C   UNL     1      34.246 -23.883 -13.565  0.00  0.00    +0.001 C 
ATOM     30  C   UNL     1      36.490 -23.280 -12.863  0.00  0.00    +0.001 C 
ATOM     31  C   UNL     1      35.235 -23.815 -12.578  0.00  0.00    +0.000 C 
ATOM     32  H   UNL     1      36.581 -22.070 -16.891  0.00  0.00    +0.152 HD
ENDBRANCH  22  24
ENDBRANCH   3  22
TORSDOF 4
ENDMDL
MODEL 9
REMARK VINA RESULT:     -10.8      5.214     11.972
REMARK  Name = 66555680
REMARK  4 active torsions:
REMARK  status: ('A' for Active; 'I' for Inactive)
REMARK    1  A    between atoms: N_1  and  C_8
REMARK    2  A    between atoms: C_3  and  C_22
REMARK    3  A    between atoms: C_4  and  N_18
REMARK    4  A    between atoms: C_22  and  C_24
REMARK                            x       y       z     vdW  Elec       q    Type
REMARK                         _______ _______ _______ _____ _____    ______ ____
ROOT
ATOM      1  N   UNL     1      34.384 -20.754 -19.604  0.00  0.00    -0.177 N 
ATOM      2  N   UNL     1      33.248 -20.601 -20.305  0.00  0.00    -0.171 NA
ATOM      3  C   UNL     1      34.955 -19.374 -21.198  0.00  0.00    +0.090 C 
ATOM      4  C   UNL     1      35.437 -20.040 -20.097  0.00  0.00    +0.122 C 
ATOM      5  C   UNL     1      33.603 -19.757 -21.278  0.00  0.00    +0.124 C 
ENDROOT
BRANCH   1   8
ATOM      6  N   UNL     1      36.464 -22.944 -15.713  0.00  0.00    -0.318 N 
ATOM      7  N   UNL     1      34.609 -24.023 -15.130  0.00  0.00    -0.318 N 
ATOM      8  C   UNL     1      34.392 -21.588 -18.484  0.00  0.00    +0.077 C 
ATOM      9  C   UNL     1      35.521 -22.578 -16.639  0.00  0.00    +0.060 C 
ATOM     10  C   UNL     1      35.572 -21.732 -17.746  0.00  0.00    +0.032 C 
ATOM     11  C   UNL     1      34.373 -23.264 -16.253  0.00  0.00    +0.059 C 
ATOM     12  C   UNL     1      33.225 -22.264 -18.122  0.00  0.00    +0.018 C 
ATOM     13  C   UNL     1      33.197 -23.108 -17.006  0.00  0.00    +0.017 C 
ATOM     14  C   UNL     1      35.872 -23.808 -14.833  0.00  0.00    +0.144 C 
ATOM     15  C   UNL     1      36.625 -24.389 -13.707  0.00  0.00    +0.044 C 
ATOM     16  H   UNL     1      37.400 -22.639 -15.686  0.00  0.00    +0.148 HD
ATOM     17  H   UNL     1      33.972 -24.601 -14.652  0.00  0.00    +0.148 HD
ENDBRANCH   1   8
BRANCH   4  18
ATOM     18  N   UNL     1      36.658 -20.072 -19.521  0.00  0.00    -0.344 N 
ATOM     19  H   UNL     1      36.752 -20.340 -18.579  0.00  0.00    +0.144 HD
ATOM     20  H   UNL     1      37.455 -19.826 -20.044  0.00  0.00    +0.144 HD
ENDBRANCH   4  18
BRANCH   3  22
ATOM     21  O   UNL     1      36.895 -18.825 -22.384  0.00  0.00    -0.285 OA
ATOM     22  C   UNL     1      35.735 -18.448 -22.097  0.00  0.00    +0.213 C 
BRANCH  22  24
ATOM     23  N   UNL     1      35.143 -16.064 -21.863  0.00  0.00    -0.310 N 
ATOM     24  C   UNL     1      35.210 -17.217 -22.598  0.00  0.00    +0.088 C 
ATOM     25  C   UNL     1      34.589 -15.053 -22.616  0.00  0.00    +0.048 C 
ATOM     26  C   UNL     1      34.298 -15.588 -23.873  0.00  0.00    +0.015 C 
ATOM     27  C   UNL     1      34.695 -16.955 -23.846  0.00  0.00    +0.019 C 
ATOM     28  C   UNL     1      34.328 -13.719 -22.285  0.00  0.00    +0.015 C 
ATOM     29  C   UNL     1      33.717 -14.754 -24.847  0.00  0.00    +0.001 C 
ATOM     30  C   UNL     1      33.752 -12.910 -23.268  0.00  0.00    +0.001 C 
ATOM     31  C   UNL     1      33.450 -13.417 -24.531  0.00  0.00    +0.000 C 
ATOM     32  H   UNL     1      35.445 -15.971 -20.931  0.00  0.00    +0.152 HD
ENDBRANCH  22  24
ENDBRANCH   3  22
TORSDOF 4
ENDMDL
