MODEL 1
REMARK VINA RESULT:     -11.7      0.000      0.000
REMARK  Name = 11979006
REMARK  7 active torsions:
REMARK  status: ('A' for Active; 'I' for Inactive)
REMARK    1  A    between atoms: C_1  and  N_2
REMARK    2  A    between atoms: C_1  and  C_22
REMARK    3  A    between atoms: C_3  and  N_9
REMARK    4  A    between atoms: C_4  and  O_18
REMARK    5  A    between atoms: C_10  and  C_14
REMARK    6  A    between atoms: N_21  and  C_25
REMARK    7  A    between atoms: C_28  and  N_32
REMARK                            x       y       z     vdW  Elec       q    Type
REMARK                         _______ _______ _______ _____ _____    ______ ____
ROOT
ATOM      1  C   UNL     1      34.212 -17.149 -23.938  0.00  0.00    +0.010 C 
ENDROOT
BRANCH   1   2
ATOM      2  N   UNL     1      35.033 -17.972 -23.063  0.00  0.00    +0.396 N 
ATOM      3  C   UNL     1      35.258 -19.580 -21.417  0.00  0.00    +0.076 C 
ATOM      4  C   UNL     1      35.918 -18.301 -20.897  0.00  0.00    +0.106 C 
ATOM      5  C   UNL     1      34.286 -19.087 -22.480  0.00  0.00    -0.054 C 
ATOM      6  C   UNL     1      35.568 -17.220 -21.922  0.00  0.00    -0.045 C 
ATOM      7  H   UNL     1      35.781 -18.306 -23.669  0.00  0.00    -0.079 HD
BRANCH   3   9
ATOM      8  O   UNL     1      36.524 -21.281 -19.559  0.00  0.00    -0.270 OA
ATOM      9  N   UNL     1      34.602 -20.323 -20.377  0.00  0.00    -0.302 N 
ATOM     10  C   UNL     1      35.301 -21.148 -19.491  0.00  0.00    +0.252 C 
ATOM     11  H   UNL     1      33.625 -20.249 -20.284  0.00  0.00    +0.150 HD
BRANCH  10  14
ATOM     12 CL   UNL     1      33.771 -23.766 -14.932  0.00  0.00    -0.075 Cl
ATOM     13  S   UNL     1      35.289 -22.396 -17.084  0.00  0.00    -0.071 S 
ATOM     14  C   UNL     1      34.494 -21.818 -18.461  0.00  0.00    +0.084 C 
ATOM     15  C   UNL     1      33.160 -22.036 -18.478  0.00  0.00    +0.012 C 
ATOM     16  C   UNL     1      32.749 -22.719 -17.296  0.00  0.00    +0.019 C 
ATOM     17  C   UNL     1      33.807 -22.975 -16.452  0.00  0.00    +0.087 C 
ENDBRANCH  10  14
ENDBRANCH   3   9
BRANCH   4  18
ATOM     18  O   UNL     1      37.325 -18.494 -20.826  0.00  0.00    -0.385 OA
ATOM     19  H   UNL     1      37.633 -18.928 -21.637  0.00  0.00    +0.210 HD
ENDBRANCH   4  18
ENDBRANCH   1   2
BRANCH   1  22
ATOM     20  O   UNL     1      35.742 -15.311 -23.618  0.00  0.00    -0.277 OA
ATOM     21  N   UNL     1      33.435 -14.895 -23.757  0.00  0.00    -0.284 N 
ATOM     22  C   UNL     1      34.582 -15.688 -23.748  0.00  0.00    +0.205 C 
ATOM     23  H   UNL     1      32.581 -15.369 -23.878  0.00  0.00    +0.155 HD
BRANCH  21  25
ATOM     24  F   UNL     1      32.659 -13.739 -21.354  0.00  0.00    -0.203 F 
ATOM     25  C   UNL     1      33.356 -13.489 -23.611  0.00  0.00    +0.078 C 
ATOM     26  C   UNL     1      32.964 -12.952 -22.396  0.00  0.00    +0.155 C 
ATOM     27  C   UNL     1      33.672 -12.681 -24.690  0.00  0.00    +0.018 C 
ATOM     28  C   UNL     1      33.200 -10.738 -23.334  0.00  0.00    +0.061 C 
ATOM     29  C   UNL     1      32.886 -11.567 -22.256  0.00  0.00    +0.046 C 
ATOM     30  C   UNL     1      33.593 -11.295 -24.551  0.00  0.00    +0.017 C 
BRANCH  28  32
ATOM     31  O   UNL     1      35.439  -8.913 -23.479  0.00  0.00    -0.269 OA
ATOM     32  N   UNL     1      33.118  -9.298 -23.188  0.00  0.00    -0.233 N 
ATOM     33  C   UNL     1      34.289  -8.506 -23.320  0.00  0.00    +0.257 C 
ATOM     34  C   UNL     1      31.899  -8.684 -22.895  0.00  0.00    +0.072 C 
ATOM     35  C   UNL     1      34.108  -7.026 -23.202  0.00  0.00    +0.059 C 
ATOM     36  C   UNL     1      31.769  -7.360 -22.762  0.00  0.00    +0.017 C 
ATOM     37  C   UNL     1      32.909  -6.507 -22.929  0.00  0.00    +0.006 C 
ENDBRANCH  28  32
ENDBRANCH  21  25
ENDBRANCH   1  22
TORSDOF 7
ENDMDL
MODEL 2
REMARK VINA RESULT:     -11.6      1.204      1.675
REMARK  Name = 11979006
REMARK  7 active torsions:
REMARK  status: ('A' for Active; 'I' for Inactive)
REMARK    1  A    between atoms: C_1  and  N_2
REMARK    2  A    between atoms: C_1  and  C_22
REMARK    3  A    between atoms: C_3  and  N_9
REMARK    4  A    between atoms: C_4  and  O_18
REMARK    5  A    between atoms: C_10  and  C_14
REMARK    6  A    between atoms: N_21  and  C_25
REMARK    7  A    between atoms: C_28  and  N_32
REMARK                            x       y       z     vdW  Elec       q    Type
REMARK                         _______ _______ _______ _____ _____    ______ ____
ROOT
ATOM      1  C   UNL     1      34.066 -17.546 -24.191  0.00  0.00    +0.010 C 
ENDROOT
BRANCH   1   2
ATOM      2  N   UNL     1      34.903 -18.244 -23.227  0.00  0.00    +0.396 N 
ATOM      3  C   UNL     1      35.166 -19.714 -21.463  0.00  0.00    +0.076 C 
ATOM      4  C   UNL     1      35.709 -18.357 -21.009  0.00  0.00    +0.106 C 
ATOM      5  C   UNL     1      34.211 -19.369 -22.597  0.00  0.00    -0.054 C 
ATOM      6  C   UNL     1      35.330 -17.378 -22.121  0.00  0.00    -0.045 C 
ATOM      7  H   UNL     1      35.700 -18.562 -23.777  0.00  0.00    -0.079 HD
BRANCH   3   9
ATOM      8  O   UNL     1      36.457 -21.283 -19.507  0.00  0.00    -0.270 OA
ATOM      9  N   UNL     1      34.518 -20.432 -20.400  0.00  0.00    -0.302 N 
ATOM     10  C   UNL     1      35.229 -21.190 -19.466  0.00  0.00    +0.252 C 
ATOM     11  H   UNL     1      33.538 -20.388 -20.326  0.00  0.00    +0.150 HD
BRANCH  10  14
ATOM     12 CL   UNL     1      33.725 -23.728 -14.853  0.00  0.00    -0.075 Cl
ATOM     13  S   UNL     1      35.231 -22.399 -17.039  0.00  0.00    -0.071 S 
ATOM     14  C   UNL     1      34.428 -21.840 -18.419  0.00  0.00    +0.084 C 
ATOM     15  C   UNL     1      33.093 -22.054 -18.421  0.00  0.00    +0.012 C 
ATOM     16  C   UNL     1      32.689 -22.716 -17.225  0.00  0.00    +0.019 C 
ATOM     17  C   UNL     1      33.753 -22.962 -16.386  0.00  0.00    +0.087 C 
ENDBRANCH  10  14
ENDBRANCH   3   9
BRANCH   4  18
ATOM     18  O   UNL     1      37.121 -18.439 -20.867  0.00  0.00    -0.385 OA
ATOM     19  H   UNL     1      37.400 -17.913 -20.101  0.00  0.00    +0.210 HD
ENDBRANCH   4  18
ENDBRANCH   1   2
BRANCH   1  22
ATOM     20  O   UNL     1      35.548 -15.727 -24.753  0.00  0.00    -0.277 OA
ATOM     21  N   UNL     1      33.499 -15.276 -23.699  0.00  0.00    -0.284 N 
ATOM     22  C   UNL     1      34.484 -16.087 -24.259  0.00  0.00    +0.205 C 
ATOM     23  H   UNL     1      32.702 -15.739 -23.352  0.00  0.00    +0.155 HD
BRANCH  21  25
ATOM     24  F   UNL     1      33.500 -13.630 -25.935  0.00  0.00    -0.203 F 
ATOM     25  C   UNL     1      33.508 -13.867 -23.572  0.00  0.00    +0.078 C 
ATOM     26  C   UNL     1      33.509 -13.081 -24.712  0.00  0.00    +0.155 C 
ATOM     27  C   UNL     1      33.517 -13.304 -22.307  0.00  0.00    +0.018 C 
ATOM     28  C   UNL     1      33.528 -11.109 -23.316  0.00  0.00    +0.061 C 
ATOM     29  C   UNL     1      33.518 -11.692 -24.583  0.00  0.00    +0.046 C 
ATOM     30  C   UNL     1      33.528 -11.916 -22.177  0.00  0.00    +0.017 C 
BRANCH  28  32
ATOM     31  O   UNL     1      31.391  -9.518 -22.191  0.00  0.00    -0.269 OA
ATOM     32  N   UNL     1      33.539  -9.665 -23.183  0.00  0.00    -0.233 N 
ATOM     33  C   UNL     1      32.441  -9.003 -22.574  0.00  0.00    +0.257 C 
ATOM     34  C   UNL     1      34.614  -8.917 -23.668  0.00  0.00    +0.072 C 
ATOM     35  C   UNL     1      32.554  -7.518 -22.434  0.00  0.00    +0.059 C 
ATOM     36  C   UNL     1      34.676  -7.586 -23.560  0.00  0.00    +0.017 C 
ATOM     37  C   UNL     1      33.616  -6.869 -22.916  0.00  0.00    +0.006 C 
ENDBRANCH  28  32
ENDBRANCH  21  25
ENDBRANCH   1  22
TORSDOF 7
ENDMDL
MODEL 3
REMARK VINA RESULT:     -11.4      4.459     11.273
REMARK  Name = 11979006
REMARK  7 active torsions:
REMARK  status: ('A' for Active; 'I' for Inactive)
REMARK    1  A    between atoms: C_1  and  N_2
REMARK    2  A    between atoms: C_1  and  C_22
REMARK    3  A    between atoms: C_3  and  N_9
REMARK    4  A    between atoms: C_4  and  O_18
REMARK    5  A    between atoms: C_10  and  C_14
REMARK    6  A    between atoms: N_21  and  C_25
REMARK    7  A    between atoms: C_28  and  N_32
REMARK                            x       y       z     vdW  Elec       q    Type
REMARK                         _______ _______ _______ _____ _____    ______ ____
ROOT
ATOM      1  C   UNL     1      36.598 -18.709 -22.208  0.00  0.00    +0.010 C 
ENDROOT
BRANCH   1   2
ATOM      2  N   UNL     1      35.966 -17.679 -23.017  0.00  0.00    +0.396 N 
ATOM      3  C   UNL     1      34.908 -15.634 -23.231  0.00  0.00    +0.076 C 
ATOM      4  C   UNL     1      33.951 -16.700 -23.769  0.00  0.00    +0.106 C 
ATOM      5  C   UNL     1      35.837 -16.407 -22.305  0.00  0.00    -0.054 C 
ATOM      6  C   UNL     1      34.602 -18.040 -23.422  0.00  0.00    -0.045 C 
ATOM      7  H   UNL     1      36.580 -17.588 -23.826  0.00  0.00    -0.079 HD
BRANCH   3   9
ATOM      8  O   UNL     1      33.514 -13.521 -24.472  0.00  0.00    -0.270 OA
ATOM      9  N   UNL     1      34.221 -14.569 -22.553  0.00  0.00    -0.302 N 
ATOM     10  C   UNL     1      33.551 -13.554 -23.241  0.00  0.00    +0.252 C 
ATOM     11  H   UNL     1      34.224 -14.553 -21.570  0.00  0.00    +0.150 HD
BRANCH  10  14
ATOM     12 CL   UNL     1      31.638  -8.813 -21.279  0.00  0.00    -0.075 Cl
ATOM     13  S   UNL     1      32.973 -10.930 -22.877  0.00  0.00    -0.071 S 
ATOM     14  C   UNL     1      32.869 -12.553 -22.408  0.00  0.00    +0.084 C 
ATOM     15  C   UNL     1      32.151 -12.772 -21.284  0.00  0.00    +0.012 C 
ATOM     16  C   UNL     1      31.649 -11.545 -20.763  0.00  0.00    +0.019 C 
ATOM     17  C   UNL     1      32.020 -10.465 -21.533  0.00  0.00    +0.087 C 
ENDBRANCH  10  14
ENDBRANCH   3   9
BRANCH   4  18
ATOM     18  O   UNL     1      33.824 -16.549 -25.177  0.00  0.00    -0.385 OA
ATOM     19  H   UNL     1      32.937 -16.219 -25.388  0.00  0.00    +0.210 HD
ENDBRANCH   4  18
ENDBRANCH   1   2
BRANCH   1  22
ATOM     20  O   UNL     1      35.328 -18.031 -20.271  0.00  0.00    -0.277 OA
ATOM     21  N   UNL     1      35.600 -20.315 -20.744  0.00  0.00    -0.284 N 
ATOM     22  C   UNL     1      35.769 -18.948 -20.958  0.00  0.00    +0.205 C 
ATOM     23  H   UNL     1      36.024 -20.912 -21.403  0.00  0.00    +0.155 HD
BRANCH  21  25
ATOM     24  F   UNL     1      32.826 -20.270 -20.647  0.00  0.00    -0.203 F 
ATOM     25  C   UNL     1      34.893 -20.945 -19.693  0.00  0.00    +0.078 C 
ATOM     26  C   UNL     1      33.509 -20.900 -19.681  0.00  0.00    +0.155 C 
ATOM     27  C   UNL     1      35.604 -21.595 -18.697  0.00  0.00    +0.018 C 
ATOM     28  C   UNL     1      33.516 -22.180 -17.631  0.00  0.00    +0.061 C 
ATOM     29  C   UNL     1      32.816 -21.522 -18.643  0.00  0.00    +0.046 C 
ATOM     30  C   UNL     1      34.911 -22.216 -17.659  0.00  0.00    +0.017 C 
BRANCH  28  32
ATOM     31  O   UNL     1      34.715 -23.778 -15.540  0.00  0.00    -0.269 OA
ATOM     32  N   UNL     1      32.794 -22.826 -16.552  0.00  0.00    -0.233 N 
ATOM     33  C   UNL     1      33.505 -23.552 -15.561  0.00  0.00    +0.257 C 
ATOM     34  C   UNL     1      31.401 -22.758 -16.492  0.00  0.00    +0.072 C 
ATOM     35  C   UNL     1      32.689 -24.146 -14.459  0.00  0.00    +0.059 C 
ATOM     36  C   UNL     1      30.691 -23.326 -15.512  0.00  0.00    +0.017 C 
ATOM     37  C   UNL     1      31.359 -24.035 -14.461  0.00  0.00    +0.006 C 
ENDBRANCH  28  32
ENDBRANCH  21  25
ENDBRANCH   1  22
TORSDOF 7
ENDMDL
MODEL 4
REMARK VINA RESULT:     -10.7      3.538      6.167
REMARK  Name = 11979006
REMARK  7 active torsions:
REMARK  status: ('A' for Active; 'I' for Inactive)
REMARK    1  A    between atoms: C_1  and  N_2
REMARK    2  A    between atoms: C_1  and  C_22
REMARK    3  A    between atoms: C_3  and  N_9
REMARK    4  A    between atoms: C_4  and  O_18
REMARK    5  A    between atoms: C_10  and  C_14
REMARK    6  A    between atoms: N_21  and  C_25
REMARK    7  A    between atoms: C_28  and  N_32
REMARK                            x       y       z     vdW  Elec       q    Type
REMARK                         _______ _______ _______ _____ _____    ______ ____
ROOT
ATOM      1  C   UNL     1      35.645 -21.279 -19.583  0.00  0.00    +0.010 C 
ENDROOT
BRANCH   1   2
ATOM      2  N   UNL     1      35.042 -21.603 -18.299  0.00  0.00    +0.396 N 
ATOM      3  C   UNL     1      35.136 -22.578 -16.205  0.00  0.00    +0.076 C 
ATOM      4  C   UNL     1      33.975 -23.230 -16.959  0.00  0.00    +0.106 C 
ATOM      5  C   UNL     1      36.031 -22.030 -17.308  0.00  0.00    -0.054 C 
ATOM      6  C   UNL     1      34.079 -22.707 -18.392  0.00  0.00    -0.045 C 
ATOM      7  H   UNL     1      34.585 -20.737 -18.015  0.00  0.00    -0.079 HD
BRANCH   3   9
ATOM      8  O   UNL     1      34.197 -23.544 -13.728  0.00  0.00    -0.270 OA
ATOM      9  N   UNL     1      35.826 -23.503 -15.349  0.00  0.00    -0.302 N 
ATOM     10  C   UNL     1      35.293 -23.936 -14.132  0.00  0.00    +0.252 C 
ATOM     11  H   UNL     1      36.705 -23.844 -15.629  0.00  0.00    +0.150 HD
BRANCH  10  14
ATOM     12 CL   UNL     1      38.381 -28.267 -12.829  0.00  0.00    -0.075 Cl
ATOM     13  S   UNL     1      36.728 -26.235 -14.227  0.00  0.00    -0.071 S 
ATOM     14  C   UNL     1      36.104 -24.909 -13.383  0.00  0.00    +0.084 C 
ATOM     15  C   UNL     1      36.419 -24.874 -12.070  0.00  0.00    +0.012 C 
ATOM     16  C   UNL     1      37.223 -25.998 -11.718  0.00  0.00    +0.019 C 
ATOM     17  C   UNL     1      37.466 -26.818 -12.797  0.00  0.00    +0.087 C 
ENDBRANCH  10  14
ENDBRANCH   3   9
BRANCH   4  18
ATOM     18  O   UNL     1      32.746 -22.833 -16.364  0.00  0.00    -0.385 OA
ATOM     19  H   UNL     1      32.009 -23.099 -16.936  0.00  0.00    +0.210 HD
ENDBRANCH   4  18
ENDBRANCH   1   2
BRANCH   1  22
ATOM     20  O   UNL     1      33.619 -20.234 -20.374  0.00  0.00    -0.277 OA
ATOM     21  N   UNL     1      35.682 -19.157 -20.683  0.00  0.00    -0.284 N 
ATOM     22  C   UNL     1      34.839 -20.181 -20.256  0.00  0.00    +0.205 C 
ATOM     23  H   UNL     1      36.642 -19.279 -20.499  0.00  0.00    +0.155 HD
BRANCH  21  25
ATOM     24  F   UNL     1      35.239 -19.116 -23.423  0.00  0.00    -0.203 F 
ATOM     25  C   UNL     1      35.321 -17.961 -21.349  0.00  0.00    +0.078 C 
ATOM     26  C   UNL     1      35.109 -17.983 -22.718  0.00  0.00    +0.155 C 
ATOM     27  C   UNL     1      35.189 -16.794 -20.616  0.00  0.00    +0.018 C 
ATOM     28  C   UNL     1      34.616 -15.618 -22.648  0.00  0.00    +0.061 C 
ATOM     29  C   UNL     1      34.753 -16.803 -23.371  0.00  0.00    +0.046 C 
ATOM     30  C   UNL     1      34.834 -15.614 -21.269  0.00  0.00    +0.017 C 
BRANCH  28  32
ATOM     31  O   UNL     1      33.957 -15.398 -25.455  0.00  0.00    -0.269 OA
ATOM     32  N   UNL     1      34.248 -14.392 -23.328  0.00  0.00    -0.233 N 
ATOM     33  C   UNL     1      33.907 -14.423 -24.706  0.00  0.00    +0.257 C 
ATOM     34  C   UNL     1      34.247 -13.175 -22.644  0.00  0.00    +0.072 C 
ATOM     35  C   UNL     1      33.493 -13.123 -25.318  0.00  0.00    +0.059 C 
ATOM     36  C   UNL     1      33.904 -12.020 -23.222  0.00  0.00    +0.017 C 
ATOM     37  C   UNL     1      33.509 -11.998 -24.600  0.00  0.00    +0.006 C 
ENDBRANCH  28  32
ENDBRANCH  21  25
ENDBRANCH   1  22
TORSDOF 7
ENDMDL
MODEL 5
REMARK VINA RESULT:     -10.6      5.369      8.562
REMARK  Name = 11979006
REMARK  7 active torsions:
REMARK  status: ('A' for Active; 'I' for Inactive)
REMARK    1  A    between atoms: C_1  and  N_2
REMARK    2  A    between atoms: C_1  and  C_22
REMARK    3  A    between atoms: C_3  and  N_9
REMARK    4  A    between atoms: C_4  and  O_18
REMARK    5  A    between atoms: C_10  and  C_14
REMARK    6  A    between atoms: N_21  and  C_25
REMARK    7  A    between atoms: C_28  and  N_32
REMARK                            x       y       z     vdW  Elec       q    Type
REMARK                         _______ _______ _______ _____ _____    ______ ____
ROOT
ATOM      1  C   UNL     1      37.778 -22.248 -15.651  0.00  0.00    +0.010 C 
ENDROOT
BRANCH   1   2
ATOM      2  N   UNL     1      36.736 -23.259 -15.751  0.00  0.00    +0.396 N 
ATOM      3  C   UNL     1      34.521 -23.905 -15.620  0.00  0.00    +0.076 C 
ATOM      4  C   UNL     1      35.303 -24.755 -14.616  0.00  0.00    +0.106 C 
ATOM      5  C   UNL     1      35.395 -22.677 -15.824  0.00  0.00    -0.054 C 
ATOM      6  C   UNL     1      36.710 -24.157 -14.591  0.00  0.00    -0.045 C 
ATOM      7  H   UNL     1      36.965 -23.765 -16.606  0.00  0.00    -0.079 HD
BRANCH   3   9
ATOM      8  O   UNL     1      32.270 -23.403 -17.242  0.00  0.00    -0.270 OA
ATOM      9  N   UNL     1      33.205 -23.569 -15.149  0.00  0.00    -0.302 N 
ATOM     10  C   UNL     1      32.137 -23.334 -16.019  0.00  0.00    +0.252 C 
ATOM     11  H   UNL     1      33.050 -23.502 -14.180  0.00  0.00    +0.150 HD
BRANCH  10  14
ATOM     12 CL   UNL     1      26.821 -22.283 -15.228  0.00  0.00    -0.075 Cl
ATOM     13  S   UNL     1      29.487 -22.889 -16.386  0.00  0.00    -0.071 S 
ATOM     14  C   UNL     1      30.844 -23.032 -15.386  0.00  0.00    +0.084 C 
ATOM     15  C   UNL     1      30.599 -22.849 -14.070  0.00  0.00    +0.012 C 
ATOM     16  C   UNL     1      29.218 -22.573 -13.851  0.00  0.00    +0.019 C 
ATOM     17  C   UNL     1      28.500 -22.566 -15.026  0.00  0.00    +0.087 C 
ENDBRANCH  10  14
ENDBRANCH   3   9
BRANCH   4  18
ATOM     18  O   UNL     1      35.334 -26.104 -15.065  0.00  0.00    -0.385 OA
ATOM     19  H   UNL     1      35.922 -26.175 -15.833  0.00  0.00    +0.210 HD
ENDBRANCH   4  18
ENDBRANCH   1   2
BRANCH   1  22
ATOM     20  O   UNL     1      37.813 -19.956 -16.403  0.00  0.00    -0.277 OA
ATOM     21  N   UNL     1      36.797 -21.602 -17.734  0.00  0.00    -0.284 N 
ATOM     22  C   UNL     1      37.477 -21.116 -16.618  0.00  0.00    +0.205 C 
ATOM     23  H   UNL     1      36.612 -22.570 -17.741  0.00  0.00    +0.155 HD
BRANCH  21  25
ATOM     24  F   UNL     1      34.154 -21.750 -18.570  0.00  0.00    -0.203 F 
ATOM     25  C   UNL     1      36.341 -20.870 -18.855  0.00  0.00    +0.078 C 
ATOM     26  C   UNL     1      35.015 -20.970 -19.241  0.00  0.00    +0.155 C 
ATOM     27  C   UNL     1      37.235 -20.066 -19.544  0.00  0.00    +0.018 C 
ATOM     28  C   UNL     1      35.457 -19.434 -21.053  0.00  0.00    +0.061 C 
ATOM     29  C   UNL     1      34.569 -20.247 -20.347  0.00  0.00    +0.046 C 
ATOM     30  C   UNL     1      36.790 -19.344 -20.651  0.00  0.00    +0.017 C 
BRANCH  28  32
ATOM     31  O   UNL     1      35.468 -16.551 -21.282  0.00  0.00    -0.269 OA
ATOM     32  N   UNL     1      34.993 -18.683 -22.203  0.00  0.00    -0.233 N 
ATOM     33  C   UNL     1      35.089 -17.267 -22.208  0.00  0.00    +0.257 C 
ATOM     34  C   UNL     1      34.431 -19.341 -23.298  0.00  0.00    +0.072 C 
ATOM     35  C   UNL     1      34.632 -16.574 -23.452  0.00  0.00    +0.059 C 
ATOM     36  C   UNL     1      33.999 -18.696 -24.387  0.00  0.00    +0.017 C 
ATOM     37  C   UNL     1      34.111 -17.269 -24.466  0.00  0.00    +0.006 C 
ENDBRANCH  28  32
ENDBRANCH  21  25
ENDBRANCH   1  22
TORSDOF 7
ENDMDL
MODEL 6
REMARK VINA RESULT:     -10.5      5.386     11.752
REMARK  Name = 11979006
REMARK  7 active torsions:
REMARK  status: ('A' for Active; 'I' for Inactive)
REMARK    1  A    between atoms: C_1  and  N_2
REMARK    2  A    between atoms: C_1  and  C_22
REMARK    3  A    between atoms: C_3  and  N_9
REMARK    4  A    between atoms: C_4  and  O_18
REMARK    5  A    between atoms: C_10  and  C_14
REMARK    6  A    between atoms: N_21  and  C_25
REMARK    7  A    between atoms: C_28  and  N_32
REMARK                            x       y       z     vdW  Elec       q    Type
REMARK                         _______ _______ _______ _____ _____    ______ ____
ROOT
ATOM      1  C   UNL     1      33.674 -13.442 -24.961  0.00  0.00    +0.010 C 
ENDROOT
BRANCH   1   2
ATOM      2  N   UNL     1      34.338 -12.201 -24.590  0.00  0.00    +0.396 N 
ATOM      3  C   UNL     1      34.311 -10.098 -23.631  0.00  0.00    +0.076 C 
ATOM      4  C   UNL     1      34.722  -9.925 -25.095  0.00  0.00    +0.106 C 
ATOM      5  C   UNL     1      33.573 -11.429 -23.609  0.00  0.00    -0.054 C 
ATOM      6  C   UNL     1      34.528 -11.302 -25.734  0.00  0.00    -0.045 C 
ATOM      7  H   UNL     1      35.232 -12.504 -24.205  0.00  0.00    -0.079 HD
BRANCH   3   9
ATOM      8  O   UNL     1      35.254  -7.573 -22.803  0.00  0.00    -0.270 OA
ATOM      9  N   UNL     1      33.498  -9.013 -23.155  0.00  0.00    -0.302 N 
ATOM     10  C   UNL     1      34.041  -7.787 -22.762  0.00  0.00    +0.252 C 
ATOM     11  H   UNL     1      32.523  -9.137 -23.104  0.00  0.00    +0.150 HD
BRANCH  10  14
ATOM     12 CL   UNL     1      31.184  -3.133 -22.360  0.00  0.00    -0.075 Cl
ATOM     13  S   UNL     1      33.082  -5.279 -23.139  0.00  0.00    -0.071 S 
ATOM     14  C   UNL     1      33.078  -6.764 -22.329  0.00  0.00    +0.084 C 
ATOM     15  C   UNL     1      32.165  -6.865 -21.337  0.00  0.00    +0.012 C 
ATOM     16  C   UNL     1      31.415  -5.659 -21.221  0.00  0.00    +0.019 C 
ATOM     17  C   UNL     1      31.811  -4.714 -22.142  0.00  0.00    +0.087 C 
ENDBRANCH  10  14
ENDBRANCH   3   9
BRANCH   4  18
ATOM     18  O   UNL     1      36.085  -9.527 -25.157  0.00  0.00    -0.385 OA
ATOM     19  H   UNL     1      36.149  -8.569 -25.018  0.00  0.00    +0.210 HD
ENDBRANCH   4  18
ENDBRANCH   1   2
BRANCH   1  22
ATOM     20  O   UNL     1      32.919 -14.091 -22.763  0.00  0.00    -0.277 OA
ATOM     21  N   UNL     1      34.388 -15.487 -23.948  0.00  0.00    -0.284 N 
ATOM     22  C   UNL     1      33.599 -14.355 -23.749  0.00  0.00    +0.205 C 
ATOM     23  H   UNL     1      34.865 -15.537 -24.808  0.00  0.00    +0.155 HD
BRANCH  21  25
ATOM     24  F   UNL     1      33.814 -18.093 -24.713  0.00  0.00    -0.203 F 
ATOM     25  C   UNL     1      34.584 -16.572 -23.061  0.00  0.00    +0.078 C 
ATOM     26  C   UNL     1      34.285 -17.857 -23.480  0.00  0.00    +0.155 C 
ATOM     27  C   UNL     1      35.070 -16.322 -21.788  0.00  0.00    +0.018 C 
ATOM     28  C   UNL     1      34.968 -18.689 -21.317  0.00  0.00    +0.061 C 
ATOM     29  C   UNL     1      34.479 -18.924 -22.603  0.00  0.00    +0.046 C 
ATOM     30  C   UNL     1      35.263 -17.388 -20.910  0.00  0.00    +0.017 C 
BRANCH  28  32
ATOM     31  O   UNL     1      32.865 -20.298 -20.155  0.00  0.00    -0.269 OA
ATOM     32  N   UNL     1      35.168 -19.798 -20.405  0.00  0.00    -0.233 N 
ATOM     33  C   UNL     1      34.051 -20.537 -19.934  0.00  0.00    +0.257 C 
ATOM     34  C   UNL     1      36.451 -20.133 -19.968  0.00  0.00    +0.072 C 
ATOM     35  C   UNL     1      34.351 -21.694 -19.035  0.00  0.00    +0.059 C 
ATOM     36  C   UNL     1      36.690 -21.152 -19.137  0.00  0.00    +0.017 C 
ATOM     37  C   UNL     1      35.605 -21.960 -18.663  0.00  0.00    +0.006 C 
ENDBRANCH  28  32
ENDBRANCH  21  25
ENDBRANCH   1  22
TORSDOF 7
ENDMDL
MODEL 7
REMARK VINA RESULT:     -10.5      1.565      1.938
REMARK  Name = 11979006
REMARK  7 active torsions:
REMARK  status: ('A' for Active; 'I' for Inactive)
REMARK    1  A    between atoms: C_1  and  N_2
REMARK    2  A    between atoms: C_1  and  C_22
REMARK    3  A    between atoms: C_3  and  N_9
REMARK    4  A    between atoms: C_4  and  O_18
REMARK    5  A    between atoms: C_10  and  C_14
REMARK    6  A    between atoms: N_21  and  C_25
REMARK    7  A    between atoms: C_28  and  N_32
REMARK                            x       y       z     vdW  Elec       q    Type
REMARK                         _______ _______ _______ _____ _____    ______ ____
ROOT
ATOM      1  C   UNL     1      34.225 -16.876 -23.971  0.00  0.00    +0.010 C 
ENDROOT
BRANCH   1   2
ATOM      2  N   UNL     1      35.044 -17.772 -23.168  0.00  0.00    +0.396 N 
ATOM      3  C   UNL     1      35.266 -19.436 -21.579  0.00  0.00    +0.076 C 
ATOM      4  C   UNL     1      36.034 -18.214 -21.068  0.00  0.00    +0.106 C 
ATOM      5  C   UNL     1      34.265 -18.856 -22.568  0.00  0.00    -0.054 C 
ATOM      6  C   UNL     1      35.691 -17.086 -22.043  0.00  0.00    -0.045 C 
ATOM      7  H   UNL     1      35.733 -18.133 -23.827  0.00  0.00    -0.079 HD
BRANCH   3   9
ATOM      8  O   UNL     1      36.543 -21.219 -19.807  0.00  0.00    -0.270 OA
ATOM      9  N   UNL     1      34.628 -20.168 -20.520  0.00  0.00    -0.302 N 
ATOM     10  C   UNL     1      35.331 -21.036 -19.680  0.00  0.00    +0.252 C 
ATOM     11  H   UNL     1      33.661 -20.054 -20.380  0.00  0.00    +0.150 HD
BRANCH  10  14
ATOM     12 CL   UNL     1      31.161 -22.823 -16.614  0.00  0.00    -0.075 Cl
ATOM     13  S   UNL     1      32.860 -21.550 -18.690  0.00  0.00    -0.071 S 
ATOM     14  C   UNL     1      34.545 -21.688 -18.623  0.00  0.00    +0.084 C 
ATOM     15  C   UNL     1      35.013 -22.402 -17.575  0.00  0.00    +0.012 C 
ATOM     16  C   UNL     1      33.936 -22.872 -16.768  0.00  0.00    +0.019 C 
ATOM     17  C   UNL     1      32.712 -22.481 -17.261  0.00  0.00    +0.087 C 
ENDBRANCH  10  14
ENDBRANCH   3   9
BRANCH   4  18
ATOM     18  O   UNL     1      37.427 -18.493 -21.088  0.00  0.00    -0.385 OA
ATOM     19  H   UNL     1      37.600 -19.237 -21.686  0.00  0.00    +0.210 HD
ENDBRANCH   4  18
ENDBRANCH   1   2
BRANCH   1  22
ATOM     20  O   UNL     1      35.597 -15.037 -23.221  0.00  0.00    -0.277 OA
ATOM     21  N   UNL     1      33.304 -14.701 -23.599  0.00  0.00    -0.284 N 
ATOM     22  C   UNL     1      34.484 -15.440 -23.547  0.00  0.00    +0.205 C 
ATOM     23  H   UNL     1      32.499 -15.189 -23.889  0.00  0.00    +0.155 HD
BRANCH  21  25
ATOM     24  F   UNL     1      34.218 -12.703 -25.296  0.00  0.00    -0.203 F 
ATOM     25  C   UNL     1      33.126 -13.333 -23.283  0.00  0.00    +0.078 C 
ATOM     26  C   UNL     1      33.596 -12.367 -24.156  0.00  0.00    +0.155 C 
ATOM     27  C   UNL     1      32.483 -12.992 -22.105  0.00  0.00    +0.018 C 
ATOM     28  C   UNL     1      32.775 -10.658 -22.658  0.00  0.00    +0.061 C 
ATOM     29  C   UNL     1      33.419 -11.019 -23.842  0.00  0.00    +0.046 C 
ATOM     30  C   UNL     1      32.307 -11.644 -21.790  0.00  0.00    +0.017 C 
BRANCH  28  32
ATOM     31  O   UNL     1      31.796  -9.644 -20.133  0.00  0.00    -0.269 OA
ATOM     32  N   UNL     1      32.592  -9.257 -22.332  0.00  0.00    -0.233 N 
ATOM     33  C   UNL     1      32.140  -8.886 -21.038  0.00  0.00    +0.257 C 
ATOM     34  C   UNL     1      32.835  -8.269 -23.288  0.00  0.00    +0.072 C 
ATOM     35  C   UNL     1      32.024  -7.419 -20.770  0.00  0.00    +0.059 C 
ATOM     36  C   UNL     1      32.692  -6.965 -23.033  0.00  0.00    +0.017 C 
ATOM     37  C   UNL     1      32.281  -6.529 -21.731  0.00  0.00    +0.006 C 
ENDBRANCH  28  32
ENDBRANCH  21  25
ENDBRANCH   1  22
TORSDOF 7
ENDMDL
MODEL 8
REMARK VINA RESULT:     -10.1      5.409     11.831
REMARK  Name = 11979006
REMARK  7 active torsions:
REMARK  status: ('A' for Active; 'I' for Inactive)
REMARK    1  A    between atoms: C_1  and  N_2
REMARK    2  A    between atoms: C_1  and  C_22
REMARK    3  A    between atoms: C_3  and  N_9
REMARK    4  A    between atoms: C_4  and  O_18
REMARK    5  A    between atoms: C_10  and  C_14
REMARK    6  A    between atoms: N_21  and  C_25
REMARK    7  A    between atoms: C_28  and  N_32
REMARK                            x       y       z     vdW  Elec       q    Type
REMARK                         _______ _______ _______ _____ _____    ______ ____
ROOT
ATOM      1  C   UNL     1      33.515 -12.986 -24.959  0.00  0.00    +0.010 C 
ENDROOT
BRANCH   1   2
ATOM      2  N   UNL     1      34.241 -11.802 -24.527  0.00  0.00    +0.396 N 
ATOM      3  C   UNL     1      34.291  -9.664 -23.648  0.00  0.00    +0.076 C 
ATOM      4  C   UNL     1      34.938  -9.602 -25.034  0.00  0.00    +0.106 C 
ATOM      5  C   UNL     1      33.422 -10.913 -23.703  0.00  0.00    -0.054 C 
ATOM      6  C   UNL     1      34.699 -10.980 -25.653  0.00  0.00    -0.045 C 
ATOM      7  H   UNL     1      35.028 -12.175 -23.996  0.00  0.00    -0.079 HD
BRANCH   3   9
ATOM      8  O   UNL     1      35.339  -7.261 -22.610  0.00  0.00    -0.270 OA
ATOM      9  N   UNL     1      33.534  -8.482 -23.340  0.00  0.00    -0.302 N 
ATOM     10  C   UNL     1      34.128  -7.326 -22.827  0.00  0.00    +0.252 C 
ATOM     11  H   UNL     1      32.563  -8.487 -23.496  0.00  0.00    +0.150 HD
BRANCH  10  14
ATOM     12 CL   UNL     1      31.320  -2.666 -23.449  0.00  0.00    -0.075 Cl
ATOM     13  S   UNL     1      33.107  -5.011 -23.802  0.00  0.00    -0.071 S 
ATOM     14  C   UNL     1      33.226  -6.188 -22.592  0.00  0.00    +0.084 C 
ATOM     15  C   UNL     1      32.461  -5.959 -21.502  0.00  0.00    +0.012 C 
ATOM     16  C   UNL     1      31.726  -4.747 -21.652  0.00  0.00    +0.019 C 
ATOM     17  C   UNL     1      31.983  -4.132 -22.856  0.00  0.00    +0.087 C 
ENDBRANCH  10  14
ENDBRANCH   3   9
BRANCH   4  18
ATOM     18  O   UNL     1      36.329  -9.345 -24.892  0.00  0.00    -0.385 OA
ATOM     19  H   UNL     1      36.754 -10.099 -24.456  0.00  0.00    +0.210 HD
ENDBRANCH   4  18
ENDBRANCH   1   2
BRANCH   1  22
ATOM     20  O   UNL     1      32.646 -13.826 -22.871  0.00  0.00    -0.277 OA
ATOM     21  N   UNL     1      34.329 -15.017 -23.995  0.00  0.00    -0.284 N 
ATOM     22  C   UNL     1      33.426 -13.972 -23.807  0.00  0.00    +0.205 C 
ATOM     23  H   UNL     1      34.877 -14.975 -24.812  0.00  0.00    +0.155 HD
BRANCH  21  25
ATOM     24  F   UNL     1      34.963 -14.684 -21.313  0.00  0.00    -0.203 F 
ATOM     25  C   UNL     1      34.550 -16.131 -23.151  0.00  0.00    +0.078 C 
ATOM     26  C   UNL     1      34.865 -15.922 -21.818  0.00  0.00    +0.155 C 
ATOM     27  C   UNL     1      34.447 -17.407 -23.678  0.00  0.00    +0.018 C 
ATOM     28  C   UNL     1      34.983 -18.315 -21.504  0.00  0.00    +0.061 C 
ATOM     29  C   UNL     1      35.083 -17.022 -20.989  0.00  0.00    +0.046 C 
ATOM     30  C   UNL     1      34.666 -18.507 -22.849  0.00  0.00    +0.017 C 
BRANCH  28  32
ATOM     31  O   UNL     1      37.572 -19.246 -20.610  0.00  0.00    -0.269 OA
ATOM     32  N   UNL     1      35.211 -19.458 -20.641  0.00  0.00    -0.233 N 
ATOM     33  C   UNL     1      36.532 -19.790 -20.240  0.00  0.00    +0.257 C 
ATOM     34  C   UNL     1      34.142 -20.250 -20.218  0.00  0.00    +0.072 C 
ATOM     35  C   UNL     1      36.672 -20.954 -19.313  0.00  0.00    +0.059 C 
ATOM     36  C   UNL     1      34.298 -21.307 -19.414  0.00  0.00    +0.017 C 
ATOM     37  C   UNL     1      35.603 -21.663 -18.943  0.00  0.00    +0.006 C 
ENDBRANCH  28  32
ENDBRANCH  21  25
ENDBRANCH   1  22
TORSDOF 7
ENDMDL
MODEL 9
REMARK VINA RESULT:     -10.0      5.846      9.668
REMARK  Name = 11979006
REMARK  7 active torsions:
REMARK  status: ('A' for Active; 'I' for Inactive)
REMARK    1  A    between atoms: C_1  and  N_2
REMARK    2  A    between atoms: C_1  and  C_22
REMARK    3  A    between atoms: C_3  and  N_9
REMARK    4  A    between atoms: C_4  and  O_18
REMARK    5  A    between atoms: C_10  and  C_14
REMARK    6  A    between atoms: N_21  and  C_25
REMARK    7  A    between atoms: C_28  and  N_32
REMARK                            x       y       z     vdW  Elec       q    Type
REMARK                         _______ _______ _______ _____ _____    ______ ____
ROOT
ATOM      1  C   UNL     1      35.529 -23.919 -15.030  0.00  0.00    +0.010 C 
ENDROOT
BRANCH   1   2
ATOM      2  N   UNL     1      34.229 -24.405 -14.592  0.00  0.00    +0.396 N 
ATOM      3  C   UNL     1      31.920 -24.391 -14.699  0.00  0.00    +0.076 C 
ATOM      4  C   UNL     1      32.311 -24.029 -13.264  0.00  0.00    +0.106 C 
ATOM      5  C   UNL     1      33.155 -24.042 -15.517  0.00  0.00    -0.054 C 
ATOM      6  C   UNL     1      33.830 -23.851 -13.293  0.00  0.00    -0.045 C 
ATOM      7  H   UNL     1      34.348 -25.416 -14.543  0.00  0.00    -0.079 HD
BRANCH   3   9
ATOM      8  O   UNL     1      29.251 -25.170 -14.233  0.00  0.00    -0.270 OA
ATOM      9  N   UNL     1      30.750 -23.686 -15.145  0.00  0.00    -0.302 N 
ATOM     10  C   UNL     1      29.456 -24.138 -14.873  0.00  0.00    +0.252 C 
ATOM     11  H   UNL     1      30.863 -22.856 -15.661  0.00  0.00    +0.150 HD
BRANCH  10  14
ATOM     12 CL   UNL     1      25.886 -21.600 -18.160  0.00  0.00    -0.075 Cl
ATOM     13  S   UNL     1      28.069 -23.269 -17.035  0.00  0.00    -0.071 S 
ATOM     14  C   UNL     1      28.361 -23.291 -15.369  0.00  0.00    +0.084 C 
ATOM     15  C   UNL     1      27.536 -22.506 -14.640  0.00  0.00    +0.012 C 
ATOM     16  C   UNL     1      26.603 -21.839 -15.485  0.00  0.00    +0.019 C 
ATOM     17  C   UNL     1      26.781 -22.164 -16.811  0.00  0.00    +0.087 C 
ENDBRANCH  10  14
ENDBRANCH   3   9
BRANCH   4  18
ATOM     18  O   UNL     1      31.943 -25.092 -12.395  0.00  0.00    -0.385 OA
ATOM     19  H   UNL     1      32.392 -25.906 -12.671  0.00  0.00    +0.210 HD
ENDBRANCH   4  18
ENDBRANCH   1   2
BRANCH   1  22
ATOM     20  O   UNL     1      35.187 -21.541 -15.260  0.00  0.00    -0.277 OA
ATOM     21  N   UNL     1      35.404 -22.878 -17.179  0.00  0.00    -0.284 N 
ATOM     22  C   UNL     1      35.349 -22.627 -15.809  0.00  0.00    +0.205 C 
ATOM     23  H   UNL     1      35.545 -23.817 -17.442  0.00  0.00    +0.155 HD
BRANCH  21  25
ATOM     24  F   UNL     1      32.921 -22.218 -18.232  0.00  0.00    -0.203 F 
ATOM     25  C   UNL     1      35.280 -21.944 -18.234  0.00  0.00    +0.078 C 
ATOM     26  C   UNL     1      34.024 -21.642 -18.732  0.00  0.00    +0.155 C 
ATOM     27  C   UNL     1      36.422 -21.351 -18.747  0.00  0.00    +0.018 C 
ATOM     28  C   UNL     1      35.046 -20.115 -20.301  0.00  0.00    +0.061 C 
ATOM     29  C   UNL     1      33.906 -20.720 -19.773  0.00  0.00    +0.046 C 
ATOM     30  C   UNL     1      36.304 -20.431 -19.788  0.00  0.00    +0.017 C 
BRANCH  28  32
ATOM     31  O   UNL     1      35.706 -17.304 -20.130  0.00  0.00    -0.269 OA
ATOM     32  N   UNL     1      34.922 -19.158 -21.383  0.00  0.00    -0.233 N 
ATOM     33  C   UNL     1      35.319 -17.809 -21.183  0.00  0.00    +0.257 C 
ATOM     34  C   UNL     1      34.396 -19.547 -22.616  0.00  0.00    +0.072 C 
ATOM     35  C   UNL     1      35.202 -16.900 -22.365  0.00  0.00    +0.059 C 
ATOM     36  C   UNL     1      34.272 -18.706 -23.648  0.00  0.00    +0.017 C 
ATOM     37  C   UNL     1      34.696 -17.344 -23.517  0.00  0.00    +0.006 C 
ENDBRANCH  28  32
ENDBRANCH  21  25
ENDBRANCH   1  22
TORSDOF 7
ENDMDL
