MODEL 1
REMARK VINA RESULT:     -12.2      0.000      0.000
REMARK  Name = 24996872
REMARK  6 active torsions:
REMARK  status: ('A' for Active; 'I' for Inactive)
REMARK    1  A    between atoms: O_1  and  C_3
REMARK    2  A    between atoms: O_1  and  C_18
REMARK    3  A    between atoms: C_7  and  C_8
REMARK    4  A    between atoms: C_11  and  S_14
REMARK    5  A    between atoms: C_18  and  C_23
REMARK    6  A    between atoms: C_29  and  C_30
REMARK                            x       y       z     vdW  Elec       q    Type
REMARK                         _______ _______ _______ _____ _____    ______ ____
ROOT
ATOM      1  O   UNL     1      35.250 -18.111 -22.992  0.00  0.00    -0.474 OA
ENDROOT
BRANCH   1   3
ATOM      2  N   UNL     1      34.534 -14.708 -21.845  0.00  0.00    -0.241 NA
ATOM      3  C   UNL     1      34.820 -16.807 -23.012  0.00  0.00    +0.158 C 
ATOM      4  C   UNL     1      34.253 -16.257 -24.155  0.00  0.00    +0.040 C 
ATOM      5  C   UNL     1      34.937 -15.998 -21.892  0.00  0.00    +0.136 C 
ATOM      6  C   UNL     1      33.825 -14.933 -24.145  0.00  0.00    +0.022 C 
ATOM      7  C   UNL     1      33.988 -14.209 -22.976  0.00  0.00    +0.082 C 
BRANCH   7   8
ATOM      8  C   UNL     1      33.568 -12.830 -22.892  0.00  0.00    +0.018 C 
ATOM      9  C   UNL     1      32.602 -12.450 -21.960  0.00  0.00    +0.003 C 
ATOM     10  C   UNL     1      34.128 -11.877 -23.743  0.00  0.00    +0.003 C 
ATOM     11  C   UNL     1      32.757 -10.165 -22.731  0.00  0.00    +0.106 C 
ATOM     12  C   UNL     1      32.197 -11.118 -21.881  0.00  0.00    +0.018 C 
ATOM     13  C   UNL     1      33.723 -10.545 -23.663  0.00  0.00    +0.018 C 
BRANCH  11  14
ATOM     14  S   UNL     1      32.250  -8.498 -22.630  0.00  0.00    +0.010 S 
ATOM     15  O   UNL     1      33.102  -7.716 -23.516  0.00  0.00    -0.169 OA
ATOM     16  O   UNL     1      30.803  -8.434 -22.779  0.00  0.00    -0.169 OA
ATOM     17  C   UNL     1      32.621  -8.023 -20.957  0.00  0.00    +0.182 C 
ENDBRANCH  11  14
ENDBRANCH   7   8
ENDBRANCH   1   3
BRANCH   1  18
ATOM     18  C   UNL     1      36.001 -18.523 -21.864  0.00  0.00    +0.205 C 
BRANCH  18  23
ATOM     19  O   UNL     1      34.585 -22.658 -17.182  0.00  0.00    -0.296 OA
ATOM     20  N   UNL     1      34.264 -21.290 -19.056  0.00  0.00    -0.251 N 
ATOM     21  N   UNL     1      32.449 -22.313 -17.763  0.00  0.00    -0.300 NA
ATOM     22  N   UNL     1      33.809 -23.368 -16.256  0.00  0.00    -0.010 NA
ATOM     23  C   UNL     1      35.339 -19.764 -21.269  0.00  0.00    +0.047 C 
ATOM     24  C   UNL     1      33.996 -19.408 -20.623  0.00  0.00    +0.025 C 
ATOM     25  C   UNL     1      36.249 -20.421 -20.227  0.00  0.00    +0.025 C 
ATOM     26  C   UNL     1      33.339 -20.634 -19.989  0.00  0.00    +0.096 C 
ATOM     27  C   UNL     1      35.585 -21.642 -19.588  0.00  0.00    +0.096 C 
ATOM     28  C   UNL     1      33.706 -22.066 -18.033  0.00  0.00    +0.379 C 
ATOM     29  C   UNL     1      32.562 -23.115 -16.665  0.00  0.00    +0.104 C 
BRANCH  29  30
ATOM     30  C   UNL     1      31.392 -23.666 -15.975  0.00  0.00    +0.101 C 
ATOM     31  C   UNL     1      31.637 -23.932 -14.467  0.00  0.00    +0.017 C 
ATOM     32  C   UNL     1      30.121 -22.791 -16.127  0.00  0.00    +0.017 C 
ENDBRANCH  29  30
ENDBRANCH  18  23
ENDBRANCH   1  18
TORSDOF 6
ENDMDL
MODEL 2
REMARK VINA RESULT:     -12.2      3.640     11.638
REMARK  Name = 24996872
REMARK  6 active torsions:
REMARK  status: ('A' for Active; 'I' for Inactive)
REMARK    1  A    between atoms: O_1  and  C_3
REMARK    2  A    between atoms: O_1  and  C_18
REMARK    3  A    between atoms: C_7  and  C_8
REMARK    4  A    between atoms: C_11  and  S_14
REMARK    5  A    between atoms: C_18  and  C_23
REMARK    6  A    between atoms: C_29  and  C_30
REMARK                            x       y       z     vdW  Elec       q    Type
REMARK                         _______ _______ _______ _____ _____    ______ ____
ROOT
ATOM      1  O   UNL     1      34.950 -16.012 -24.527  0.00  0.00    -0.474 OA
ENDROOT
BRANCH   1   3
ATOM      2  N   UNL     1      34.029 -19.114 -22.815  0.00  0.00    -0.241 NA
ATOM      3  C   UNL     1      34.820 -16.943 -23.526  0.00  0.00    +0.158 C 
ATOM      4  C   UNL     1      35.317 -16.698 -22.251  0.00  0.00    +0.040 C 
ATOM      5  C   UNL     1      34.190 -18.156 -23.755  0.00  0.00    +0.136 C 
ATOM      6  C   UNL     1      35.170 -17.660 -21.257  0.00  0.00    +0.022 C 
ATOM      7  C   UNL     1      34.525 -18.841 -21.588  0.00  0.00    +0.082 C 
BRANCH   7   8
ATOM      8  C   UNL     1      34.338 -19.884 -20.608  0.00  0.00    +0.018 C 
ATOM      9  C   UNL     1      33.049 -20.270 -20.238  0.00  0.00    +0.003 C 
ATOM     10  C   UNL     1      35.444 -20.506 -20.031  0.00  0.00    +0.003 C 
ATOM     11  C   UNL     1      33.975 -21.901 -18.714  0.00  0.00    +0.106 C 
ATOM     12  C   UNL     1      32.869 -21.278 -19.291  0.00  0.00    +0.018 C 
ATOM     13  C   UNL     1      35.264 -21.514 -19.084  0.00  0.00    +0.018 C 
BRANCH  11  14
ATOM     14  S   UNL     1      33.749 -23.162 -17.529  0.00  0.00    +0.010 S 
ATOM     15  O   UNL     1      33.501 -24.408 -18.242  0.00  0.00    -0.169 OA
ATOM     16  O   UNL     1      34.827 -23.092 -16.552  0.00  0.00    -0.169 OA
ATOM     17  C   UNL     1      32.252 -22.710 -16.682  0.00  0.00    +0.182 C 
ENDBRANCH  11  14
ENDBRANCH   7   8
ENDBRANCH   1   3
BRANCH   1  18
ATOM     18  C   UNL     1      33.822 -15.201 -24.801  0.00  0.00    +0.205 C 
BRANCH  18  23
ATOM     19  O   UNL     1      32.638  -8.969 -23.916  0.00  0.00    -0.296 OA
ATOM     20  N   UNL     1      33.167 -11.187 -23.382  0.00  0.00    -0.251 N 
ATOM     21  N   UNL     1      32.565  -9.472 -21.735  0.00  0.00    -0.300 NA
ATOM     22  N   UNL     1      32.266  -7.790 -23.256  0.00  0.00    -0.010 NA
ATOM     23  C   UNL     1      34.053 -13.824 -24.182  0.00  0.00    +0.047 C 
ATOM     24  C   UNL     1      33.146 -13.615 -22.965  0.00  0.00    +0.025 C 
ATOM     25  C   UNL     1      33.796 -12.715 -25.207  0.00  0.00    +0.025 C 
ATOM     26  C   UNL     1      33.338 -12.226 -22.357  0.00  0.00    +0.096 C 
ATOM     27  C   UNL     1      33.981 -11.327 -24.594  0.00  0.00    +0.096 C 
ATOM     28  C   UNL     1      32.793  -9.909 -22.948  0.00  0.00    +0.379 C 
ATOM     29  C   UNL     1      32.244  -8.168 -21.975  0.00  0.00    +0.104 C 
BRANCH  29  30
ATOM     30  C   UNL     1      31.898  -7.237 -20.896  0.00  0.00    +0.101 C 
ATOM     31  C   UNL     1      32.630  -7.541 -19.564  0.00  0.00    +0.017 C 
ATOM     32  C   UNL     1      32.133  -5.751 -21.268  0.00  0.00    +0.017 C 
ENDBRANCH  29  30
ENDBRANCH  18  23
ENDBRANCH   1  18
TORSDOF 6
ENDMDL
MODEL 3
REMARK VINA RESULT:     -12.0      2.482      3.428
REMARK  Name = 24996872
REMARK  6 active torsions:
REMARK  status: ('A' for Active; 'I' for Inactive)
REMARK    1  A    between atoms: O_1  and  C_3
REMARK    2  A    between atoms: O_1  and  C_18
REMARK    3  A    between atoms: C_7  and  C_8
REMARK    4  A    between atoms: C_11  and  S_14
REMARK    5  A    between atoms: C_18  and  C_23
REMARK    6  A    between atoms: C_29  and  C_30
REMARK                            x       y       z     vdW  Elec       q    Type
REMARK                         _______ _______ _______ _____ _____    ______ ____
ROOT
ATOM      1  O   UNL     1      33.882 -16.475 -24.570  0.00  0.00    -0.474 OA
ENDROOT
BRANCH   1   3
ATOM      2  N   UNL     1      33.411 -12.866 -24.964  0.00  0.00    -0.241 NA
ATOM      3  C   UNL     1      33.860 -15.137 -24.265  0.00  0.00    +0.158 C 
ATOM      4  C   UNL     1      34.243 -14.682 -23.008  0.00  0.00    +0.040 C 
ATOM      5  C   UNL     1      33.456 -14.197 -25.200  0.00  0.00    +0.136 C 
ATOM      6  C   UNL     1      34.210 -13.320 -22.728  0.00  0.00    +0.022 C 
ATOM      7  C   UNL     1      33.790 -12.462 -23.731  0.00  0.00    +0.082 C 
BRANCH   7   8
ATOM      8  C   UNL     1      33.730 -11.036 -23.512  0.00  0.00    +0.018 C 
ATOM      9  C   UNL     1      32.729 -10.495 -22.705  0.00  0.00    +0.003 C 
ATOM     10  C   UNL     1      34.675 -10.199 -24.105  0.00  0.00    +0.003 C 
ATOM     11  C   UNL     1      33.617  -8.281 -23.087  0.00  0.00    +0.106 C 
ATOM     12  C   UNL     1      32.672  -9.118 -22.494  0.00  0.00    +0.018 C 
ATOM     13  C   UNL     1      34.618  -8.822 -23.894  0.00  0.00    +0.018 C 
BRANCH  11  14
ATOM     14  S   UNL     1      33.546  -6.557 -22.823  0.00  0.00    +0.010 S 
ATOM     15  O   UNL     1      33.329  -6.330 -21.400  0.00  0.00    -0.169 OA
ATOM     16  O   UNL     1      34.678  -5.929 -23.490  0.00  0.00    -0.169 OA
ATOM     17  C   UNL     1      32.081  -6.036 -23.688  0.00  0.00    +0.182 C 
ENDBRANCH  11  14
ENDBRANCH   7   8
ENDBRANCH   1   3
BRANCH   1  18
ATOM     18  C   UNL     1      35.067 -17.186 -24.260  0.00  0.00    +0.205 C 
BRANCH  18  23
ATOM     19  O   UNL     1      34.861 -21.659 -19.681  0.00  0.00    -0.296 OA
ATOM     20  N   UNL     1      35.433 -19.656 -20.750  0.00  0.00    -0.251 N 
ATOM     21  N   UNL     1      36.516 -20.498 -18.717  0.00  0.00    -0.300 NA
ATOM     22  N   UNL     1      35.257 -22.402 -18.560  0.00  0.00    -0.010 NA
ATOM     23  C   UNL     1      34.968 -17.688 -22.821  0.00  0.00    +0.047 C 
ATOM     24  C   UNL     1      36.361 -17.916 -22.226  0.00  0.00    +0.025 C 
ATOM     25  C   UNL     1      34.163 -18.990 -22.752  0.00  0.00    +0.025 C 
ATOM     26  C   UNL     1      36.278 -18.455 -20.799  0.00  0.00    +0.096 C 
ATOM     27  C   UNL     1      34.089 -19.531 -21.323  0.00  0.00    +0.096 C 
ATOM     28  C   UNL     1      35.653 -20.556 -19.699  0.00  0.00    +0.379 C 
ATOM     29  C   UNL     1      36.236 -21.652 -18.045  0.00  0.00    +0.104 C 
BRANCH  29  30
ATOM     30  C   UNL     1      36.962 -22.048 -16.834  0.00  0.00    +0.101 C 
ATOM     31  C   UNL     1      37.754 -20.883 -16.185  0.00  0.00    +0.017 C 
ATOM     32  C   UNL     1      36.054 -22.696 -15.758  0.00  0.00    +0.017 C 
ENDBRANCH  29  30
ENDBRANCH  18  23
ENDBRANCH   1  18
TORSDOF 6
ENDMDL
MODEL 4
REMARK VINA RESULT:     -11.7      3.981     11.881
REMARK  Name = 24996872
REMARK  6 active torsions:
REMARK  status: ('A' for Active; 'I' for Inactive)
REMARK    1  A    between atoms: O_1  and  C_3
REMARK    2  A    between atoms: O_1  and  C_18
REMARK    3  A    between atoms: C_7  and  C_8
REMARK    4  A    between atoms: C_11  and  S_14
REMARK    5  A    between atoms: C_18  and  C_23
REMARK    6  A    between atoms: C_29  and  C_30
REMARK                            x       y       z     vdW  Elec       q    Type
REMARK                         _______ _______ _______ _____ _____    ______ ____
ROOT
ATOM      1  O   UNL     1      35.650 -19.997 -21.293  0.00  0.00    -0.474 OA
ENDROOT
BRANCH   1   3
ATOM      2  N   UNL     1      35.026 -21.956 -18.264  0.00  0.00    -0.241 NA
ATOM      3  C   UNL     1      34.968 -20.602 -20.266  0.00  0.00    +0.158 C 
ATOM      4  C   UNL     1      33.586 -20.495 -20.163  0.00  0.00    +0.040 C 
ATOM      5  C   UNL     1      35.636 -21.337 -19.299  0.00  0.00    +0.136 C 
ATOM      6  C   UNL     1      32.923 -21.119 -19.112  0.00  0.00    +0.022 C 
ATOM      7  C   UNL     1      33.682 -21.830 -18.197  0.00  0.00    +0.082 C 
BRANCH   7   8
ATOM      8  C   UNL     1      33.062 -22.502 -17.080  0.00  0.00    +0.018 C 
ATOM      9  C   UNL     1      31.674 -22.485 -16.939  0.00  0.00    +0.003 C 
ATOM     10  C   UNL     1      33.849 -23.170 -16.143  0.00  0.00    +0.003 C 
ATOM     11  C   UNL     1      31.863 -23.803 -14.922  0.00  0.00    +0.106 C 
ATOM     12  C   UNL     1      31.075 -23.135 -15.859  0.00  0.00    +0.018 C 
ATOM     13  C   UNL     1      33.251 -23.820 -15.063  0.00  0.00    +0.018 C 
BRANCH  11  14
ATOM     14  S   UNL     1      31.114 -24.616 -13.572  0.00  0.00    +0.010 S 
ATOM     15  O   UNL     1      32.066 -25.585 -13.047  0.00  0.00    -0.169 OA
ATOM     16  O   UNL     1      30.533 -23.619 -12.682  0.00  0.00    -0.169 OA
ATOM     17  C   UNL     1      29.760 -25.517 -14.294  0.00  0.00    +0.182 C 
ENDBRANCH  11  14
ENDBRANCH   7   8
ENDBRANCH   1   3
BRANCH   1  18
ATOM     18  C   UNL     1      34.932 -19.757 -22.490  0.00  0.00    +0.205 C 
BRANCH  18  23
ATOM     19  O   UNL     1      33.378 -13.979 -24.773  0.00  0.00    -0.296 OA
ATOM     20  N   UNL     1      34.441 -15.585 -23.441  0.00  0.00    -0.251 N 
ATOM     21  N   UNL     1      34.466 -13.174 -22.988  0.00  0.00    -0.300 NA
ATOM     22  N   UNL     1      33.200 -12.589 -24.801  0.00  0.00    -0.010 NA
ATOM     23  C   UNL     1      35.218 -18.330 -22.949  0.00  0.00    +0.047 C 
ATOM     24  C   UNL     1      35.007 -17.335 -21.802  0.00  0.00    +0.025 C 
ATOM     25  C   UNL     1      34.322 -17.946 -24.130  0.00  0.00    +0.025 C 
ATOM     26  C   UNL     1      35.254 -15.897 -22.257  0.00  0.00    +0.096 C 
ATOM     27  C   UNL     1      34.565 -16.504 -24.577  0.00  0.00    +0.096 C 
ATOM     28  C   UNL     1      34.134 -14.239 -23.674  0.00  0.00    +0.379 C 
ATOM     29  C   UNL     1      33.871 -12.187 -23.717  0.00  0.00    +0.104 C 
BRANCH  29  30
ATOM     30  C   UNL     1      33.958 -10.774 -23.337  0.00  0.00    +0.101 C 
ATOM     31  C   UNL     1      34.658  -9.894 -24.405  0.00  0.00    +0.017 C 
ATOM     32  C   UNL     1      32.584 -10.144 -22.994  0.00  0.00    +0.017 C 
ENDBRANCH  29  30
ENDBRANCH  18  23
ENDBRANCH   1  18
TORSDOF 6
ENDMDL
MODEL 5
REMARK VINA RESULT:     -11.5      4.426     12.066
REMARK  Name = 24996872
REMARK  6 active torsions:
REMARK  status: ('A' for Active; 'I' for Inactive)
REMARK    1  A    between atoms: O_1  and  C_3
REMARK    2  A    between atoms: O_1  and  C_18
REMARK    3  A    between atoms: C_7  and  C_8
REMARK    4  A    between atoms: C_11  and  S_14
REMARK    5  A    between atoms: C_18  and  C_23
REMARK    6  A    between atoms: C_29  and  C_30
REMARK                            x       y       z     vdW  Elec       q    Type
REMARK                         _______ _______ _______ _____ _____    ______ ____
ROOT
ATOM      1  O   UNL     1      34.021 -19.750 -21.438  0.00  0.00    -0.474 OA
ENDROOT
BRANCH   1   3
ATOM      2  N   UNL     1      36.177 -20.995 -18.753  0.00  0.00    -0.241 NA
ATOM      3  C   UNL     1      34.409 -20.398 -20.290  0.00  0.00    +0.158 C 
ATOM      4  C   UNL     1      33.489 -21.092 -19.513  0.00  0.00    +0.040 C 
ATOM      5  C   UNL     1      35.730 -20.379 -19.871  0.00  0.00    +0.136 C 
ATOM      6  C   UNL     1      33.911 -21.738 -18.356  0.00  0.00    +0.022 C 
ATOM      7  C   UNL     1      35.254 -21.659 -18.023  0.00  0.00    +0.082 C 
BRANCH   7   8
ATOM      8  C   UNL     1      35.764 -22.305 -16.837  0.00  0.00    +0.018 C 
ATOM      9  C   UNL     1      37.077 -22.073 -16.426  0.00  0.00    +0.003 C 
ATOM     10  C   UNL     1      34.944 -23.160 -16.101  0.00  0.00    +0.003 C 
ATOM     11  C   UNL     1      36.748 -23.552 -14.544  0.00  0.00    +0.106 C 
ATOM     12  C   UNL     1      37.568 -22.697 -15.280  0.00  0.00    +0.018 C 
ATOM     13  C   UNL     1      35.436 -23.785 -14.955  0.00  0.00    +0.018 C 
BRANCH  11  14
ATOM     14  S   UNL     1      37.364 -24.333 -13.110  0.00  0.00    +0.010 S 
ATOM     15  O   UNL     1      36.458 -25.422 -12.767  0.00  0.00    -0.169 OA
ATOM     16  O   UNL     1      38.783 -24.606 -13.292  0.00  0.00    -0.169 OA
ATOM     17  C   UNL     1      37.233 -23.094 -11.840  0.00  0.00    +0.182 C 
ENDBRANCH  11  14
ENDBRANCH   7   8
ENDBRANCH   1   3
BRANCH   1  18
ATOM     18  C   UNL     1      34.913 -19.797 -22.536  0.00  0.00    +0.205 C 
BRANCH  18  23
ATOM     19  O   UNL     1      33.255 -13.997 -24.687  0.00  0.00    -0.296 OA
ATOM     20  N   UNL     1      34.390 -15.616 -23.432  0.00  0.00    -0.251 N 
ATOM     21  N   UNL     1      34.458 -13.209 -22.970  0.00  0.00    -0.300 NA
ATOM     22  N   UNL     1      33.084 -12.606 -24.696  0.00  0.00    -0.010 NA
ATOM     23  C   UNL     1      35.180 -18.369 -23.005  0.00  0.00    +0.047 C 
ATOM     24  C   UNL     1      35.047 -17.379 -21.842  0.00  0.00    +0.025 C 
ATOM     25  C   UNL     1      34.213 -17.973 -24.125  0.00  0.00    +0.025 C 
ATOM     26  C   UNL     1      35.273 -15.940 -22.304  0.00  0.00    +0.096 C 
ATOM     27  C   UNL     1      34.436 -16.530 -24.579  0.00  0.00    +0.096 C 
ATOM     28  C   UNL     1      34.077 -14.267 -23.639  0.00  0.00    +0.379 C 
ATOM     29  C   UNL     1      33.824 -12.214 -23.654  0.00  0.00    +0.104 C 
BRANCH  29  30
ATOM     30  C   UNL     1      33.944 -10.803 -23.274  0.00  0.00    +0.101 C 
ATOM     31  C   UNL     1      34.601  -9.926 -24.370  0.00  0.00    +0.017 C 
ATOM     32  C   UNL     1      32.594 -10.161 -22.863  0.00  0.00    +0.017 C 
ENDBRANCH  29  30
ENDBRANCH  18  23
ENDBRANCH   1  18
TORSDOF 6
ENDMDL
MODEL 6
REMARK VINA RESULT:     -11.4      1.175      1.704
REMARK  Name = 24996872
REMARK  6 active torsions:
REMARK  status: ('A' for Active; 'I' for Inactive)
REMARK    1  A    between atoms: O_1  and  C_3
REMARK    2  A    between atoms: O_1  and  C_18
REMARK    3  A    between atoms: C_7  and  C_8
REMARK    4  A    between atoms: C_11  and  S_14
REMARK    5  A    between atoms: C_18  and  C_23
REMARK    6  A    between atoms: C_29  and  C_30
REMARK                            x       y       z     vdW  Elec       q    Type
REMARK                         _______ _______ _______ _____ _____    ______ ____
ROOT
ATOM      1  O   UNL     1      35.411 -18.124 -23.110  0.00  0.00    -0.474 OA
ENDROOT
BRANCH   1   3
ATOM      2  N   UNL     1      34.612 -14.765 -21.890  0.00  0.00    -0.241 NA
ATOM      3  C   UNL     1      34.938 -16.835 -23.098  0.00  0.00    +0.158 C 
ATOM      4  C   UNL     1      34.326 -16.286 -24.218  0.00  0.00    +0.040 C 
ATOM      5  C   UNL     1      35.056 -16.040 -21.968  0.00  0.00    +0.136 C 
ATOM      6  C   UNL     1      33.855 -14.977 -24.177  0.00  0.00    +0.022 C 
ATOM      7  C   UNL     1      34.023 -14.266 -22.999  0.00  0.00    +0.082 C 
BRANCH   7   8
ATOM      8  C   UNL     1      33.560 -12.903 -22.883  0.00  0.00    +0.018 C 
ATOM      9  C   UNL     1      32.620 -12.566 -21.909  0.00  0.00    +0.003 C 
ATOM     10  C   UNL     1      34.054 -11.923 -23.744  0.00  0.00    +0.003 C 
ATOM     11  C   UNL     1      32.668 -10.269 -22.658  0.00  0.00    +0.106 C 
ATOM     12  C   UNL     1      32.174 -11.250 -21.798  0.00  0.00    +0.018 C 
ATOM     13  C   UNL     1      33.608 -10.607 -23.632  0.00  0.00    +0.018 C 
BRANCH  11  14
ATOM     14  S   UNL     1      32.109  -8.622 -22.518  0.00  0.00    +0.010 S 
ATOM     15  O   UNL     1      33.046  -7.768 -23.236  0.00  0.00    -0.169 OA
ATOM     16  O   UNL     1      30.691  -8.573 -22.847  0.00  0.00    -0.169 OA
ATOM     17  C   UNL     1      32.252  -8.252 -20.784  0.00  0.00    +0.182 C 
ENDBRANCH  11  14
ENDBRANCH   7   8
ENDBRANCH   1   3
BRANCH   1  18
ATOM     18  C   UNL     1      34.460 -19.160 -22.946  0.00  0.00    +0.205 C 
BRANCH  18  23
ATOM     19  O   UNL     1      32.524 -22.555 -17.872  0.00  0.00    -0.296 OA
ATOM     20  N   UNL     1      33.938 -21.272 -19.229  0.00  0.00    -0.251 N 
ATOM     21  N   UNL     1      34.673 -22.508 -17.242  0.00  0.00    -0.300 NA
ATOM     22  N   UNL     1      32.610 -23.350 -16.722  0.00  0.00    -0.010 NA
ATOM     23  C   UNL     1      34.327 -19.464 -21.456  0.00  0.00    +0.047 C 
ATOM     24  C   UNL     1      35.430 -20.423 -20.995  0.00  0.00    +0.025 C 
ATOM     25  C   UNL     1      32.957 -20.074 -21.144  0.00  0.00    +0.025 C 
ATOM     26  C   UNL     1      35.288 -20.767 -19.513  0.00  0.00    +0.096 C 
ATOM     27  C   UNL     1      32.821 -20.426 -19.662  0.00  0.00    +0.096 C 
ATOM     28  C   UNL     1      33.781 -22.099 -18.109  0.00  0.00    +0.379 C 
ATOM     29  C   UNL     1      33.908 -23.272 -16.411  0.00  0.00    +0.104 C 
BRANCH  29  30
ATOM     30  C   UNL     1      34.470 -23.967 -15.248  0.00  0.00    +0.101 C 
ATOM     31  C   UNL     1      35.823 -23.375 -14.775  0.00  0.00    +0.017 C 
ATOM     32  C   UNL     1      33.501 -24.028 -14.041  0.00  0.00    +0.017 C 
ENDBRANCH  29  30
ENDBRANCH  18  23
ENDBRANCH   1  18
TORSDOF 6
ENDMDL
MODEL 7
REMARK VINA RESULT:     -11.0      1.938      2.454
REMARK  Name = 24996872
REMARK  6 active torsions:
REMARK  status: ('A' for Active; 'I' for Inactive)
REMARK    1  A    between atoms: O_1  and  C_3
REMARK    2  A    between atoms: O_1  and  C_18
REMARK    3  A    between atoms: C_7  and  C_8
REMARK    4  A    between atoms: C_11  and  S_14
REMARK    5  A    between atoms: C_18  and  C_23
REMARK    6  A    between atoms: C_29  and  C_30
REMARK                            x       y       z     vdW  Elec       q    Type
REMARK                         _______ _______ _______ _____ _____    ______ ____
ROOT
ATOM      1  O   UNL     1      35.213 -17.776 -23.008  0.00  0.00    -0.474 OA
ENDROOT
BRANCH   1   3
ATOM      2  N   UNL     1      34.527 -14.354 -21.900  0.00  0.00    -0.241 NA
ATOM      3  C   UNL     1      34.785 -16.472 -23.040  0.00  0.00    +0.158 C 
ATOM      4  C   UNL     1      34.195 -15.938 -24.180  0.00  0.00    +0.040 C 
ATOM      5  C   UNL     1      34.927 -15.646 -21.936  0.00  0.00    +0.136 C 
ATOM      6  C   UNL     1      33.771 -14.614 -24.182  0.00  0.00    +0.022 C 
ATOM      7  C   UNL     1      33.959 -13.871 -23.028  0.00  0.00    +0.082 C 
BRANCH   7   8
ATOM      8  C   UNL     1      33.543 -12.490 -22.957  0.00  0.00    +0.018 C 
ATOM      9  C   UNL     1      34.155 -11.535 -23.770  0.00  0.00    +0.003 C 
ATOM     10  C   UNL     1      32.529 -12.111 -22.078  0.00  0.00    +0.003 C 
ATOM     11  C   UNL     1      32.739  -9.822 -22.822  0.00  0.00    +0.106 C 
ATOM     12  C   UNL     1      33.753 -10.202 -23.701  0.00  0.00    +0.018 C 
ATOM     13  C   UNL     1      32.127 -10.777 -22.009  0.00  0.00    +0.018 C 
BRANCH  11  14
ATOM     14  S   UNL     1      32.236  -8.153 -22.736  0.00  0.00    +0.010 S 
ATOM     15  O   UNL     1      33.137  -7.370 -23.571  0.00  0.00    -0.169 OA
ATOM     16  O   UNL     1      30.798  -8.080 -22.959  0.00  0.00    -0.169 OA
ATOM     17  C   UNL     1      32.521  -7.691 -21.042  0.00  0.00    +0.182 C 
ENDBRANCH  11  14
ENDBRANCH   7   8
ENDBRANCH   1   3
BRANCH   1  18
ATOM     18  C   UNL     1      34.275 -18.751 -22.593  0.00  0.00    +0.205 C 
BRANCH  18  23
ATOM     19  O   UNL     1      37.325 -20.695 -17.307  0.00  0.00    -0.296 OA
ATOM     20  N   UNL     1      35.854 -20.766 -19.129  0.00  0.00    -0.251 N 
ATOM     21  N   UNL     1      35.813 -22.348 -17.255  0.00  0.00    -0.300 NA
ATOM     22  N   UNL     1      37.566 -21.407 -16.125  0.00  0.00    -0.010 NA
ATOM     23  C   UNL     1      34.991 -19.766 -21.704  0.00  0.00    +0.047 C 
ATOM     24  C   UNL     1      34.011 -20.421 -20.726  0.00  0.00    +0.025 C 
ATOM     25  C   UNL     1      36.126 -19.099 -20.921  0.00  0.00    +0.025 C 
ATOM     26  C   UNL     1      34.720 -21.412 -19.804  0.00  0.00    +0.096 C 
ATOM     27  C   UNL     1      36.828 -20.091 -19.993  0.00  0.00    +0.096 C 
ATOM     28  C   UNL     1      36.277 -21.315 -17.912  0.00  0.00    +0.379 C 
ATOM     29  C   UNL     1      36.634 -22.364 -16.166  0.00  0.00    +0.104 C 
BRANCH  29  30
ATOM     30  C   UNL     1      36.506 -23.368 -15.105  0.00  0.00    +0.101 C 
ATOM     31  C   UNL     1      37.074 -22.897 -13.741  0.00  0.00    +0.017 C 
ATOM     32  C   UNL     1      35.050 -23.859 -14.896  0.00  0.00    +0.017 C 
ENDBRANCH  29  30
ENDBRANCH  18  23
ENDBRANCH   1  18
TORSDOF 6
ENDMDL
MODEL 8
REMARK VINA RESULT:     -10.8      1.937      2.904
REMARK  Name = 24996872
REMARK  6 active torsions:
REMARK  status: ('A' for Active; 'I' for Inactive)
REMARK    1  A    between atoms: O_1  and  C_3
REMARK    2  A    between atoms: O_1  and  C_18
REMARK    3  A    between atoms: C_7  and  C_8
REMARK    4  A    between atoms: C_11  and  S_14
REMARK    5  A    between atoms: C_18  and  C_23
REMARK    6  A    between atoms: C_29  and  C_30
REMARK                            x       y       z     vdW  Elec       q    Type
REMARK                         _______ _______ _______ _____ _____    ______ ____
ROOT
ATOM      1  O   UNL     1      35.834 -20.338 -21.248  0.00  0.00    -0.474 OA
ENDROOT
BRANCH   1   3
ATOM      2  N   UNL     1      35.334 -16.715 -21.414  0.00  0.00    -0.241 NA
ATOM      3  C   UNL     1      35.491 -19.105 -21.746  0.00  0.00    +0.158 C 
ATOM      4  C   UNL     1      34.972 -18.969 -23.028  0.00  0.00    +0.040 C 
ATOM      5  C   UNL     1      35.651 -17.957 -20.985  0.00  0.00    +0.136 C 
ATOM      6  C   UNL     1      34.633 -17.707 -23.505  0.00  0.00    +0.022 C 
ATOM      7  C   UNL     1      34.833 -16.622 -22.666  0.00  0.00    +0.082 C 
BRANCH   7   8
ATOM      8  C   UNL     1      34.504 -15.283 -23.094  0.00  0.00    +0.018 C 
ATOM      9  C   UNL     1      34.506 -14.236 -22.171  0.00  0.00    +0.003 C 
ATOM     10  C   UNL     1      34.187 -15.035 -24.429  0.00  0.00    +0.003 C 
ATOM     11  C   UNL     1      33.871 -12.695 -23.921  0.00  0.00    +0.106 C 
ATOM     12  C   UNL     1      34.188 -12.943 -22.586  0.00  0.00    +0.018 C 
ATOM     13  C   UNL     1      33.870 -13.742 -24.843  0.00  0.00    +0.018 C 
BRANCH  11  14
ATOM     14  S   UNL     1      33.474 -11.076 -24.439  0.00  0.00    +0.010 S 
ATOM     15  O   UNL     1      32.891 -11.161 -25.771  0.00  0.00    -0.169 OA
ATOM     16  O   UNL     1      32.744 -10.404 -23.373  0.00  0.00    -0.169 OA
ATOM     17  C   UNL     1      35.048 -10.259 -24.583  0.00  0.00    +0.182 C 
ENDBRANCH  11  14
ENDBRANCH   7   8
ENDBRANCH   1   3
BRANCH   1  18
ATOM     18  C   UNL     1      36.083 -20.424 -19.857  0.00  0.00    +0.205 C 
BRANCH  18  23
ATOM     19  O   UNL     1      32.716 -23.173 -15.152  0.00  0.00    -0.296 OA
ATOM     20  N   UNL     1      33.210 -22.349 -17.289  0.00  0.00    -0.251 N 
ATOM     21  N   UNL     1      30.965 -22.993 -16.538  0.00  0.00    -0.300 NA
ATOM     22  N   UNL     1      31.599 -23.612 -14.429  0.00  0.00    -0.010 NA
ATOM     23  C   UNL     1      35.137 -21.463 -19.258  0.00  0.00    +0.047 C 
ATOM     24  C   UNL     1      33.694 -20.949 -19.256  0.00  0.00    +0.025 C 
ATOM     25  C   UNL     1      35.554 -21.821 -17.828  0.00  0.00    +0.025 C 
ATOM     26  C   UNL     1      32.740 -21.963 -18.626  0.00  0.00    +0.096 C 
ATOM     27  C   UNL     1      34.593 -22.829 -17.198  0.00  0.00    +0.096 C 
ATOM     28  C   UNL     1      32.255 -22.826 -16.383  0.00  0.00    +0.379 C 
ATOM     29  C   UNL     1      30.607 -23.476 -15.314  0.00  0.00    +0.104 C 
BRANCH  29  30
ATOM     30  C   UNL     1      29.221 -23.825 -14.986  0.00  0.00    +0.101 C 
ATOM     31  C   UNL     1      28.259 -23.719 -16.198  0.00  0.00    +0.017 C 
ATOM     32  C   UNL     1      29.074 -25.231 -14.353  0.00  0.00    +0.017 C 
ENDBRANCH  29  30
ENDBRANCH  18  23
ENDBRANCH   1  18
TORSDOF 6
ENDMDL
MODEL 9
REMARK VINA RESULT:     -10.1      3.103      4.183
REMARK  Name = 24996872
REMARK  6 active torsions:
REMARK  status: ('A' for Active; 'I' for Inactive)
REMARK    1  A    between atoms: O_1  and  C_3
REMARK    2  A    between atoms: O_1  and  C_18
REMARK    3  A    between atoms: C_7  and  C_8
REMARK    4  A    between atoms: C_11  and  S_14
REMARK    5  A    between atoms: C_18  and  C_23
REMARK    6  A    between atoms: C_29  and  C_30
REMARK                            x       y       z     vdW  Elec       q    Type
REMARK                         _______ _______ _______ _____ _____    ______ ____
ROOT
ATOM      1  O   UNL     1      35.858 -20.248 -20.734  0.00  0.00    -0.474 OA
ENDROOT
BRANCH   1   3
ATOM      2  N   UNL     1      35.276 -16.662 -21.186  0.00  0.00    -0.241 NA
ATOM      3  C   UNL     1      35.515 -19.063 -21.338  0.00  0.00    +0.158 C 
ATOM      4  C   UNL     1      35.076 -19.031 -22.656  0.00  0.00    +0.040 C 
ATOM      5  C   UNL     1      35.597 -17.862 -20.652  0.00  0.00    +0.136 C 
ATOM      6  C   UNL     1      34.735 -17.816 -23.241  0.00  0.00    +0.022 C 
ATOM      7  C   UNL     1      34.853 -16.671 -22.470  0.00  0.00    +0.082 C 
BRANCH   7   8
ATOM      8  C   UNL     1      34.517 -15.375 -23.011  0.00  0.00    +0.018 C 
ATOM      9  C   UNL     1      34.604 -14.239 -22.205  0.00  0.00    +0.003 C 
ATOM     10  C   UNL     1      34.108 -15.258 -24.339  0.00  0.00    +0.003 C 
ATOM     11  C   UNL     1      33.871 -12.870 -24.056  0.00  0.00    +0.106 C 
ATOM     12  C   UNL     1      34.280 -12.988 -22.728  0.00  0.00    +0.018 C 
ATOM     13  C   UNL     1      33.784 -14.006 -24.862  0.00  0.00    +0.018 C 
BRANCH  11  14
ATOM     14  S   UNL     1      33.466 -11.304 -24.710  0.00  0.00    +0.010 S 
ATOM     15  O   UNL     1      32.821 -11.509 -26.000  0.00  0.00    -0.169 OA
ATOM     16  O   UNL     1      32.792 -10.522 -23.683  0.00  0.00    -0.169 OA
ATOM     17  C   UNL     1      35.039 -10.527 -25.004  0.00  0.00    +0.182 C 
ENDBRANCH  11  14
ENDBRANCH   7   8
ENDBRANCH   1   3
BRANCH   1  18
ATOM     18  C   UNL     1      34.797 -21.084 -20.309  0.00  0.00    +0.205 C 
BRANCH  18  23
ATOM     19  O   UNL     1      35.042 -24.462 -14.873  0.00  0.00    -0.296 OA
ATOM     20  N   UNL     1      35.563 -22.790 -16.429  0.00  0.00    -0.251 N 
ATOM     21  N   UNL     1      36.901 -23.291 -14.435  0.00  0.00    -0.300 NA
ATOM     22  N   UNL     1      35.565 -24.989 -13.684  0.00  0.00    -0.010 NA
ATOM     23  C   UNL     1      34.898 -21.263 -18.796  0.00  0.00    +0.047 C 
ATOM     24  C   UNL     1      36.351 -21.495 -18.370  0.00  0.00    +0.025 C 
ATOM     25  C   UNL     1      34.034 -22.437 -18.326  0.00  0.00    +0.025 C 
ATOM     26  C   UNL     1      36.464 -21.713 -16.862  0.00  0.00    +0.096 C 
ATOM     27  C   UNL     1      34.155 -22.659 -16.818  0.00  0.00    +0.096 C 
ATOM     28  C   UNL     1      35.890 -23.468 -15.248  0.00  0.00    +0.379 C 
ATOM     29  C   UNL     1      36.659 -24.247 -13.492  0.00  0.00    +0.104 C 
BRANCH  29  30
ATOM     30  C   UNL     1      37.543 -24.450 -12.340  0.00  0.00    +0.101 C 
ATOM     31  C   UNL     1      38.958 -24.947 -12.732  0.00  0.00    +0.017 C 
ATOM     32  C   UNL     1      37.685 -23.192 -11.446  0.00  0.00    +0.017 C 
ENDBRANCH  29  30
ENDBRANCH  18  23
ENDBRANCH   1  18
TORSDOF 6
ENDMDL
