MODEL 1
REMARK VINA RESULT:     -12.4      0.000      0.000
REMARK  Name = 9800765
REMARK  5 active torsions:
REMARK  status: ('A' for Active; 'I' for Inactive)
REMARK    1  A    between atoms: C_3  and  C_17
REMARK    2  A    between atoms: C_5  and  N_8
REMARK    3  A    between atoms: N_8  and  C_14
REMARK    4  A    between atoms: C_17  and  C_20
REMARK    5  A    between atoms: C_23  and  C_26
REMARK                            x       y       z     vdW  Elec       q    Type
REMARK                         _______ _______ _______ _____ _____    ______ ____
ROOT
ATOM      1  O   UNL     1      36.538 -22.801 -15.398  0.00  0.00    -0.337 OA
ATOM      2  N   UNL     1      35.790 -22.799 -16.568  0.00  0.00    -0.079 NA
ATOM      3  C   UNL     1      34.533 -23.026 -16.176  0.00  0.00    +0.106 C 
ATOM      4  C   UNL     1      34.429 -23.177 -14.782  0.00  0.00    +0.076 C 
ATOM      5  C   UNL     1      35.713 -23.026 -14.350  0.00  0.00    +0.252 C 
ENDROOT
BRANCH   3   6
ATOM      6  C   UNL     1      33.452 -23.090 -17.173  0.00  0.00    +0.066 C 
ATOM      7  C   UNL     1      32.033 -22.970 -16.564  0.00  0.00    +0.011 C 
BRANCH   6   9
ATOM      8  F   UNL     1      36.655 -20.735 -19.970  0.00  0.00    -0.204 F 
ATOM      9  C   UNL     1      33.773 -22.061 -18.262  0.00  0.00    -0.015 C 
ATOM     10  C   UNL     1      35.086 -21.870 -18.619  0.00  0.00    +0.026 C 
ATOM     11  C   UNL     1      32.733 -21.370 -18.840  0.00  0.00    -0.004 C 
ATOM     12  C   UNL     1      34.347 -20.216 -20.217  0.00  0.00    +0.027 C 
ATOM     13  C   UNL     1      35.378 -20.934 -19.611  0.00  0.00    +0.140 C 
ATOM     14  C   UNL     1      33.025 -20.434 -19.831  0.00  0.00    +0.002 C 
BRANCH  12  15
ATOM     15  C   UNL     1      34.645 -19.245 -21.248  0.00  0.00    +0.002 C 
ATOM     16  C   UNL     1      35.341 -18.079 -20.926  0.00  0.00    +0.000 C 
ATOM     17  C   UNL     1      34.237 -19.474 -22.561  0.00  0.00    +0.000 C 
ATOM     18  C   UNL     1      35.629 -17.143 -21.919  0.00  0.00    +0.000 C 
ATOM     19  C   UNL     1      34.525 -18.537 -23.554  0.00  0.00    +0.000 C 
ATOM     20  C   UNL     1      35.221 -17.371 -23.233  0.00  0.00    +0.000 C 
ENDBRANCH  12  15
ENDBRANCH   6   9
ENDBRANCH   3   6
BRANCH   5  21
ATOM     21  N   UNL     1      36.208 -23.076 -13.082  0.00  0.00    -0.147 NA
BRANCH  21  29
ATOM     22  O   UNL     1      39.348 -26.703 -13.534  0.00  0.00    -0.350 OA
ATOM     23  N   UNL     1      37.273 -25.066 -12.605  0.00  0.00    -0.277 N 
ATOM     24  N   UNL     1      35.228 -24.787 -11.682  0.00  0.00    -0.373 N 
ATOM     25  C   UNL     1      37.139 -26.520 -12.548  0.00  0.00    +0.125 C 
ATOM     26  C   UNL     1      38.648 -24.573 -12.609  0.00  0.00    +0.125 C 
ATOM     27  C   UNL     1      37.993 -27.147 -13.643  0.00  0.00    +0.164 C 
ATOM     28  C   UNL     1      39.436 -25.286 -13.701  0.00  0.00    +0.164 C 
ATOM     29  C   UNL     1      36.212 -24.239 -12.480  0.00  0.00    +0.182 C 
ATOM     30  H   UNL     1      35.355 -25.680 -11.286  0.00  0.00    +0.158 HD
ATOM     31  H   UNL     1      34.398 -24.286 -11.509  0.00  0.00    +0.158 HD
ENDBRANCH  21  29
ENDBRANCH   5  21
TORSDOF 5
ENDMDL
MODEL 2
REMARK VINA RESULT:     -12.4      1.110      1.505
REMARK  Name = 9800765
REMARK  5 active torsions:
REMARK  status: ('A' for Active; 'I' for Inactive)
REMARK    1  A    between atoms: C_3  and  C_17
REMARK    2  A    between atoms: C_5  and  N_8
REMARK    3  A    between atoms: N_8  and  C_14
REMARK    4  A    between atoms: C_17  and  C_20
REMARK    5  A    between atoms: C_23  and  C_26
REMARK                            x       y       z     vdW  Elec       q    Type
REMARK                         _______ _______ _______ _____ _____    ______ ____
ROOT
ATOM      1  O   UNL     1      34.987 -23.033 -13.956  0.00  0.00    -0.337 OA
ATOM      2  N   UNL     1      33.817 -23.142 -14.696  0.00  0.00    -0.079 NA
ATOM      3  C   UNL     1      34.209 -23.097 -15.973  0.00  0.00    +0.106 C 
ATOM      4  C   UNL     1      35.603 -22.961 -16.097  0.00  0.00    +0.076 C 
ATOM      5  C   UNL     1      36.035 -22.927 -14.805  0.00  0.00    +0.252 C 
ENDROOT
BRANCH   3   6
ATOM      6  C   UNL     1      33.212 -23.189 -17.051  0.00  0.00    +0.066 C 
ATOM      7  C   UNL     1      31.748 -23.077 -16.559  0.00  0.00    +0.011 C 
BRANCH   6   9
ATOM      8  F   UNL     1      36.587 -21.004 -19.783  0.00  0.00    -0.204 F 
ATOM      9  C   UNL     1      33.608 -22.175 -18.129  0.00  0.00    -0.015 C 
ATOM     10  C   UNL     1      34.935 -22.056 -18.463  0.00  0.00    +0.026 C 
ATOM     11  C   UNL     1      32.619 -21.422 -18.718  0.00  0.00    -0.004 C 
ATOM     12  C   UNL     1      34.317 -20.354 -20.062  0.00  0.00    +0.027 C 
ATOM     13  C   UNL     1      35.296 -21.132 -19.445  0.00  0.00    +0.140 C 
ATOM     14  C   UNL     1      32.979 -20.499 -19.698  0.00  0.00    +0.002 C 
BRANCH  12  15
ATOM     15  C   UNL     1      34.686 -19.395 -21.081  0.00  0.00    +0.002 C 
ATOM     16  C   UNL     1      34.260 -19.580 -22.397  0.00  0.00    +0.000 C 
ATOM     17  C   UNL     1      35.464 -18.287 -20.749  0.00  0.00    +0.000 C 
ATOM     18  C   UNL     1      34.613 -18.656 -23.380  0.00  0.00    +0.000 C 
ATOM     19  C   UNL     1      35.818 -17.363 -21.733  0.00  0.00    +0.000 C 
ATOM     20  C   UNL     1      35.393 -17.548 -23.049  0.00  0.00    +0.000 C 
ENDBRANCH  12  15
ENDBRANCH   6   9
ENDBRANCH   3   6
BRANCH   5  21
ATOM     21  N   UNL     1      37.303 -22.807 -14.322  0.00  0.00    -0.147 NA
BRANCH  21  29
ATOM     22  O   UNL     1      38.516 -27.340 -13.230  0.00  0.00    -0.350 OA
ATOM     23  N   UNL     1      38.049 -24.584 -13.054  0.00  0.00    -0.277 N 
ATOM     24  N   UNL     1      37.381 -22.755 -11.906  0.00  0.00    -0.373 N 
ATOM     25  C   UNL     1      37.768 -25.449 -11.910  0.00  0.00    +0.125 C 
ATOM     26  C   UNL     1      39.051 -25.098 -13.984  0.00  0.00    +0.125 C 
ATOM     27  C   UNL     1      37.454 -26.855 -12.406  0.00  0.00    +0.164 C 
ATOM     28  C   UNL     1      38.681 -26.519 -14.389  0.00  0.00    +0.164 C 
ATOM     29  C   UNL     1      37.555 -23.329 -13.148  0.00  0.00    +0.182 C 
ATOM     30  H   UNL     1      37.610 -23.260 -11.092  0.00  0.00    +0.158 HD
ATOM     31  H   UNL     1      37.026 -21.839 -11.832  0.00  0.00    +0.158 HD
ENDBRANCH  21  29
ENDBRANCH   5  21
TORSDOF 5
ENDMDL
MODEL 3
REMARK VINA RESULT:     -12.2      3.826      7.033
REMARK  Name = 9800765
REMARK  5 active torsions:
REMARK  status: ('A' for Active; 'I' for Inactive)
REMARK    1  A    between atoms: C_3  and  C_17
REMARK    2  A    between atoms: C_5  and  N_8
REMARK    3  A    between atoms: N_8  and  C_14
REMARK    4  A    between atoms: C_17  and  C_20
REMARK    5  A    between atoms: C_23  and  C_26
REMARK                            x       y       z     vdW  Elec       q    Type
REMARK                         _______ _______ _______ _____ _____    ______ ____
ROOT
ATOM      1  O   UNL     1      35.949 -19.388 -19.974  0.00  0.00    -0.337 OA
ATOM      2  N   UNL     1      36.280 -18.667 -21.115  0.00  0.00    -0.079 NA
ATOM      3  C   UNL     1      35.295 -18.919 -21.981  0.00  0.00    +0.106 C 
ATOM      4  C   UNL     1      34.324 -19.784 -21.448  0.00  0.00    +0.076 C 
ATOM      5  C   UNL     1      34.786 -20.043 -20.191  0.00  0.00    +0.252 C 
ENDROOT
BRANCH   3   6
ATOM      6  C   UNL     1      35.319 -18.307 -23.319  0.00  0.00    +0.066 C 
ATOM      7  C   UNL     1      34.591 -19.141 -24.401  0.00  0.00    +0.011 C 
BRANCH   6   9
ATOM      8  F   UNL     1      34.681 -14.288 -20.660  0.00  0.00    -0.204 F 
ATOM      9  C   UNL     1      34.818 -16.866 -23.174  0.00  0.00    -0.015 C 
ATOM     10  C   UNL     1      34.983 -16.233 -21.966  0.00  0.00    +0.026 C 
ATOM     11  C   UNL     1      34.223 -16.265 -24.258  0.00  0.00    -0.004 C 
ATOM     12  C   UNL     1      33.919 -14.282 -22.913  0.00  0.00    +0.027 C 
ATOM     13  C   UNL     1      34.527 -14.921 -21.833  0.00  0.00    +0.140 C 
ATOM     14  C   UNL     1      33.766 -14.954 -24.125  0.00  0.00    +0.002 C 
BRANCH  12  15
ATOM     15  C   UNL     1      33.445 -12.921 -22.781  0.00  0.00    +0.002 C 
ATOM     16  C   UNL     1      32.458 -12.615 -21.843  0.00  0.00    +0.000 C 
ATOM     17  C   UNL     1      33.975 -11.916 -23.589  0.00  0.00    +0.000 C 
ATOM     18  C   UNL     1      32.002 -11.304 -21.715  0.00  0.00    +0.000 C 
ATOM     19  C   UNL     1      33.518 -10.604 -23.460  0.00  0.00    +0.000 C 
ATOM     20  C   UNL     1      32.531 -10.297 -22.523  0.00  0.00    +0.000 C 
ENDBRANCH  12  15
ENDBRANCH   6   9
ENDBRANCH   3   6
BRANCH   5  21
ATOM     21  N   UNL     1      34.244 -20.826 -19.217  0.00  0.00    -0.147 NA
BRANCH  21  29
ATOM     22  O   UNL     1      33.287 -23.599 -15.394  0.00  0.00    -0.350 OA
ATOM     23  N   UNL     1      34.575 -22.426 -17.587  0.00  0.00    -0.277 N 
ATOM     24  N   UNL     1      36.435 -21.654 -18.617  0.00  0.00    -0.373 N 
ATOM     25  C   UNL     1      35.342 -22.792 -16.399  0.00  0.00    +0.125 C 
ATOM     26  C   UNL     1      33.341 -23.181 -17.783  0.00  0.00    +0.125 C 
ATOM     27  C   UNL     1      34.427 -22.763 -15.181  0.00  0.00    +0.164 C 
ATOM     28  C   UNL     1      32.514 -23.135 -16.504  0.00  0.00    +0.164 C 
ATOM     29  C   UNL     1      35.060 -21.582 -18.526  0.00  0.00    +0.182 C 
ATOM     30  H   UNL     1      36.936 -22.269 -18.033  0.00  0.00    +0.158 HD
ATOM     31  H   UNL     1      36.917 -21.089 -19.264  0.00  0.00    +0.158 HD
ENDBRANCH  21  29
ENDBRANCH   5  21
TORSDOF 5
ENDMDL
MODEL 4
REMARK VINA RESULT:     -11.6      1.336      1.923
REMARK  Name = 9800765
REMARK  5 active torsions:
REMARK  status: ('A' for Active; 'I' for Inactive)
REMARK    1  A    between atoms: C_3  and  C_17
REMARK    2  A    between atoms: C_5  and  N_8
REMARK    3  A    between atoms: N_8  and  C_14
REMARK    4  A    between atoms: C_17  and  C_20
REMARK    5  A    between atoms: C_23  and  C_26
REMARK                            x       y       z     vdW  Elec       q    Type
REMARK                         _______ _______ _______ _____ _____    ______ ____
ROOT
ATOM      1  O   UNL     1      36.156 -22.280 -14.344  0.00  0.00    -0.337 OA
ATOM      2  N   UNL     1      35.075 -22.039 -15.183  0.00  0.00    -0.079 NA
ATOM      3  C   UNL     1      34.837 -23.208 -15.785  0.00  0.00    +0.106 C 
ATOM      4  C   UNL     1      35.727 -24.213 -15.369  0.00  0.00    +0.076 C 
ATOM      5  C   UNL     1      36.527 -23.574 -14.468  0.00  0.00    +0.252 C 
ENDROOT
BRANCH   3   6
ATOM      6  C   UNL     1      33.739 -23.322 -16.758  0.00  0.00    +0.066 C 
ATOM      7  C   UNL     1      32.330 -23.218 -16.125  0.00  0.00    +0.011 C 
BRANCH   6   9
ATOM      8  F   UNL     1      32.166 -20.176 -20.113  0.00  0.00    -0.204 F 
ATOM      9  C   UNL     1      34.015 -22.317 -17.881  0.00  0.00    -0.015 C 
ATOM     10  C   UNL     1      32.947 -21.701 -18.488  0.00  0.00    +0.026 C 
ATOM     11  C   UNL     1      35.321 -22.072 -18.237  0.00  0.00    -0.004 C 
ATOM     12  C   UNL     1      34.510 -20.514 -19.895  0.00  0.00    +0.027 C 
ATOM     13  C   UNL     1      33.198 -20.786 -19.510  0.00  0.00    +0.140 C 
ATOM     14  C   UNL     1      35.571 -21.157 -19.259  0.00  0.00    +0.002 C 
BRANCH  12  15
ATOM     15  C   UNL     1      34.776 -19.564 -20.954  0.00  0.00    +0.002 C 
ATOM     16  C   UNL     1      34.228 -19.763 -22.222  0.00  0.00    +0.000 C 
ATOM     17  C   UNL     1      35.578 -18.450 -20.708  0.00  0.00    +0.000 C 
ATOM     18  C   UNL     1      34.482 -18.848 -23.243  0.00  0.00    +0.000 C 
ATOM     19  C   UNL     1      35.832 -17.535 -21.729  0.00  0.00    +0.000 C 
ATOM     20  C   UNL     1      35.285 -17.733 -22.997  0.00  0.00    +0.000 C 
ENDBRANCH  12  15
ENDBRANCH   6   9
ENDBRANCH   3   6
BRANCH   5  21
ATOM     21  N   UNL     1      37.573 -24.064 -13.744  0.00  0.00    -0.147 NA
BRANCH  21  29
ATOM     22  O   UNL     1      39.921 -28.201 -14.512  0.00  0.00    -0.350 OA
ATOM     23  N   UNL     1      38.282 -26.230 -13.384  0.00  0.00    -0.277 N 
ATOM     24  N   UNL     1      36.414 -25.597 -12.277  0.00  0.00    -0.373 N 
ATOM     25  C   UNL     1      37.882 -27.634 -13.329  0.00  0.00    +0.125 C 
ATOM     26  C   UNL     1      39.719 -26.002 -13.508  0.00  0.00    +0.125 C 
ATOM     27  C   UNL     1      38.503 -28.381 -14.502  0.00  0.00    +0.164 C 
ATOM     28  C   UNL     1      40.260 -26.821 -14.674  0.00  0.00    +0.164 C 
ATOM     29  C   UNL     1      37.410 -25.222 -13.156  0.00  0.00    +0.182 C 
ATOM     30  H   UNL     1      36.405 -26.508 -11.903  0.00  0.00    +0.158 HD
ATOM     31  H   UNL     1      35.712 -24.955 -12.025  0.00  0.00    +0.158 HD
ENDBRANCH  21  29
ENDBRANCH   5  21
TORSDOF 5
ENDMDL
MODEL 5
REMARK VINA RESULT:     -11.3     11.353     15.466
REMARK  Name = 9800765
REMARK  5 active torsions:
REMARK  status: ('A' for Active; 'I' for Inactive)
REMARK    1  A    between atoms: C_3  and  C_17
REMARK    2  A    between atoms: C_5  and  N_8
REMARK    3  A    between atoms: N_8  and  C_14
REMARK    4  A    between atoms: C_17  and  C_20
REMARK    5  A    between atoms: C_23  and  C_26
REMARK                            x       y       z     vdW  Elec       q    Type
REMARK                         _______ _______ _______ _____ _____    ______ ____
ROOT
ATOM      1  O   UNL     1      31.856 -10.987 -19.938  0.00  0.00    -0.337 OA
ATOM      2  N   UNL     1      31.897  -9.700 -19.416  0.00  0.00    -0.079 NA
ATOM      3  C   UNL     1      31.890  -8.895 -20.482  0.00  0.00    +0.106 C 
ATOM      4  C   UNL     1      31.846  -9.610 -21.691  0.00  0.00    +0.076 C 
ATOM      5  C   UNL     1      31.826 -10.912 -21.288  0.00  0.00    +0.252 C 
ENDROOT
BRANCH   3   6
ATOM      6  C   UNL     1      31.925  -7.435 -20.299  0.00  0.00    +0.066 C 
ATOM      7  C   UNL     1      32.683  -6.983 -19.027  0.00  0.00    +0.011 C 
BRANCH   6   9
ATOM      8  F   UNL     1      31.168  -4.926 -24.393  0.00  0.00    -0.204 F 
ATOM      9  C   UNL     1      32.441  -6.821 -21.605  0.00  0.00    -0.015 C 
ATOM     10  C   UNL     1      31.553  -6.147 -22.408  0.00  0.00    +0.026 C 
ATOM     11  C   UNL     1      33.771  -6.971 -21.922  0.00  0.00    -0.004 C 
ATOM     12  C   UNL     1      33.365  -5.721 -23.948  0.00  0.00    +0.027 C 
ATOM     13  C   UNL     1      32.022  -5.588 -23.597  0.00  0.00    +0.140 C 
ATOM     14  C   UNL     1      34.239  -6.413 -23.111  0.00  0.00    +0.002 C 
BRANCH  12  15
ATOM     15  C   UNL     1      33.856  -5.142 -25.180  0.00  0.00    +0.002 C 
ATOM     16  C   UNL     1      35.229  -4.979 -25.374  0.00  0.00    +0.000 C 
ATOM     17  C   UNL     1      32.960  -4.749 -26.173  0.00  0.00    +0.000 C 
ATOM     18  C   UNL     1      35.703  -4.422 -26.561  0.00  0.00    +0.000 C 
ATOM     19  C   UNL     1      33.436  -4.192 -27.361  0.00  0.00    +0.000 C 
ATOM     20  C   UNL     1      34.807  -4.028 -27.555  0.00  0.00    +0.000 C 
ENDBRANCH  12  15
ENDBRANCH   6   9
ENDBRANCH   3   6
BRANCH   5  21
ATOM     21  N   UNL     1      31.783 -12.048 -22.041  0.00  0.00    -0.147 NA
BRANCH  21  29
ATOM     22  O   UNL     1      34.058 -14.578 -25.452  0.00  0.00    -0.350 OA
ATOM     23  N   UNL     1      33.398 -13.382 -23.007  0.00  0.00    -0.277 N 
ATOM     24  N   UNL     1      33.311 -13.403 -20.747  0.00  0.00    -0.373 N 
ATOM     25  C   UNL     1      34.005 -14.711 -23.031  0.00  0.00    +0.125 C 
ATOM     26  C   UNL     1      33.685 -12.551 -24.173  0.00  0.00    +0.125 C 
ATOM     27  C   UNL     1      33.664 -15.396 -24.349  0.00  0.00    +0.164 C 
ATOM     28  C   UNL     1      33.358 -13.331 -25.440  0.00  0.00    +0.164 C 
ATOM     29  C   UNL     1      32.773 -12.895 -21.912  0.00  0.00    +0.182 C 
ATOM     30  H   UNL     1      34.060 -14.041 -20.788  0.00  0.00    +0.158 HD
ATOM     31  H   UNL     1      32.946 -13.130 -19.875  0.00  0.00    +0.158 HD
ENDBRANCH  21  29
ENDBRANCH   5  21
TORSDOF 5
ENDMDL
MODEL 6
REMARK VINA RESULT:     -11.3      1.610      2.263
REMARK  Name = 9800765
REMARK  5 active torsions:
REMARK  status: ('A' for Active; 'I' for Inactive)
REMARK    1  A    between atoms: C_3  and  C_17
REMARK    2  A    between atoms: C_5  and  N_8
REMARK    3  A    between atoms: N_8  and  C_14
REMARK    4  A    between atoms: C_17  and  C_20
REMARK    5  A    between atoms: C_23  and  C_26
REMARK                            x       y       z     vdW  Elec       q    Type
REMARK                         _______ _______ _______ _____ _____    ______ ____
ROOT
ATOM      1  O   UNL     1      36.059 -23.397 -14.736  0.00  0.00    -0.337 OA
ATOM      2  N   UNL     1      35.064 -22.730 -15.441  0.00  0.00    -0.079 NA
ATOM      3  C   UNL     1      34.271 -23.695 -15.915  0.00  0.00    +0.106 C 
ATOM      4  C   UNL     1      34.711 -24.977 -15.544  0.00  0.00    +0.076 C 
ATOM      5  C   UNL     1      35.831 -24.728 -14.809  0.00  0.00    +0.252 C 
ENDROOT
BRANCH   3   6
ATOM      6  C   UNL     1      33.092 -23.345 -16.723  0.00  0.00    +0.066 C 
ATOM      7  C   UNL     1      31.892 -22.834 -15.888  0.00  0.00    +0.011 C 
BRANCH   6   9
ATOM      8  F   UNL     1      36.627 -21.428 -19.454  0.00  0.00    -0.204 F 
ATOM      9  C   UNL     1      33.559 -22.391 -17.827  0.00  0.00    -0.015 C 
ATOM     10  C   UNL     1      34.898 -22.349 -18.135  0.00  0.00    +0.026 C 
ATOM     11  C   UNL     1      32.621 -21.612 -18.464  0.00  0.00    -0.004 C 
ATOM     12  C   UNL     1      34.398 -20.678 -19.806  0.00  0.00    +0.027 C 
ATOM     13  C   UNL     1      35.324 -21.481 -19.140  0.00  0.00    +0.140 C 
ATOM     14  C   UNL     1      33.047 -20.744 -19.468  0.00  0.00    +0.002 C 
BRANCH  12  15
ATOM     15  C   UNL     1      34.835 -19.776 -20.850  0.00  0.00    +0.002 C 
ATOM     16  C   UNL     1      36.002 -19.030 -20.683  0.00  0.00    +0.000 C 
ATOM     17  C   UNL     1      34.090 -19.653 -22.023  0.00  0.00    +0.000 C 
ATOM     18  C   UNL     1      36.424 -18.162 -21.689  0.00  0.00    +0.000 C 
ATOM     19  C   UNL     1      34.513 -18.784 -23.029  0.00  0.00    +0.000 C 
ATOM     20  C   UNL     1      35.680 -18.037 -22.862  0.00  0.00    +0.000 C 
ENDBRANCH  12  15
ENDBRANCH   6   9
ENDBRANCH   3   6
BRANCH   5  21
ATOM     21  N   UNL     1      36.673 -25.605 -14.194  0.00  0.00    -0.147 NA
BRANCH  21  29
ATOM     22  O   UNL     1      36.762 -23.614  -9.807  0.00  0.00    -0.350 OA
ATOM     23  N   UNL     1      37.556 -24.746 -12.243  0.00  0.00    -0.277 N 
ATOM     24  N   UNL     1      38.971 -24.879 -14.001  0.00  0.00    -0.373 N 
ATOM     25  C   UNL     1      38.338 -23.664 -11.650  0.00  0.00    +0.125 C 
ATOM     26  C   UNL     1      36.768 -25.529 -11.295  0.00  0.00    +0.125 C 
ATOM     27  C   UNL     1      37.429 -22.805 -10.778  0.00  0.00    +0.164 C 
ATOM     28  C   UNL     1      35.929 -24.589 -10.439  0.00  0.00    +0.164 C 
ATOM     29  C   UNL     1      37.691 -25.108 -13.538  0.00  0.00    +0.182 C 
ATOM     30  H   UNL     1      39.651 -24.495 -13.401  0.00  0.00    +0.158 HD
ATOM     31  H   UNL     1      39.205 -25.099 -14.932  0.00  0.00    +0.158 HD
ENDBRANCH  21  29
ENDBRANCH   5  21
TORSDOF 5
ENDMDL
MODEL 7
REMARK VINA RESULT:     -11.2      3.997      9.108
REMARK  Name = 9800765
REMARK  5 active torsions:
REMARK  status: ('A' for Active; 'I' for Inactive)
REMARK    1  A    between atoms: C_3  and  C_17
REMARK    2  A    between atoms: C_5  and  N_8
REMARK    3  A    between atoms: N_8  and  C_14
REMARK    4  A    between atoms: C_17  and  C_20
REMARK    5  A    between atoms: C_23  and  C_26
REMARK                            x       y       z     vdW  Elec       q    Type
REMARK                         _______ _______ _______ _____ _____    ______ ____
ROOT
ATOM      1  O   UNL     1      37.183 -19.657 -19.119  0.00  0.00    -0.337 OA
ATOM      2  N   UNL     1      37.372 -20.326 -17.917  0.00  0.00    -0.079 NA
ATOM      3  C   UNL     1      36.572 -21.394 -17.986  0.00  0.00    +0.106 C 
ATOM      4  C   UNL     1      35.862 -21.450 -19.198  0.00  0.00    +0.076 C 
ATOM      5  C   UNL     1      36.285 -20.339 -19.865  0.00  0.00    +0.252 C 
ENDROOT
BRANCH   3   6
ATOM      6  C   UNL     1      36.517 -22.345 -16.864  0.00  0.00    +0.066 C 
ATOM      7  C   UNL     1      37.359 -21.913 -15.638  0.00  0.00    +0.011 C 
BRANCH   6   9
ATOM      8  F   UNL     1      32.948 -23.400 -13.737  0.00  0.00    -0.204 F 
ATOM      9  C   UNL     1      35.039 -22.616 -16.565  0.00  0.00    -0.015 C 
ATOM     10  C   UNL     1      34.670 -22.887 -15.270  0.00  0.00    +0.026 C 
ATOM     11  C   UNL     1      34.140 -22.578 -17.606  0.00  0.00    -0.004 C 
ATOM     12  C   UNL     1      32.388 -23.103 -16.029  0.00  0.00    +0.027 C 
ATOM     13  C   UNL     1      33.325 -23.134 -14.997  0.00  0.00    +0.140 C 
ATOM     14  C   UNL     1      32.795 -22.825 -17.333  0.00  0.00    +0.002 C 
BRANCH  12  15
ATOM     15  C   UNL     1      30.990 -23.357 -15.751  0.00  0.00    +0.002 C 
ATOM     16  C   UNL     1      30.034 -22.385 -16.048  0.00  0.00    +0.000 C 
ATOM     17  C   UNL     1      30.600 -24.572 -15.189  0.00  0.00    +0.000 C 
ATOM     18  C   UNL     1      28.687 -22.630 -15.781  0.00  0.00    +0.000 C 
ATOM     19  C   UNL     1      29.252 -24.816 -14.923  0.00  0.00    +0.000 C 
ATOM     20  C   UNL     1      28.295 -23.845 -15.218  0.00  0.00    +0.000 C 
ENDBRANCH  12  15
ENDBRANCH   6   9
ENDBRANCH   3   6
BRANCH   5  21
ATOM     21  N   UNL     1      35.927 -19.884 -21.099  0.00  0.00    -0.147 NA
BRANCH  21  29
ATOM     22  O   UNL     1      33.921 -17.642 -24.862  0.00  0.00    -0.350 OA
ATOM     23  N   UNL     1      34.807 -18.245 -22.275  0.00  0.00    -0.277 N 
ATOM     24  N   UNL     1      35.665 -17.626 -20.276  0.00  0.00    -0.373 N 
ATOM     25  C   UNL     1      34.853 -16.869 -22.761  0.00  0.00    +0.125 C 
ATOM     26  C   UNL     1      33.814 -19.096 -22.924  0.00  0.00    +0.125 C 
ATOM     27  C   UNL     1      34.977 -16.875 -24.280  0.00  0.00    +0.164 C 
ATOM     28  C   UNL     1      33.984 -19.005 -24.436  0.00  0.00    +0.164 C 
ATOM     29  C   UNL     1      35.501 -18.649 -21.187  0.00  0.00    +0.182 C 
ATOM     30  H   UNL     1      35.293 -16.734 -20.465  0.00  0.00    +0.158 HD
ATOM     31  H   UNL     1      36.154 -17.787 -19.437  0.00  0.00    +0.158 HD
ENDBRANCH  21  29
ENDBRANCH   5  21
TORSDOF 5
ENDMDL
MODEL 8
REMARK VINA RESULT:     -11.0     10.583     14.453
REMARK  Name = 9800765
REMARK  5 active torsions:
REMARK  status: ('A' for Active; 'I' for Inactive)
REMARK    1  A    between atoms: C_3  and  C_17
REMARK    2  A    between atoms: C_5  and  N_8
REMARK    3  A    between atoms: N_8  and  C_14
REMARK    4  A    between atoms: C_17  and  C_20
REMARK    5  A    between atoms: C_23  and  C_26
REMARK                            x       y       z     vdW  Elec       q    Type
REMARK                         _______ _______ _______ _____ _____    ______ ____
ROOT
ATOM      1  O   UNL     1      33.451 -11.634 -23.262  0.00  0.00    -0.337 OA
ATOM      2  N   UNL     1      33.070 -10.355 -22.876  0.00  0.00    -0.079 NA
ATOM      3  C   UNL     1      32.229 -10.538 -21.854  0.00  0.00    +0.106 C 
ATOM      4  C   UNL     1      32.044 -11.898 -21.553  0.00  0.00    +0.076 C 
ATOM      5  C   UNL     1      32.832 -12.535 -22.466  0.00  0.00    +0.252 C 
ENDROOT
BRANCH   3   6
ATOM      6  C   UNL     1      31.621  -9.376 -21.186  0.00  0.00    +0.066 C 
ATOM      7  C   UNL     1      31.941  -9.287 -19.674  0.00  0.00    +0.011 C 
BRANCH   6   9
ATOM      8  F   UNL     1      30.809  -6.309 -24.869  0.00  0.00    -0.204 F 
ATOM      9  C   UNL     1      31.998  -8.132 -21.997  0.00  0.00    -0.015 C 
ATOM     10  C   UNL     1      31.218  -7.790 -23.075  0.00  0.00    +0.026 C 
ATOM     11  C   UNL     1      33.103  -7.408 -21.614  0.00  0.00    -0.004 C 
ATOM     12  C   UNL     1      32.675  -5.900 -23.452  0.00  0.00    +0.027 C 
ATOM     13  C   UNL     1      31.561  -6.657 -23.813  0.00  0.00    +0.140 C 
ATOM     14  C   UNL     1      33.446  -6.276 -22.352  0.00  0.00    +0.002 C 
BRANCH  12  15
ATOM     15  C   UNL     1      33.034  -4.723 -24.213  0.00  0.00    +0.002 C 
ATOM     16  C   UNL     1      34.067  -4.788 -25.150  0.00  0.00    +0.000 C 
ATOM     17  C   UNL     1      32.348  -3.526 -24.013  0.00  0.00    +0.000 C 
ATOM     18  C   UNL     1      34.413  -3.655 -25.885  0.00  0.00    +0.000 C 
ATOM     19  C   UNL     1      32.695  -2.393 -24.749  0.00  0.00    +0.000 C 
ATOM     20  C   UNL     1      33.728  -2.456 -25.685  0.00  0.00    +0.000 C 
ENDBRANCH  12  15
ENDBRANCH   6   9
ENDBRANCH   3   6
BRANCH   5  21
ATOM     21  N   UNL     1      33.042 -13.869 -22.642  0.00  0.00    -0.147 NA
BRANCH  21  29
ATOM     22  O   UNL     1      35.305 -18.019 -23.580  0.00  0.00    -0.350 OA
ATOM     23  N   UNL     1      34.672 -15.499 -22.534  0.00  0.00    -0.277 N 
ATOM     24  N   UNL     1      34.645 -14.005 -20.837  0.00  0.00    -0.373 N 
ATOM     25  C   UNL     1      35.319 -16.500 -21.689  0.00  0.00    +0.125 C 
ATOM     26  C   UNL     1      34.903 -15.659 -23.967  0.00  0.00    +0.125 C 
ATOM     27  C   UNL     1      34.965 -17.893 -22.197  0.00  0.00    +0.164 C 
ATOM     28  C   UNL     1      34.567 -17.088 -24.375  0.00  0.00    +0.164 C 
ATOM     29  C   UNL     1      34.061 -14.408 -22.020  0.00  0.00    +0.182 C 
ATOM     30  H   UNL     1      35.412 -14.503 -20.471  0.00  0.00    +0.158 HD
ATOM     31  H   UNL     1      34.294 -13.220 -20.357  0.00  0.00    +0.158 HD
ENDBRANCH  21  29
ENDBRANCH   5  21
TORSDOF 5
ENDMDL
MODEL 9
REMARK VINA RESULT:     -10.9      1.659      2.491
REMARK  Name = 9800765
REMARK  5 active torsions:
REMARK  status: ('A' for Active; 'I' for Inactive)
REMARK    1  A    between atoms: C_3  and  C_17
REMARK    2  A    between atoms: C_5  and  N_8
REMARK    3  A    between atoms: N_8  and  C_14
REMARK    4  A    between atoms: C_17  and  C_20
REMARK    5  A    between atoms: C_23  and  C_26
REMARK                            x       y       z     vdW  Elec       q    Type
REMARK                         _______ _______ _______ _____ _____    ______ ____
ROOT
ATOM      1  O   UNL     1      37.204 -21.675 -15.789  0.00  0.00    -0.337 OA
ATOM      2  N   UNL     1      36.217 -21.545 -16.758  0.00  0.00    -0.079 NA
ATOM      3  C   UNL     1      35.436 -22.618 -16.602  0.00  0.00    +0.106 C 
ATOM      4  C   UNL     1      35.878 -23.452 -15.560  0.00  0.00    +0.076 C 
ATOM      5  C   UNL     1      36.985 -22.811 -15.089  0.00  0.00    +0.252 C 
ENDROOT
BRANCH   3   6
ATOM      6  C   UNL     1      34.268 -22.809 -17.476  0.00  0.00    +0.066 C 
ATOM      7  C   UNL     1      32.915 -22.798 -16.723  0.00  0.00    +0.011 C 
BRANCH   6   9
ATOM      8  F   UNL     1      32.198 -19.834 -20.716  0.00  0.00    -0.204 F 
ATOM      9  C   UNL     1      34.377 -21.791 -18.616  0.00  0.00    -0.015 C 
ATOM     10  C   UNL     1      33.220 -21.275 -19.148  0.00  0.00    +0.026 C 
ATOM     11  C   UNL     1      35.628 -21.434 -19.061  0.00  0.00    -0.004 C 
ATOM     12  C   UNL     1      34.572 -19.964 -20.660  0.00  0.00    +0.027 C 
ATOM     13  C   UNL     1      33.318 -20.347 -20.185  0.00  0.00    +0.140 C 
ATOM     14  C   UNL     1      35.727 -20.507 -20.098  0.00  0.00    +0.002 C 
BRANCH  12  15
ATOM     15  C   UNL     1      34.680 -19.001 -21.735  0.00  0.00    +0.002 C 
ATOM     16  C   UNL     1      34.154 -19.300 -22.993  0.00  0.00    +0.000 C 
ATOM     17  C   UNL     1      35.308 -17.776 -21.515  0.00  0.00    +0.000 C 
ATOM     18  C   UNL     1      34.257 -18.372 -24.029  0.00  0.00    +0.000 C 
ATOM     19  C   UNL     1      35.411 -16.849 -22.552  0.00  0.00    +0.000 C 
ATOM     20  C   UNL     1      34.886 -17.146 -23.810  0.00  0.00    +0.000 C 
ENDBRANCH  12  15
ENDBRANCH   6   9
ENDBRANCH   3   6
BRANCH   5  21
ATOM     21  N   UNL     1      37.822 -23.168 -14.074  0.00  0.00    -0.147 NA
BRANCH  21  29
ATOM     22  O   UNL     1      36.022 -25.368 -10.183  0.00  0.00    -0.350 OA
ATOM     23  N   UNL     1      37.159 -24.899 -12.700  0.00  0.00    -0.277 N 
ATOM     24  N   UNL     1      38.593 -25.442 -14.361  0.00  0.00    -0.373 N 
ATOM     25  C   UNL     1      37.602 -26.036 -11.897  0.00  0.00    +0.125 C 
ATOM     26  C   UNL     1      35.807 -24.428 -12.409  0.00  0.00    +0.125 C 
ATOM     27  C   UNL     1      37.385 -25.726 -10.421  0.00  0.00    +0.164 C 
ATOM     28  C   UNL     1      35.669 -24.189 -10.911  0.00  0.00    +0.164 C 
ATOM     29  C   UNL     1      37.872 -24.436 -13.751  0.00  0.00    +0.182 C 
ATOM     30  H   UNL     1      38.545 -26.363 -14.016  0.00  0.00    +0.158 HD
ATOM     31  H   UNL     1      39.158 -25.239 -15.142  0.00  0.00    +0.158 HD
ENDBRANCH  21  29
ENDBRANCH   5  21
TORSDOF 5
ENDMDL
