MODEL 1
REMARK VINA RESULT:     -11.9      0.000      0.000
REMARK  Name = 24875320
REMARK  6 active torsions:
REMARK  status: ('A' for Active; 'I' for Inactive)
REMARK    1  A    between atoms: C_1  and  N_22
REMARK    2  A    between atoms: C_3  and  C_10
REMARK    3  A    between atoms: N_9  and  C_12
REMARK    4  A    between atoms: C_14  and  C_21
REMARK    5  A    between atoms: N_22  and  C_25
REMARK    6  A    between atoms: C_28  and  C_32
REMARK                            x       y       z     vdW  Elec       q    Type
REMARK                         _______ _______ _______ _____ _____    ______ ____
ROOT
ATOM      1  C   UNL     1      35.300 -17.197 -22.788  0.00  0.00    +0.044 C 
ATOM      2  C   UNL     1      34.574 -17.641 -23.893  0.00  0.00    -0.008 C 
ATOM      3  C   UNL     1      34.399 -14.975 -23.090  0.00  0.00    +0.055 C 
ATOM      4  C   UNL     1      35.212 -15.863 -22.387  0.00  0.00    +0.019 C 
ATOM      5  C   UNL     1      33.761 -16.753 -24.596  0.00  0.00    -0.003 C 
ATOM      6  C   UNL     1      33.673 -15.420 -24.196  0.00  0.00    +0.004 C 
ATOM      7  C   UNL     1      34.648 -19.064 -24.344  0.00  0.00    +0.032 C 
ENDROOT
BRANCH   3  10
ATOM      8  O   UNL     1      34.346 -13.315 -21.461  0.00  0.00    -0.270 OA
ATOM      9  N   UNL     1      34.161 -12.646 -23.703  0.00  0.00    -0.280 N 
ATOM     10  C   UNL     1      34.308 -13.585 -22.673  0.00  0.00    +0.250 C 
ATOM     11  H   UNL     1      34.149 -13.011 -24.617  0.00  0.00    +0.155 HD
BRANCH   9  12
ATOM     12  C   UNL     1      34.026 -11.239 -23.600  0.00  0.00    +0.050 C 
ATOM     13  C   UNL     1      32.997 -10.690 -22.834  0.00  0.00    +0.019 C 
ATOM     14  C   UNL     1      32.864  -9.306 -22.733  0.00  0.00    +0.073 C 
ATOM     15  C   UNL     1      34.922 -10.402 -24.265  0.00  0.00    +0.015 C 
ATOM     16  C   UNL     1      33.761  -8.469 -23.399  0.00  0.00    +0.004 C 
ATOM     17  C   UNL     1      34.789  -9.018 -24.165  0.00  0.00    +0.001 C 
BRANCH  14  21
ATOM     18  F   UNL     1      32.186  -7.764 -21.035  0.00  0.00    -0.166 F 
ATOM     19  F   UNL     1      30.793  -8.113 -22.660  0.00  0.00    -0.166 F 
ATOM     20  F   UNL     1      31.116  -9.653 -21.159  0.00  0.00    -0.166 F 
ATOM     21  C   UNL     1      31.765  -8.719 -21.915  0.00  0.00    +0.419 C 
ENDBRANCH  14  21
ENDBRANCH   9  12
ENDBRANCH   3  10
BRANCH   1  22
ATOM     22  N   UNL     1      36.128 -18.082 -22.063  0.00  0.00    -0.312 N 
ATOM     23  H   UNL     1      37.084 -17.999 -22.282  0.00  0.00    +0.152 HD
BRANCH  22  25
ATOM     24  N   UNL     1      36.667 -20.521 -19.343  0.00  0.00    -0.241 NA
ATOM     25  C   UNL     1      35.853 -19.060 -21.089  0.00  0.00    +0.068 C 
ATOM     26  C   UNL     1      34.560 -19.533 -20.893  0.00  0.00    +0.022 C 
ATOM     27  C   UNL     1      36.862 -19.581 -20.295  0.00  0.00    +0.113 C 
ATOM     28  C   UNL     1      34.319 -20.499 -19.922  0.00  0.00    +0.073 C 
ATOM     29  C   UNL     1      35.397 -20.957 -19.181  0.00  0.00    +0.103 C 
BRANCH  28  32
ATOM     30  O   UNL     1      32.006 -20.609 -20.353  0.00  0.00    -0.270 OA
ATOM     31  N   UNL     1      32.821 -21.995 -18.717  0.00  0.00    -0.325 N 
ATOM     32  C   UNL     1      32.981 -21.014 -19.693  0.00  0.00    +0.244 C 
ATOM     33  H   UNL     1      31.928 -22.367 -18.535  0.00  0.00    +0.145 HD
ATOM     34  H   UNL     1      33.601 -22.318 -18.210  0.00  0.00    +0.145 HD
ENDBRANCH  28  32
ENDBRANCH  22  25
ENDBRANCH   1  22
TORSDOF 6
ENDMDL
MODEL 2
REMARK VINA RESULT:     -11.6      1.344      1.884
REMARK  Name = 24875320
REMARK  6 active torsions:
REMARK  status: ('A' for Active; 'I' for Inactive)
REMARK    1  A    between atoms: C_1  and  N_22
REMARK    2  A    between atoms: C_3  and  C_10
REMARK    3  A    between atoms: N_9  and  C_12
REMARK    4  A    between atoms: C_14  and  C_21
REMARK    5  A    between atoms: N_22  and  C_25
REMARK    6  A    between atoms: C_28  and  C_32
REMARK                            x       y       z     vdW  Elec       q    Type
REMARK                         _______ _______ _______ _____ _____    ______ ____
ROOT
ATOM      1  C   UNL     1      35.324 -17.121 -22.639  0.00  0.00    +0.044 C 
ATOM      2  C   UNL     1      34.700 -17.475 -23.835  0.00  0.00    -0.008 C 
ATOM      3  C   UNL     1      34.318 -14.928 -22.763  0.00  0.00    +0.055 C 
ATOM      4  C   UNL     1      35.133 -15.847 -22.103  0.00  0.00    +0.019 C 
ATOM      5  C   UNL     1      33.885 -16.556 -24.495  0.00  0.00    -0.003 C 
ATOM      6  C   UNL     1      33.694 -15.282 -23.960  0.00  0.00    +0.004 C 
ATOM      7  C   UNL     1      34.886 -18.832 -24.431  0.00  0.00    +0.032 C 
ENDROOT
BRANCH   3  10
ATOM      8  O   UNL     1      34.506 -13.368 -21.048  0.00  0.00    -0.270 OA
ATOM      9  N   UNL     1      33.471 -12.677 -23.037  0.00  0.00    -0.280 N 
ATOM     10  C   UNL     1      34.119 -13.600 -22.205  0.00  0.00    +0.250 C 
ATOM     11  H   UNL     1      33.224 -13.007 -23.932  0.00  0.00    +0.155 HD
BRANCH   9  12
ATOM     12  C   UNL     1      33.124 -11.332 -22.760  0.00  0.00    +0.050 C 
ATOM     13  C   UNL     1      33.879 -10.290 -23.300  0.00  0.00    +0.019 C 
ATOM     14  C   UNL     1      33.537  -8.966 -23.027  0.00  0.00    +0.073 C 
ATOM     15  C   UNL     1      32.027 -11.048 -21.947  0.00  0.00    +0.015 C 
ATOM     16  C   UNL     1      32.439  -8.683 -22.213  0.00  0.00    +0.004 C 
ATOM     17  C   UNL     1      31.685  -9.724 -21.674  0.00  0.00    +0.001 C 
BRANCH  14  21
ATOM     18  F   UNL     1      35.251  -7.324 -22.731  0.00  0.00    -0.166 F 
ATOM     19  F   UNL     1      35.073  -8.217 -24.700  0.00  0.00    -0.166 F 
ATOM     20  F   UNL     1      33.572  -6.802 -24.010  0.00  0.00    -0.166 F 
ATOM     21  C   UNL     1      34.343  -7.852 -23.603  0.00  0.00    +0.419 C 
ENDBRANCH  14  21
ENDBRANCH   9  12
ENDBRANCH   3  10
BRANCH   1  22
ATOM     22  N   UNL     1      36.151 -18.039 -21.956  0.00  0.00    -0.312 N 
ATOM     23  H   UNL     1      37.106 -17.958 -22.185  0.00  0.00    +0.152 HD
BRANCH  22  25
ATOM     24  N   UNL     1      36.697 -20.561 -19.314  0.00  0.00    -0.241 NA
ATOM     25  C   UNL     1      35.879 -19.048 -21.013  0.00  0.00    +0.068 C 
ATOM     26  C   UNL     1      34.588 -19.529 -20.830  0.00  0.00    +0.022 C 
ATOM     27  C   UNL     1      36.890 -19.592 -20.237  0.00  0.00    +0.113 C 
ATOM     28  C   UNL     1      34.349 -20.525 -19.890  0.00  0.00    +0.073 C 
ATOM     29  C   UNL     1      35.428 -21.004 -19.164  0.00  0.00    +0.103 C 
BRANCH  28  32
ATOM     30  O   UNL     1      32.036 -20.625 -20.322  0.00  0.00    -0.270 OA
ATOM     31  N   UNL     1      32.853 -22.059 -18.730  0.00  0.00    -0.325 N 
ATOM     32  C   UNL     1      33.012 -21.048 -19.675  0.00  0.00    +0.244 C 
ATOM     33  H   UNL     1      31.961 -22.438 -18.559  0.00  0.00    +0.145 HD
ATOM     34  H   UNL     1      33.634 -22.396 -18.234  0.00  0.00    +0.145 HD
ENDBRANCH  28  32
ENDBRANCH  22  25
ENDBRANCH   1  22
TORSDOF 6
ENDMDL
MODEL 3
REMARK VINA RESULT:     -11.5      4.368      7.922
REMARK  Name = 24875320
REMARK  6 active torsions:
REMARK  status: ('A' for Active; 'I' for Inactive)
REMARK    1  A    between atoms: C_1  and  N_22
REMARK    2  A    between atoms: C_3  and  C_10
REMARK    3  A    between atoms: N_9  and  C_12
REMARK    4  A    between atoms: C_14  and  C_21
REMARK    5  A    between atoms: N_22  and  C_25
REMARK    6  A    between atoms: C_28  and  C_32
REMARK                            x       y       z     vdW  Elec       q    Type
REMARK                         _______ _______ _______ _____ _____    ______ ____
ROOT
ATOM      1  C   UNL     1      34.679 -22.705 -16.936  0.00  0.00    +0.044 C 
ATOM      2  C   UNL     1      36.023 -22.505 -16.625  0.00  0.00    -0.008 C 
ATOM      3  C   UNL     1      34.905 -21.243 -18.848  0.00  0.00    +0.055 C 
ATOM      4  C   UNL     1      34.119 -22.073 -18.047  0.00  0.00    +0.019 C 
ATOM      5  C   UNL     1      36.809 -21.675 -17.424  0.00  0.00    -0.003 C 
ATOM      6  C   UNL     1      36.250 -21.044 -18.535  0.00  0.00    +0.004 C 
ATOM      7  C   UNL     1      36.649 -23.169 -15.441  0.00  0.00    +0.032 C 
ENDROOT
BRANCH   3  10
ATOM      8  O   UNL     1      33.119 -20.764 -20.259  0.00  0.00    -0.270 OA
ATOM      9  N   UNL     1      35.197 -19.799 -20.768  0.00  0.00    -0.280 N 
ATOM     10  C   UNL     1      34.322 -20.585 -20.005  0.00  0.00    +0.250 C 
ATOM     11  H   UNL     1      36.125 -19.751 -20.441  0.00  0.00    +0.155 HD
BRANCH   9  12
ATOM     12  C   UNL     1      34.923 -19.066 -21.949  0.00  0.00    +0.050 C 
ATOM     13  C   UNL     1      34.930 -17.672 -21.923  0.00  0.00    +0.019 C 
ATOM     14  C   UNL     1      34.660 -16.951 -23.086  0.00  0.00    +0.073 C 
ATOM     15  C   UNL     1      34.644 -19.740 -23.138  0.00  0.00    +0.015 C 
ATOM     16  C   UNL     1      34.381 -17.625 -24.276  0.00  0.00    +0.004 C 
ATOM     17  C   UNL     1      34.374 -19.019 -24.301  0.00  0.00    +0.001 C 
BRANCH  14  21
ATOM     18  F   UNL     1      33.485 -14.898 -23.444  0.00  0.00    -0.166 F 
ATOM     19  F   UNL     1      34.925 -14.938 -21.823  0.00  0.00    -0.166 F 
ATOM     20  F   UNL     1      35.613 -14.925 -23.886  0.00  0.00    -0.166 F 
ATOM     21  C   UNL     1      34.668 -15.460 -23.059  0.00  0.00    +0.419 C 
ENDBRANCH  14  21
ENDBRANCH   9  12
ENDBRANCH   3  10
BRANCH   1  22
ATOM     22  N   UNL     1      33.869 -23.542 -16.139  0.00  0.00    -0.312 N 
ATOM     23  H   UNL     1      34.220 -24.457 -16.040  0.00  0.00    +0.152 HD
BRANCH  22  25
ATOM     24  N   UNL     1      31.507 -22.911 -13.371  0.00  0.00    -0.241 NA
ATOM     25  C   UNL     1      32.657 -23.325 -15.456  0.00  0.00    +0.068 C 
ATOM     26  C   UNL     1      31.445 -23.306 -16.137  0.00  0.00    +0.022 C 
ATOM     27  C   UNL     1      32.634 -23.125 -14.086  0.00  0.00    +0.113 C 
ATOM     28  C   UNL     1      30.263 -23.088 -15.436  0.00  0.00    +0.073 C 
ATOM     29  C   UNL     1      30.348 -22.899 -14.066  0.00  0.00    +0.103 C 
BRANCH  28  32
ATOM     30  O   UNL     1      28.505 -22.004 -16.568  0.00  0.00    -0.270 OA
ATOM     31  N   UNL     1      28.303 -24.269 -16.271  0.00  0.00    -0.325 N 
ATOM     32  C   UNL     1      28.982 -23.062 -16.118  0.00  0.00    +0.244 C 
ATOM     33  H   UNL     1      27.431 -24.289 -16.729  0.00  0.00    +0.145 HD
ATOM     34  H   UNL     1      28.696 -25.102 -15.924  0.00  0.00    +0.145 HD
ENDBRANCH  28  32
ENDBRANCH  22  25
ENDBRANCH   1  22
TORSDOF 6
ENDMDL
MODEL 4
REMARK VINA RESULT:     -11.4      6.504      9.878
REMARK  Name = 24875320
REMARK  6 active torsions:
REMARK  status: ('A' for Active; 'I' for Inactive)
REMARK    1  A    between atoms: C_1  and  N_22
REMARK    2  A    between atoms: C_3  and  C_10
REMARK    3  A    between atoms: N_9  and  C_12
REMARK    4  A    between atoms: C_14  and  C_21
REMARK    5  A    between atoms: N_22  and  C_25
REMARK    6  A    between atoms: C_28  and  C_32
REMARK                            x       y       z     vdW  Elec       q    Type
REMARK                         _______ _______ _______ _____ _____    ______ ____
ROOT
ATOM      1  C   UNL     1      34.788 -22.876 -15.294  0.00  0.00    +0.044 C 
ATOM      2  C   UNL     1      33.456 -23.248 -15.116  0.00  0.00    -0.008 C 
ATOM      3  C   UNL     1      34.350 -22.427 -17.628  0.00  0.00    +0.055 C 
ATOM      4  C   UNL     1      35.235 -22.466 -16.551  0.00  0.00    +0.019 C 
ATOM      5  C   UNL     1      32.570 -23.209 -16.192  0.00  0.00    -0.003 C 
ATOM      6  C   UNL     1      33.017 -22.799 -17.449  0.00  0.00    +0.004 C 
ATOM      7  C   UNL     1      32.950 -23.690 -13.781  0.00  0.00    +0.032 C 
ENDROOT
BRANCH   3  10
ATOM      8  O   UNL     1      34.997 -22.855 -19.821  0.00  0.00    -0.270 OA
ATOM      9  N   UNL     1      35.047 -20.626 -19.087  0.00  0.00    -0.280 N 
ATOM     10  C   UNL     1      34.816 -22.001 -18.937  0.00  0.00    +0.250 C 
ATOM     11  H   UNL     1      34.857 -20.072 -18.296  0.00  0.00    +0.155 HD
BRANCH   9  12
ATOM     12  C   UNL     1      35.520 -19.931 -20.227  0.00  0.00    +0.050 C 
ATOM     13  C   UNL     1      34.734 -19.857 -21.377  0.00  0.00    +0.019 C 
ATOM     14  C   UNL     1      35.201 -19.173 -22.499  0.00  0.00    +0.073 C 
ATOM     15  C   UNL     1      36.774 -19.319 -20.199  0.00  0.00    +0.015 C 
ATOM     16  C   UNL     1      36.455 -18.561 -22.471  0.00  0.00    +0.004 C 
ATOM     17  C   UNL     1      37.240 -18.634 -21.321  0.00  0.00    +0.001 C 
BRANCH  14  21
ATOM     18  F   UNL     1      33.019 -19.132 -23.479  0.00  0.00    -0.166 F 
ATOM     19  F   UNL     1      34.557 -17.952 -24.451  0.00  0.00    -0.166 F 
ATOM     20  F   UNL     1      34.601 -20.122 -24.594  0.00  0.00    -0.166 F 
ATOM     21  C   UNL     1      34.361 -19.094 -23.728  0.00  0.00    +0.419 C 
ENDBRANCH  14  21
ENDBRANCH   9  12
ENDBRANCH   3  10
BRANCH   1  22
ATOM     22  N   UNL     1      35.699 -22.908 -14.215  0.00  0.00    -0.312 N 
ATOM     23  H   UNL     1      35.700 -22.086 -13.674  0.00  0.00    +0.152 HD
BRANCH  22  25
ATOM     24  N   UNL     1      37.153 -25.605 -12.155  0.00  0.00    -0.241 NA
ATOM     25  C   UNL     1      36.604 -23.886 -13.762  0.00  0.00    +0.068 C 
ATOM     26  C   UNL     1      37.805 -24.113 -14.427  0.00  0.00    +0.022 C 
ATOM     27  C   UNL     1      36.328 -24.652 -12.642  0.00  0.00    +0.113 C 
ATOM     28  C   UNL     1      38.679 -25.087 -13.957  0.00  0.00    +0.073 C 
ATOM     29  C   UNL     1      38.311 -25.799 -12.827  0.00  0.00    +0.103 C 
BRANCH  28  32
ATOM     30  O   UNL     1      40.969 -24.703 -14.354  0.00  0.00    -0.270 OA
ATOM     31  N   UNL     1      39.971 -26.363 -15.581  0.00  0.00    -0.325 N 
ATOM     32  C   UNL     1      39.940 -25.348 -14.627  0.00  0.00    +0.244 C 
ATOM     33  H   UNL     1      40.808 -26.568 -16.056  0.00  0.00    +0.145 HD
ATOM     34  H   UNL     1      39.154 -26.876 -15.781  0.00  0.00    +0.145 HD
ENDBRANCH  28  32
ENDBRANCH  22  25
ENDBRANCH   1  22
TORSDOF 6
ENDMDL
MODEL 5
REMARK VINA RESULT:     -11.4      6.410      9.772
REMARK  Name = 24875320
REMARK  6 active torsions:
REMARK  status: ('A' for Active; 'I' for Inactive)
REMARK    1  A    between atoms: C_1  and  N_22
REMARK    2  A    between atoms: C_3  and  C_10
REMARK    3  A    between atoms: N_9  and  C_12
REMARK    4  A    between atoms: C_14  and  C_21
REMARK    5  A    between atoms: N_22  and  C_25
REMARK    6  A    between atoms: C_28  and  C_32
REMARK                            x       y       z     vdW  Elec       q    Type
REMARK                         _______ _______ _______ _____ _____    ______ ____
ROOT
ATOM      1  C   UNL     1      33.604 -23.537 -15.558  0.00  0.00    +0.044 C 
ATOM      2  C   UNL     1      32.228 -23.401 -15.733  0.00  0.00    -0.008 C 
ATOM      3  C   UNL     1      33.987 -22.296 -17.596  0.00  0.00    +0.055 C 
ATOM      4  C   UNL     1      34.484 -22.985 -16.489  0.00  0.00    +0.019 C 
ATOM      5  C   UNL     1      31.730 -22.712 -16.839  0.00  0.00    -0.003 C 
ATOM      6  C   UNL     1      32.609 -22.160 -17.771  0.00  0.00    +0.004 C 
ATOM      7  C   UNL     1      31.263 -23.981 -14.751  0.00  0.00    +0.032 C 
ENDROOT
BRANCH   3  10
ATOM      8  O   UNL     1      36.083 -22.108 -18.585  0.00  0.00    -0.270 OA
ATOM      9  N   UNL     1      34.366 -20.737 -19.408  0.00  0.00    -0.280 N 
ATOM     10  C   UNL     1      34.903 -21.721 -18.567  0.00  0.00    +0.250 C 
ATOM     11  H   UNL     1      33.411 -20.537 -19.276  0.00  0.00    +0.155 HD
BRANCH   9  12
ATOM     12  C   UNL     1      35.017 -19.993 -20.423  0.00  0.00    +0.050 C 
ATOM     13  C   UNL     1      34.390 -19.793 -21.653  0.00  0.00    +0.019 C 
ATOM     14  C   UNL     1      35.031 -19.060 -22.652  0.00  0.00    +0.073 C 
ATOM     15  C   UNL     1      36.285 -19.460 -20.191  0.00  0.00    +0.015 C 
ATOM     16  C   UNL     1      36.300 -18.527 -22.420  0.00  0.00    +0.004 C 
ATOM     17  C   UNL     1      36.926 -18.727 -21.190  0.00  0.00    +0.001 C 
BRANCH  14  21
ATOM     18  F   UNL     1      34.648 -19.810 -24.890  0.00  0.00    -0.166 F 
ATOM     19  F   UNL     1      32.999 -18.821 -23.888  0.00  0.00    -0.166 F 
ATOM     20  F   UNL     1      34.718 -17.664 -24.550  0.00  0.00    -0.166 F 
ATOM     21  C   UNL     1      34.363 -18.846 -23.967  0.00  0.00    +0.419 C 
ENDBRANCH  14  21
ENDBRANCH   9  12
ENDBRANCH   3  10
BRANCH   1  22
ATOM     22  N   UNL     1      34.126 -24.230 -14.444  0.00  0.00    -0.312 N 
ATOM     23  H   UNL     1      33.439 -24.683 -13.902  0.00  0.00    +0.152 HD
BRANCH  22  25
ATOM     24  N   UNL     1      37.604 -25.443 -14.185  0.00  0.00    -0.241 NA
ATOM     25  C   UNL     1      35.435 -24.402 -13.956  0.00  0.00    +0.068 C 
ATOM     26  C   UNL     1      35.866 -23.738 -12.812  0.00  0.00    +0.022 C 
ATOM     27  C   UNL     1      36.335 -25.235 -14.600  0.00  0.00    +0.113 C 
ATOM     28  C   UNL     1      37.165 -23.926 -12.354  0.00  0.00    +0.073 C 
ATOM     29  C   UNL     1      37.988 -24.781 -13.069  0.00  0.00    +0.103 C 
BRANCH  28  32
ATOM     30  O   UNL     1      38.701 -22.589 -11.171  0.00  0.00    -0.270 OA
ATOM     31  N   UNL     1      36.875 -23.343 -10.007  0.00  0.00    -0.325 N 
ATOM     32  C   UNL     1      37.645 -23.248 -11.163  0.00  0.00    +0.244 C 
ATOM     33  H   UNL     1      37.169 -22.896  -9.180  0.00  0.00    +0.145 HD
ATOM     34  H   UNL     1      36.034 -23.856 -10.016  0.00  0.00    +0.145 HD
ENDBRANCH  28  32
ENDBRANCH  22  25
ENDBRANCH   1  22
TORSDOF 6
ENDMDL
MODEL 6
REMARK VINA RESULT:     -11.1      6.734     10.228
REMARK  Name = 24875320
REMARK  6 active torsions:
REMARK  status: ('A' for Active; 'I' for Inactive)
REMARK    1  A    between atoms: C_1  and  N_22
REMARK    2  A    between atoms: C_3  and  C_10
REMARK    3  A    between atoms: N_9  and  C_12
REMARK    4  A    between atoms: C_14  and  C_21
REMARK    5  A    between atoms: N_22  and  C_25
REMARK    6  A    between atoms: C_28  and  C_32
REMARK                            x       y       z     vdW  Elec       q    Type
REMARK                         _______ _______ _______ _____ _____    ______ ____
ROOT
ATOM      1  C   UNL     1      35.629 -24.064 -14.447  0.00  0.00    +0.044 C 
ATOM      2  C   UNL     1      36.905 -24.361 -13.969  0.00  0.00    -0.008 C 
ATOM      3  C   UNL     1      36.589 -22.559 -16.075  0.00  0.00    +0.055 C 
ATOM      4  C   UNL     1      35.471 -23.163 -15.500  0.00  0.00    +0.019 C 
ATOM      5  C   UNL     1      38.023 -23.758 -14.544  0.00  0.00    -0.003 C 
ATOM      6  C   UNL     1      37.866 -22.856 -15.597  0.00  0.00    +0.004 C 
ATOM      7  C   UNL     1      37.104 -25.324 -12.843  0.00  0.00    +0.032 C 
ENDROOT
BRANCH   3  10
ATOM      8  O   UNL     1      37.249 -20.701 -17.309  0.00  0.00    -0.270 OA
ATOM      9  N   UNL     1      35.305 -21.824 -17.991  0.00  0.00    -0.280 N 
ATOM     10  C   UNL     1      36.425 -21.619 -17.172  0.00  0.00    +0.250 C 
ATOM     11  H   UNL     1      34.741 -22.597 -17.758  0.00  0.00    +0.155 HD
BRANCH   9  12
ATOM     12  C   UNL     1      34.878 -21.064 -19.108  0.00  0.00    +0.050 C 
ATOM     13  C   UNL     1      35.798 -20.295 -19.821  0.00  0.00    +0.019 C 
ATOM     14  C   UNL     1      35.377 -19.547 -20.920  0.00  0.00    +0.073 C 
ATOM     15  C   UNL     1      33.538 -21.085 -19.494  0.00  0.00    +0.015 C 
ATOM     16  C   UNL     1      34.036 -19.568 -21.306  0.00  0.00    +0.004 C 
ATOM     17  C   UNL     1      33.118 -20.337 -20.593  0.00  0.00    +0.001 C 
BRANCH  14  21
ATOM     18  F   UNL     1      36.181 -17.379 -21.533  0.00  0.00    -0.166 F 
ATOM     19  F   UNL     1      37.658 -18.954 -21.327  0.00  0.00    -0.166 F 
ATOM     20  F   UNL     1      36.303 -18.953 -23.028  0.00  0.00    -0.166 F 
ATOM     21  C   UNL     1      36.359 -18.724 -21.683  0.00  0.00    +0.419 C 
ENDBRANCH  14  21
ENDBRANCH   9  12
ENDBRANCH   3  10
BRANCH   1  22
ATOM     22  N   UNL     1      34.486 -24.667 -13.877  0.00  0.00    -0.312 N 
ATOM     23  H   UNL     1      34.683 -25.483 -13.363  0.00  0.00    +0.152 HD
BRANCH  22  25
ATOM     24  N   UNL     1      30.985 -24.278 -12.768  0.00  0.00    -0.241 NA
ATOM     25  C   UNL     1      33.119 -24.329 -13.901  0.00  0.00    +0.068 C 
ATOM     26  C   UNL     1      32.548 -23.734 -15.021  0.00  0.00    +0.022 C 
ATOM     27  C   UNL     1      32.302 -24.578 -12.810  0.00  0.00    +0.113 C 
ATOM     28  C   UNL     1      31.195 -23.410 -15.014  0.00  0.00    +0.073 C 
ATOM     29  C   UNL     1      30.464 -23.701 -13.874  0.00  0.00    +0.103 C 
BRANCH  28  32
ATOM     30  O   UNL     1      31.244 -22.328 -17.106  0.00  0.00    -0.270 OA
ATOM     31  N   UNL     1      29.177 -22.739 -16.202  0.00  0.00    -0.325 N 
ATOM     32  C   UNL     1      30.569 -22.789 -16.167  0.00  0.00    +0.244 C 
ATOM     33  H   UNL     1      28.718 -22.326 -16.969  0.00  0.00    +0.145 HD
ATOM     34  H   UNL     1      28.652 -23.119 -15.461  0.00  0.00    +0.145 HD
ENDBRANCH  28  32
ENDBRANCH  22  25
ENDBRANCH   1  22
TORSDOF 6
ENDMDL
MODEL 7
REMARK VINA RESULT:     -10.7      6.368      9.501
REMARK  Name = 24875320
REMARK  6 active torsions:
REMARK  status: ('A' for Active; 'I' for Inactive)
REMARK    1  A    between atoms: C_1  and  N_22
REMARK    2  A    between atoms: C_3  and  C_10
REMARK    3  A    between atoms: N_9  and  C_12
REMARK    4  A    between atoms: C_14  and  C_21
REMARK    5  A    between atoms: N_22  and  C_25
REMARK    6  A    between atoms: C_28  and  C_32
REMARK                            x       y       z     vdW  Elec       q    Type
REMARK                         _______ _______ _______ _____ _____    ______ ____
ROOT
ATOM      1  C   UNL     1      35.153 -23.298 -15.318  0.00  0.00    +0.044 C 
ATOM      2  C   UNL     1      36.273 -22.901 -14.588  0.00  0.00    -0.008 C 
ATOM      3  C   UNL     1      35.963 -22.063 -17.231  0.00  0.00    +0.055 C 
ATOM      4  C   UNL     1      34.998 -22.878 -16.639  0.00  0.00    +0.019 C 
ATOM      5  C   UNL     1      37.238 -22.085 -15.178  0.00  0.00    -0.003 C 
ATOM      6  C   UNL     1      37.083 -21.666 -16.500  0.00  0.00    +0.004 C 
ATOM      7  C   UNL     1      36.466 -23.336 -13.171  0.00  0.00    +0.032 C 
ENDROOT
BRANCH   3  10
ATOM      8  O   UNL     1      35.236 -22.378 -19.417  0.00  0.00    -0.270 OA
ATOM      9  N   UNL     1      36.331 -20.364 -18.915  0.00  0.00    -0.280 N 
ATOM     10  C   UNL     1      35.801 -21.625 -18.607  0.00  0.00    +0.250 C 
ATOM     11  H   UNL     1      36.750 -19.881 -18.166  0.00  0.00    +0.155 HD
BRANCH   9  12
ATOM     12  C   UNL     1      36.343 -19.693 -20.163  0.00  0.00    +0.050 C 
ATOM     13  C   UNL     1      35.230 -19.758 -21.002  0.00  0.00    +0.019 C 
ATOM     14  C   UNL     1      35.243 -19.098 -22.230  0.00  0.00    +0.073 C 
ATOM     15  C   UNL     1      37.468 -18.968 -20.553  0.00  0.00    +0.015 C 
ATOM     16  C   UNL     1      36.369 -18.372 -22.620  0.00  0.00    +0.004 C 
ATOM     17  C   UNL     1      37.481 -18.307 -21.782  0.00  0.00    +0.001 C 
BRANCH  14  21
ATOM     18  F   UNL     1      34.254 -19.925 -24.246  0.00  0.00    -0.166 F 
ATOM     19  F   UNL     1      32.948 -19.702 -22.528  0.00  0.00    -0.166 F 
ATOM     20  F   UNL     1      33.667 -17.940 -23.582  0.00  0.00    -0.166 F 
ATOM     21  C   UNL     1      34.054 -19.168 -23.127  0.00  0.00    +0.419 C 
ENDBRANCH  14  21
ENDBRANCH   9  12
ENDBRANCH   3  10
BRANCH   1  22
ATOM     22  N   UNL     1      34.167 -24.124 -14.736  0.00  0.00    -0.312 N 
ATOM     23  H   UNL     1      34.456 -25.057 -14.610  0.00  0.00    +0.152 HD
BRANCH  22  25
ATOM     24  N   UNL     1      31.255 -23.806 -12.488  0.00  0.00    -0.241 NA
ATOM     25  C   UNL     1      32.852 -23.875 -14.301  0.00  0.00    +0.068 C 
ATOM     26  C   UNL     1      31.867 -23.466 -15.194  0.00  0.00    +0.022 C 
ATOM     27  C   UNL     1      32.498 -24.029 -12.971  0.00  0.00    +0.113 C 
ATOM     28  C   UNL     1      30.577 -23.226 -14.734  0.00  0.00    +0.073 C 
ATOM     29  C   UNL     1      30.324 -23.410 -13.384  0.00  0.00    +0.103 C 
BRANCH  28  32
ATOM     30  O   UNL     1      29.777 -22.444 -16.807  0.00  0.00    -0.270 OA
ATOM     31  N   UNL     1      28.215 -22.813 -15.169  0.00  0.00    -0.325 N 
ATOM     32  C   UNL     1      29.526 -22.798 -15.641  0.00  0.00    +0.244 C 
ATOM     33  H   UNL     1      27.477 -22.530 -15.757  0.00  0.00    +0.145 HD
ATOM     34  H   UNL     1      28.026 -23.108 -14.249  0.00  0.00    +0.145 HD
ENDBRANCH  28  32
ENDBRANCH  22  25
ENDBRANCH   1  22
TORSDOF 6
ENDMDL
MODEL 8
REMARK VINA RESULT:     -10.7      3.132      5.526
REMARK  Name = 24875320
REMARK  6 active torsions:
REMARK  status: ('A' for Active; 'I' for Inactive)
REMARK    1  A    between atoms: C_1  and  N_22
REMARK    2  A    between atoms: C_3  and  C_10
REMARK    3  A    between atoms: N_9  and  C_12
REMARK    4  A    between atoms: C_14  and  C_21
REMARK    5  A    between atoms: N_22  and  C_25
REMARK    6  A    between atoms: C_28  and  C_32
REMARK                            x       y       z     vdW  Elec       q    Type
REMARK                         _______ _______ _______ _____ _____    ______ ____
ROOT
ATOM      1  C   UNL     1      33.447 -12.366 -21.883  0.00  0.00    +0.044 C 
ATOM      2  C   UNL     1      32.594 -12.704 -20.833  0.00  0.00    -0.008 C 
ATOM      3  C   UNL     1      32.308 -10.248 -22.126  0.00  0.00    +0.055 C 
ATOM      4  C   UNL     1      33.304 -11.138 -22.530  0.00  0.00    +0.019 C 
ATOM      5  C   UNL     1      31.598 -11.815 -20.429  0.00  0.00    -0.003 C 
ATOM      6  C   UNL     1      31.455 -10.587 -21.076  0.00  0.00    +0.004 C 
ATOM      7  C   UNL     1      32.725 -14.012 -20.122  0.00  0.00    +0.032 C 
ENDROOT
BRANCH   3  10
ATOM      8  O   UNL     1      31.066  -8.683 -23.316  0.00  0.00    -0.270 OA
ATOM      9  N   UNL     1      33.300  -8.155 -22.829  0.00  0.00    -0.280 N 
ATOM     10  C   UNL     1      32.159  -8.969 -22.800  0.00  0.00    +0.250 C 
ATOM     11  H   UNL     1      34.095  -8.517 -22.374  0.00  0.00    +0.155 HD
BRANCH   9  12
ATOM     12  C   UNL     1      33.460  -6.881 -23.427  0.00  0.00    +0.050 C 
ATOM     13  C   UNL     1      32.569  -5.850 -23.124  0.00  0.00    +0.019 C 
ATOM     14  C   UNL     1      32.727  -4.596 -23.713  0.00  0.00    +0.073 C 
ATOM     15  C   UNL     1      34.507  -6.657 -24.320  0.00  0.00    +0.015 C 
ATOM     16  C   UNL     1      33.775  -4.372 -24.607  0.00  0.00    +0.004 C 
ATOM     17  C   UNL     1      34.664  -5.402 -24.909  0.00  0.00    +0.001 C 
BRANCH  14  21
ATOM     18  F   UNL     1      31.060  -3.706 -22.246  0.00  0.00    -0.166 F 
ATOM     19  F   UNL     1      32.383  -2.284 -23.211  0.00  0.00    -0.166 F 
ATOM     20  F   UNL     1      30.847  -3.297 -24.370  0.00  0.00    -0.166 F 
ATOM     21  C   UNL     1      31.776  -3.495 -23.389  0.00  0.00    +0.419 C 
ENDBRANCH  14  21
ENDBRANCH   9  12
ENDBRANCH   3  10
BRANCH   1  22
ATOM     22  N   UNL     1      34.461 -13.253 -22.305  0.00  0.00    -0.312 N 
ATOM     23  H   UNL     1      35.369 -12.965 -22.054  0.00  0.00    +0.152 HD
BRANCH  22  25
ATOM     24  N   UNL     1      33.856 -15.665 -25.034  0.00  0.00    -0.241 NA
ATOM     25  C   UNL     1      34.429 -14.469 -23.014  0.00  0.00    +0.068 C 
ATOM     26  C   UNL     1      34.911 -15.642 -22.446  0.00  0.00    +0.022 C 
ATOM     27  C   UNL     1      33.916 -14.533 -24.299  0.00  0.00    +0.113 C 
ATOM     28  C   UNL     1      34.867 -16.828 -23.172  0.00  0.00    +0.073 C 
ATOM     29  C   UNL     1      34.334 -16.787 -24.450  0.00  0.00    +0.103 C 
BRANCH  28  32
ATOM     30  O   UNL     1      34.665 -19.101 -22.589  0.00  0.00    -0.270 OA
ATOM     31  N   UNL     1      36.660 -18.082 -22.099  0.00  0.00    -0.325 N 
ATOM     32  C   UNL     1      35.363 -18.071 -22.607  0.00  0.00    +0.244 C 
ATOM     33  H   UNL     1      37.029 -18.907 -21.709  0.00  0.00    +0.145 HD
ATOM     34  H   UNL     1      37.208 -17.264 -22.131  0.00  0.00    +0.145 HD
ENDBRANCH  28  32
ENDBRANCH  22  25
ENDBRANCH   1  22
TORSDOF 6
ENDMDL
MODEL 9
REMARK VINA RESULT:     -10.6      3.289      5.645
REMARK  Name = 24875320
REMARK  6 active torsions:
REMARK  status: ('A' for Active; 'I' for Inactive)
REMARK    1  A    between atoms: C_1  and  N_22
REMARK    2  A    between atoms: C_3  and  C_10
REMARK    3  A    between atoms: N_9  and  C_12
REMARK    4  A    between atoms: C_14  and  C_21
REMARK    5  A    between atoms: N_22  and  C_25
REMARK    6  A    between atoms: C_28  and  C_32
REMARK                            x       y       z     vdW  Elec       q    Type
REMARK                         _______ _______ _______ _____ _____    ______ ____
ROOT
ATOM      1  C   UNL     1      33.497 -12.624 -21.807  0.00  0.00    +0.044 C 
ATOM      2  C   UNL     1      32.550 -12.859 -20.811  0.00  0.00    -0.008 C 
ATOM      3  C   UNL     1      32.516 -10.456 -22.229  0.00  0.00    +0.055 C 
ATOM      4  C   UNL     1      33.480 -11.423 -22.516  0.00  0.00    +0.019 C 
ATOM      5  C   UNL     1      31.586 -11.893 -20.523  0.00  0.00    -0.003 C 
ATOM      6  C   UNL     1      31.568 -10.692 -21.232  0.00  0.00    +0.004 C 
ATOM      7  C   UNL     1      32.546 -14.136 -20.034  0.00  0.00    +0.032 C 
ENDROOT
BRANCH   3  10
ATOM      8  O   UNL     1      32.548  -9.237 -24.209  0.00  0.00    -0.270 OA
ATOM      9  N   UNL     1      32.443  -8.038 -22.195  0.00  0.00    -0.280 N 
ATOM     10  C   UNL     1      32.497  -9.205 -22.969  0.00  0.00    +0.250 C 
ATOM     11  H   UNL     1      32.406  -8.171 -21.220  0.00  0.00    +0.155 HD
BRANCH   9  12
ATOM     12  C   UNL     1      32.437  -6.690 -22.632  0.00  0.00    +0.050 C 
ATOM     13  C   UNL     1      33.250  -6.296 -23.695  0.00  0.00    +0.019 C 
ATOM     14  C   UNL     1      33.244  -4.970 -24.125  0.00  0.00    +0.073 C 
ATOM     15  C   UNL     1      31.617  -5.756 -21.999  0.00  0.00    +0.015 C 
ATOM     16  C   UNL     1      32.424  -4.035 -23.491  0.00  0.00    +0.004 C 
ATOM     17  C   UNL     1      31.611  -4.429 -22.428  0.00  0.00    +0.001 C 
BRANCH  14  21
ATOM     18  F   UNL     1      34.213  -3.194 -25.402  0.00  0.00    -0.166 F 
ATOM     19  F   UNL     1      35.401  -4.993 -25.157  0.00  0.00    -0.166 F 
ATOM     20  F   UNL     1      33.663  -5.010 -26.464  0.00  0.00    -0.166 F 
ATOM     21  C   UNL     1      34.113  -4.549 -25.260  0.00  0.00    +0.419 C 
ENDBRANCH  14  21
ENDBRANCH   9  12
ENDBRANCH   3  10
BRANCH   1  22
ATOM     22  N   UNL     1      34.481 -13.590 -22.110  0.00  0.00    -0.312 N 
ATOM     23  H   UNL     1      35.363 -13.395 -21.717  0.00  0.00    +0.152 HD
BRANCH  22  25
ATOM     24  N   UNL     1      33.806 -15.912 -24.901  0.00  0.00    -0.241 NA
ATOM     25  C   UNL     1      34.449 -14.777 -22.866  0.00  0.00    +0.068 C 
ATOM     26  C   UNL     1      34.999 -15.955 -22.373  0.00  0.00    +0.022 C 
ATOM     27  C   UNL     1      33.870 -14.808 -24.124  0.00  0.00    +0.113 C 
ATOM     28  C   UNL     1      34.953 -17.113 -23.144  0.00  0.00    +0.073 C 
ATOM     29  C   UNL     1      34.351 -17.039 -24.389  0.00  0.00    +0.103 C 
BRANCH  28  32
ATOM     30  O   UNL     1      34.866 -19.419 -22.676  0.00  0.00    -0.270 OA
ATOM     31  N   UNL     1      36.827 -18.337 -22.183  0.00  0.00    -0.325 N 
ATOM     32  C   UNL     1      35.518 -18.359 -22.658  0.00  0.00    +0.244 C 
ATOM     33  H   UNL     1      37.243 -19.164 -21.846  0.00  0.00    +0.145 HD
ATOM     34  H   UNL     1      37.338 -17.496 -22.186  0.00  0.00    +0.145 HD
ENDBRANCH  28  32
ENDBRANCH  22  25
ENDBRANCH   1  22
TORSDOF 6
ENDMDL
