MODEL 1
REMARK VINA RESULT:     -11.3      0.000      0.000
REMARK  Name = 16040289
REMARK  6 active torsions:
REMARK  status: ('A' for Active; 'I' for Inactive)
REMARK    1  A    between atoms: N_2  and  C_20
REMARK    2  A    between atoms: C_3  and  C_6
REMARK    3  A    between atoms: N_11  and  C_13
REMARK    4  A    between atoms: C_13  and  C_15
REMARK    5  A    between atoms: C_23  and  O_26
REMARK    6  A    between atoms: O_26  and  C_27
REMARK                            x       y       z     vdW  Elec       q    Type
REMARK                         _______ _______ _______ _____ _____    ______ ____
ROOT
ATOM      1  O   UNL     1      33.478 -23.763 -17.968  0.00  0.00    -0.270 OA
ATOM      2  N   UNL     1      32.754 -21.527 -18.018  0.00  0.00    -0.280 N 
ATOM      3  C   UNL     1      32.820 -22.832 -17.515  0.00  0.00    +0.252 C 
ATOM      4  H   UNL     1      32.171 -20.904 -17.526  0.00  0.00    +0.155 HD
ENDROOT
BRANCH   3   6
ATOM      5  N   UNL     1      31.764 -23.827 -14.053  0.00  0.00    -0.229 NA
ATOM      6  C   UNL     1      31.975 -23.100 -16.322  0.00  0.00    +0.085 C 
ATOM      7  C   UNL     1      32.509 -23.574 -15.153  0.00  0.00    +0.133 C 
ATOM      8  C   UNL     1      30.624 -22.858 -16.414  0.00  0.00    +0.009 C 
ATOM      9  C   UNL     1      29.824 -23.106 -15.304  0.00  0.00    +0.021 C 
ATOM     10  C   UNL     1      30.437 -23.586 -14.157  0.00  0.00    +0.100 C 
ATOM     11  N   UNL     1      33.903 -23.816 -15.075  0.00  0.00    -0.314 N 
ATOM     12  H   UNL     1      34.459 -23.635 -15.868  0.00  0.00    +0.149 HD
BRANCH  11  13
ATOM     13  C   UNL     1      34.534 -24.310 -13.895  0.00  0.00    +0.115 C 
BRANCH  13  15
ATOM     14  N   UNL     1      38.798 -24.220 -14.319  0.00  0.00    -0.242 NA
ATOM     15  C   UNL     1      36.030 -24.278 -14.045  0.00  0.00    +0.000 C 
ATOM     16  C   UNL     1      36.612 -23.389 -14.932  0.00  0.00    +0.018 C 
ATOM     17  C   UNL     1      36.811 -25.139 -13.292  0.00  0.00    +0.018 C 
ATOM     18  C   UNL     1      37.993 -23.399 -15.032  0.00  0.00    +0.099 C 
ATOM     19  C   UNL     1      38.185 -25.070 -13.465  0.00  0.00    +0.099 C 
ENDBRANCH  13  15
ENDBRANCH  11  13
ENDBRANCH   3   6
BRANCH   2  20
ATOM     20  C   UNL     1      33.412 -21.000 -19.129  0.00  0.00    +0.051 C 
ATOM     21  C   UNL     1      32.677 -20.430 -20.169  0.00  0.00    +0.018 C 
ATOM     22  C   UNL     1      34.804 -21.044 -19.201  0.00  0.00    +0.018 C 
ATOM     23  C   UNL     1      34.728 -19.947 -21.353  0.00  0.00    +0.145 C 
ATOM     24  C   UNL     1      33.336 -19.903 -21.281  0.00  0.00    +0.039 C 
ATOM     25  C   UNL     1      35.462 -20.517 -20.313  0.00  0.00    +0.039 C 
BRANCH  23  26
ATOM     26  O   UNL     1      35.370 -19.435 -22.438  0.00  0.00    -0.453 OA
BRANCH  26  27
ATOM     27  C   UNL     1      35.071 -18.135 -22.809  0.00  0.00    +0.145 C 
ATOM     28  C   UNL     1      34.473 -17.904 -24.035  0.00  0.00    +0.037 C 
ATOM     29  C   UNL     1      35.380 -17.099 -21.945  0.00  0.00    +0.037 C 
ATOM     30  C   UNL     1      34.173 -16.594 -24.409  0.00  0.00    +0.003 C 
ATOM     31  C   UNL     1      35.080 -15.789 -22.319  0.00  0.00    +0.003 C 
ATOM     32  C   UNL     1      34.477 -15.537 -23.551  0.00  0.00    +0.000 C 
ENDBRANCH  26  27
ENDBRANCH  23  26
ENDBRANCH   2  20
TORSDOF 6
ENDMDL
MODEL 2
REMARK VINA RESULT:     -11.3      1.050      1.420
REMARK  Name = 16040289
REMARK  6 active torsions:
REMARK  status: ('A' for Active; 'I' for Inactive)
REMARK    1  A    between atoms: N_2  and  C_20
REMARK    2  A    between atoms: C_3  and  C_6
REMARK    3  A    between atoms: N_11  and  C_13
REMARK    4  A    between atoms: C_13  and  C_15
REMARK    5  A    between atoms: C_23  and  O_26
REMARK    6  A    between atoms: O_26  and  C_27
REMARK                            x       y       z     vdW  Elec       q    Type
REMARK                         _______ _______ _______ _____ _____    ______ ____
ROOT
ATOM      1  O   UNL     1      33.583 -23.751 -17.253  0.00  0.00    -0.270 OA
ATOM      2  N   UNL     1      32.513 -21.736 -17.823  0.00  0.00    -0.280 N 
ATOM      3  C   UNL     1      32.685 -22.928 -17.108  0.00  0.00    +0.252 C 
ATOM      4  H   UNL     1      31.731 -21.192 -17.574  0.00  0.00    +0.155 HD
ENDROOT
BRANCH   3   6
ATOM      5  N   UNL     1      31.035 -23.900 -13.880  0.00  0.00    -0.229 NA
ATOM      6  C   UNL     1      31.641 -23.217 -16.090  0.00  0.00    +0.085 C 
ATOM      7  C   UNL     1      31.963 -23.629 -14.824  0.00  0.00    +0.133 C 
ATOM      8  C   UNL     1      30.321 -23.059 -16.448  0.00  0.00    +0.009 C 
ATOM      9  C   UNL     1      29.336 -23.327 -15.503  0.00  0.00    +0.021 C 
ATOM     10  C   UNL     1      29.742 -23.741 -14.244  0.00  0.00    +0.100 C 
ATOM     11  N   UNL     1      33.328 -23.785 -14.473  0.00  0.00    -0.314 N 
ATOM     12  H   UNL     1      34.015 -23.591 -15.150  0.00  0.00    +0.149 HD
BRANCH  11  13
ATOM     13  C   UNL     1      33.744 -24.211 -13.177  0.00  0.00    +0.115 C 
BRANCH  13  15
ATOM     14  N   UNL     1      37.766 -22.950 -12.402  0.00  0.00    -0.242 NA
ATOM     15  C   UNL     1      35.156 -23.769 -12.906  0.00  0.00    +0.000 C 
ATOM     16  C   UNL     1      35.976 -23.408 -13.960  0.00  0.00    +0.018 C 
ATOM     17  C   UNL     1      35.621 -23.726 -11.602  0.00  0.00    +0.018 C 
ATOM     18  C   UNL     1      37.267 -23.008 -13.657  0.00  0.00    +0.099 C 
ATOM     19  C   UNL     1      36.929 -23.311 -11.405  0.00  0.00    +0.099 C 
ENDBRANCH  13  15
ENDBRANCH  11  13
ENDBRANCH   3   6
BRANCH   2  20
ATOM     20  C   UNL     1      33.313 -21.225 -18.845  0.00  0.00    +0.051 C 
ATOM     21  C   UNL     1      34.692 -21.436 -18.824  0.00  0.00    +0.018 C 
ATOM     22  C   UNL     1      32.734 -20.501 -19.887  0.00  0.00    +0.018 C 
ATOM     23  C   UNL     1      34.913 -20.200 -20.889  0.00  0.00    +0.145 C 
ATOM     24  C   UNL     1      35.491 -20.924 -19.847  0.00  0.00    +0.039 C 
ATOM     25  C   UNL     1      33.534 -19.989 -20.910  0.00  0.00    +0.039 C 
BRANCH  23  26
ATOM     26  O   UNL     1      35.693 -19.699 -21.885  0.00  0.00    -0.453 OA
BRANCH  26  27
ATOM     27  C   UNL     1      35.251 -18.561 -22.538  0.00  0.00    +0.145 C 
ATOM     28  C   UNL     1      34.541 -18.695 -23.719  0.00  0.00    +0.037 C 
ATOM     29  C   UNL     1      35.531 -17.320 -21.995  0.00  0.00    +0.037 C 
ATOM     30  C   UNL     1      34.097 -17.548 -24.378  0.00  0.00    +0.003 C 
ATOM     31  C   UNL     1      35.087 -16.174 -22.654  0.00  0.00    +0.003 C 
ATOM     32  C   UNL     1      34.370 -16.288 -23.845  0.00  0.00    +0.000 C 
ENDBRANCH  26  27
ENDBRANCH  23  26
ENDBRANCH   2  20
TORSDOF 6
ENDMDL
MODEL 3
REMARK VINA RESULT:     -10.4      1.637      4.702
REMARK  Name = 16040289
REMARK  6 active torsions:
REMARK  status: ('A' for Active; 'I' for Inactive)
REMARK    1  A    between atoms: N_2  and  C_20
REMARK    2  A    between atoms: C_3  and  C_6
REMARK    3  A    between atoms: N_11  and  C_13
REMARK    4  A    between atoms: C_13  and  C_15
REMARK    5  A    between atoms: C_23  and  O_26
REMARK    6  A    between atoms: O_26  and  C_27
REMARK                            x       y       z     vdW  Elec       q    Type
REMARK                         _______ _______ _______ _____ _____    ______ ____
ROOT
ATOM      1  O   UNL     1      34.470 -22.035 -18.308  0.00  0.00    -0.270 OA
ATOM      2  N   UNL     1      36.385 -20.747 -18.754  0.00  0.00    -0.280 N 
ATOM      3  C   UNL     1      35.605 -21.660 -18.034  0.00  0.00    +0.252 C 
ATOM      4  H   UNL     1      37.280 -20.561 -18.387  0.00  0.00    +0.155 HD
ENDROOT
BRANCH   3   6
ATOM      5  N   UNL     1      36.038 -23.343 -14.707  0.00  0.00    -0.229 NA
ATOM      6  C   UNL     1      36.231 -22.198 -16.798  0.00  0.00    +0.085 C 
ATOM      7  C   UNL     1      35.495 -22.845 -15.841  0.00  0.00    +0.133 C 
ATOM      8  C   UNL     1      37.587 -22.032 -16.629  0.00  0.00    +0.009 C 
ATOM      9  C   UNL     1      38.182 -22.531 -15.476  0.00  0.00    +0.021 C 
ATOM     10  C   UNL     1      37.371 -23.173 -14.554  0.00  0.00    +0.100 C 
ATOM     11  N   UNL     1      34.100 -23.008 -16.031  0.00  0.00    -0.314 N 
ATOM     12  H   UNL     1      33.691 -22.651 -16.853  0.00  0.00    +0.149 HD
BRANCH  11  13
ATOM     13  C   UNL     1      33.266 -23.669 -15.081  0.00  0.00    +0.115 C 
BRANCH  13  15
ATOM     14  N   UNL     1      29.205 -22.359 -15.488  0.00  0.00    -0.242 NA
ATOM     15  C   UNL     1      31.840 -23.210 -15.223  0.00  0.00    +0.000 C 
ATOM     16  C   UNL     1      31.051 -23.064 -14.096  0.00  0.00    +0.018 C 
ATOM     17  C   UNL     1      31.332 -22.937 -16.482  0.00  0.00    +0.018 C 
ATOM     18  C   UNL     1      29.747 -22.638 -14.280  0.00  0.00    +0.099 C 
ATOM     19  C   UNL     1      30.014 -22.516 -16.560  0.00  0.00    +0.099 C 
ENDBRANCH  13  15
ENDBRANCH  11  13
ENDBRANCH   3   6
BRANCH   2  20
ATOM     20  C   UNL     1      36.051 -20.068 -19.926  0.00  0.00    +0.051 C 
ATOM     21  C   UNL     1      37.011 -19.300 -20.585  0.00  0.00    +0.018 C 
ATOM     22  C   UNL     1      34.757 -20.158 -20.439  0.00  0.00    +0.018 C 
ATOM     23  C   UNL     1      35.383 -18.711 -22.271  0.00  0.00    +0.145 C 
ATOM     24  C   UNL     1      36.676 -18.622 -21.758  0.00  0.00    +0.039 C 
ATOM     25  C   UNL     1      34.423 -19.480 -21.612  0.00  0.00    +0.039 C 
BRANCH  23  26
ATOM     26  O   UNL     1      35.056 -18.048 -23.413  0.00  0.00    -0.453 OA
BRANCH  26  27
ATOM     27  C   UNL     1      34.703 -16.714 -23.305  0.00  0.00    +0.145 C 
ATOM     28  C   UNL     1      34.101 -16.087 -24.382  0.00  0.00    +0.037 C 
ATOM     29  C   UNL     1      34.960 -16.042 -22.124  0.00  0.00    +0.037 C 
ATOM     30  C   UNL     1      33.746 -14.742 -24.273  0.00  0.00    +0.003 C 
ATOM     31  C   UNL     1      34.605 -14.697 -22.015  0.00  0.00    +0.003 C 
ATOM     32  C   UNL     1      33.998 -14.048 -23.090  0.00  0.00    +0.000 C 
ENDBRANCH  26  27
ENDBRANCH  23  26
ENDBRANCH   2  20
TORSDOF 6
ENDMDL
MODEL 4
REMARK VINA RESULT:     -10.1      1.591      4.717
REMARK  Name = 16040289
REMARK  6 active torsions:
REMARK  status: ('A' for Active; 'I' for Inactive)
REMARK    1  A    between atoms: N_2  and  C_20
REMARK    2  A    between atoms: C_3  and  C_6
REMARK    3  A    between atoms: N_11  and  C_13
REMARK    4  A    between atoms: C_13  and  C_15
REMARK    5  A    between atoms: C_23  and  O_26
REMARK    6  A    between atoms: O_26  and  C_27
REMARK                            x       y       z     vdW  Elec       q    Type
REMARK                         _______ _______ _______ _____ _____    ______ ____
ROOT
ATOM      1  O   UNL     1      33.417 -23.827 -17.412  0.00  0.00    -0.270 OA
ATOM      2  N   UNL     1      34.945 -22.052 -17.206  0.00  0.00    -0.280 N 
ATOM      3  C   UNL     1      34.211 -23.158 -16.758  0.00  0.00    +0.252 C 
ATOM      4  H   UNL     1      35.538 -21.632 -16.542  0.00  0.00    +0.155 HD
ENDROOT
BRANCH   3   6
ATOM      5  N   UNL     1      33.525 -23.902 -13.144  0.00  0.00    -0.229 NA
ATOM      6  C   UNL     1      34.413 -23.524 -15.332  0.00  0.00    +0.085 C 
ATOM      7  C   UNL     1      33.369 -23.574 -14.447  0.00  0.00    +0.133 C 
ATOM      8  C   UNL     1      35.690 -23.814 -14.909  0.00  0.00    +0.009 C 
ATOM      9  C   UNL     1      35.890 -24.157 -13.576  0.00  0.00    +0.021 C 
ATOM     10  C   UNL     1      34.784 -24.186 -12.742  0.00  0.00    +0.100 C 
ATOM     11  N   UNL     1      32.060 -23.273 -14.900  0.00  0.00    -0.314 N 
ATOM     12  H   UNL     1      31.932 -23.033 -15.846  0.00  0.00    +0.149 HD
BRANCH  11  13
ATOM     13  C   UNL     1      30.923 -23.303 -14.040  0.00  0.00    +0.115 C 
BRANCH  13  15
ATOM     14  N   UNL     1      27.307 -23.273 -16.341  0.00  0.00    -0.242 NA
ATOM     15  C   UNL     1      29.653 -23.292 -14.847  0.00  0.00    +0.000 C 
ATOM     16  C   UNL     1      28.755 -22.250 -14.698  0.00  0.00    +0.018 C 
ATOM     17  C   UNL     1      29.396 -24.326 -15.732  0.00  0.00    +0.018 C 
ATOM     18  C   UNL     1      27.602 -22.287 -15.464  0.00  0.00    +0.099 C 
ATOM     19  C   UNL     1      28.214 -24.269 -16.453  0.00  0.00    +0.099 C 
ENDBRANCH  13  15
ENDBRANCH  11  13
ENDBRANCH   3   6
BRANCH   2  20
ATOM     20  C   UNL     1      34.938 -21.472 -18.474  0.00  0.00    +0.051 C 
ATOM     21  C   UNL     1      33.729 -21.129 -19.079  0.00  0.00    +0.018 C 
ATOM     22  C   UNL     1      36.142 -21.236 -19.138  0.00  0.00    +0.018 C 
ATOM     23  C   UNL     1      34.927 -20.313 -21.012  0.00  0.00    +0.145 C 
ATOM     24  C   UNL     1      33.723 -20.549 -20.348  0.00  0.00    +0.039 C 
ATOM     25  C   UNL     1      36.136 -20.655 -20.407  0.00  0.00    +0.039 C 
BRANCH  23  26
ATOM     26  O   UNL     1      34.921 -19.749 -22.250  0.00  0.00    -0.453 OA
BRANCH  26  27
ATOM     27  C   UNL     1      34.929 -18.367 -22.329  0.00  0.00    +0.145 C 
ATOM     28  C   UNL     1      34.682 -17.760 -23.547  0.00  0.00    +0.037 C 
ATOM     29  C   UNL     1      35.185 -17.628 -21.188  0.00  0.00    +0.037 C 
ATOM     30  C   UNL     1      34.691 -16.367 -23.627  0.00  0.00    +0.003 C 
ATOM     31  C   UNL     1      35.194 -16.235 -21.267  0.00  0.00    +0.003 C 
ATOM     32  C   UNL     1      34.947 -15.605 -22.487  0.00  0.00    +0.000 C 
ENDBRANCH  26  27
ENDBRANCH  23  26
ENDBRANCH   2  20
TORSDOF 6
ENDMDL
MODEL 5
REMARK VINA RESULT:      -9.9      8.996     14.978
REMARK  Name = 16040289
REMARK  6 active torsions:
REMARK  status: ('A' for Active; 'I' for Inactive)
REMARK    1  A    between atoms: N_2  and  C_20
REMARK    2  A    between atoms: C_3  and  C_6
REMARK    3  A    between atoms: N_11  and  C_13
REMARK    4  A    between atoms: C_13  and  C_15
REMARK    5  A    between atoms: C_23  and  O_26
REMARK    6  A    between atoms: O_26  and  C_27
REMARK                            x       y       z     vdW  Elec       q    Type
REMARK                         _______ _______ _______ _____ _____    ______ ____
ROOT
ATOM      1  O   UNL     1      30.747 -10.088 -22.023  0.00  0.00    -0.270 OA
ATOM      2  N   UNL     1      33.068 -10.168 -22.388  0.00  0.00    -0.280 N 
ATOM      3  C   UNL     1      31.871  -9.607 -21.926  0.00  0.00    +0.252 C 
ATOM      4  H   UNL     1      33.884  -9.641 -22.223  0.00  0.00    +0.155 HD
ENDROOT
BRANCH   3   6
ATOM      5  N   UNL     1      31.916  -5.890 -21.405  0.00  0.00    -0.229 NA
ATOM      6  C   UNL     1      32.000  -8.277 -21.275  0.00  0.00    +0.085 C 
ATOM      7  C   UNL     1      31.804  -7.113 -21.971  0.00  0.00    +0.133 C 
ATOM      8  C   UNL     1      32.325  -8.234 -19.939  0.00  0.00    +0.009 C 
ATOM      9  C   UNL     1      32.449  -6.994 -19.321  0.00  0.00    +0.021 C 
ATOM     10  C   UNL     1      32.236  -5.862 -20.092  0.00  0.00    +0.100 C 
ATOM     11  N   UNL     1      31.469  -7.175 -23.347  0.00  0.00    -0.314 N 
ATOM     12  H   UNL     1      31.383  -8.059 -23.772  0.00  0.00    +0.149 HD
BRANCH  11  13
ATOM     13  C   UNL     1      31.250  -6.010 -24.139  0.00  0.00    +0.115 C 
BRANCH  13  15
ATOM     14  N   UNL     1      34.919  -4.695 -25.922  0.00  0.00    -0.242 NA
ATOM     15  C   UNL     1      32.538  -5.548 -24.764  0.00  0.00    +0.000 C 
ATOM     16  C   UNL     1      33.745  -5.916 -24.197  0.00  0.00    +0.018 C 
ATOM     17  C   UNL     1      32.502  -4.760 -25.901  0.00  0.00    +0.018 C 
ATOM     18  C   UNL     1      34.902  -5.466 -24.811  0.00  0.00    +0.099 C 
ATOM     19  C   UNL     1      33.716  -4.361 -26.440  0.00  0.00    +0.099 C 
ENDBRANCH  13  15
ENDBRANCH  11  13
ENDBRANCH   3   6
BRANCH   2  20
ATOM     20  C   UNL     1      33.248 -11.381 -23.053  0.00  0.00    +0.051 C 
ATOM     21  C   UNL     1      33.034 -12.584 -22.380  0.00  0.00    +0.018 C 
ATOM     22  C   UNL     1      33.644 -11.390 -24.390  0.00  0.00    +0.018 C 
ATOM     23  C   UNL     1      33.610 -13.807 -24.383  0.00  0.00    +0.145 C 
ATOM     24  C   UNL     1      33.214 -13.797 -23.046  0.00  0.00    +0.039 C 
ATOM     25  C   UNL     1      33.824 -12.604 -25.056  0.00  0.00    +0.039 C 
BRANCH  23  26
ATOM     26  O   UNL     1      33.788 -14.990 -25.031  0.00  0.00    -0.453 OA
BRANCH  26  27
ATOM     27  C   UNL     1      34.227 -16.072 -24.288  0.00  0.00    +0.145 C 
ATOM     28  C   UNL     1      33.781 -17.340 -24.616  0.00  0.00    +0.037 C 
ATOM     29  C   UNL     1      35.100 -15.858 -23.237  0.00  0.00    +0.037 C 
ATOM     30  C   UNL     1      34.223 -18.431 -23.867  0.00  0.00    +0.003 C 
ATOM     31  C   UNL     1      35.542 -16.949 -22.487  0.00  0.00    +0.003 C 
ATOM     32  C   UNL     1      35.103 -18.235 -22.803  0.00  0.00    +0.000 C 
ENDBRANCH  26  27
ENDBRANCH  23  26
ENDBRANCH   2  20
TORSDOF 6
ENDMDL
MODEL 6
REMARK VINA RESULT:      -9.8      8.995     14.971
REMARK  Name = 16040289
REMARK  6 active torsions:
REMARK  status: ('A' for Active; 'I' for Inactive)
REMARK    1  A    between atoms: N_2  and  C_20
REMARK    2  A    between atoms: C_3  and  C_6
REMARK    3  A    between atoms: N_11  and  C_13
REMARK    4  A    between atoms: C_13  and  C_15
REMARK    5  A    between atoms: C_23  and  O_26
REMARK    6  A    between atoms: O_26  and  C_27
REMARK                            x       y       z     vdW  Elec       q    Type
REMARK                         _______ _______ _______ _____ _____    ______ ____
ROOT
ATOM      1  O   UNL     1      30.742 -10.035 -22.088  0.00  0.00    -0.270 OA
ATOM      2  N   UNL     1      33.072 -10.159 -22.375  0.00  0.00    -0.280 N 
ATOM      3  C   UNL     1      31.871  -9.577 -21.950  0.00  0.00    +0.252 C 
ATOM      4  H   UNL     1      33.892  -9.649 -22.180  0.00  0.00    +0.155 HD
ENDROOT
BRANCH   3   6
ATOM      5  N   UNL     1      31.927  -5.865 -21.397  0.00  0.00    -0.229 NA
ATOM      6  C   UNL     1      32.004  -8.253 -21.288  0.00  0.00    +0.085 C 
ATOM      7  C   UNL     1      31.811  -7.082 -21.973  0.00  0.00    +0.133 C 
ATOM      8  C   UNL     1      32.330  -8.223 -19.951  0.00  0.00    +0.009 C 
ATOM      9  C   UNL     1      32.458  -6.989 -19.322  0.00  0.00    +0.021 C 
ATOM     10  C   UNL     1      32.248  -5.849 -20.083  0.00  0.00    +0.100 C 
ATOM     11  N   UNL     1      31.475  -7.132 -23.349  0.00  0.00    -0.314 N 
ATOM     12  H   UNL     1      31.387  -8.012 -23.782  0.00  0.00    +0.149 HD
BRANCH  11  13
ATOM     13  C   UNL     1      31.259  -5.959 -24.131  0.00  0.00    +0.115 C 
BRANCH  13  15
ATOM     14  N   UNL     1      34.917  -4.686 -25.966  0.00  0.00    -0.242 NA
ATOM     15  C   UNL     1      32.543  -5.512 -24.776  0.00  0.00    +0.000 C 
ATOM     16  C   UNL     1      32.501  -4.743 -25.925  0.00  0.00    +0.018 C 
ATOM     17  C   UNL     1      33.754  -5.875 -24.212  0.00  0.00    +0.018 C 
ATOM     18  C   UNL     1      33.710  -4.357 -26.479  0.00  0.00    +0.099 C 
ATOM     19  C   UNL     1      34.908  -5.438 -24.843  0.00  0.00    +0.099 C 
ENDBRANCH  13  15
ENDBRANCH  11  13
ENDBRANCH   3   6
BRANCH   2  20
ATOM     20  C   UNL     1      33.251 -11.372 -23.040  0.00  0.00    +0.051 C 
ATOM     21  C   UNL     1      33.639 -11.383 -24.380  0.00  0.00    +0.018 C 
ATOM     22  C   UNL     1      33.040 -12.575 -22.365  0.00  0.00    +0.018 C 
ATOM     23  C   UNL     1      33.607 -13.799 -24.370  0.00  0.00    +0.145 C 
ATOM     24  C   UNL     1      33.818 -12.597 -25.044  0.00  0.00    +0.039 C 
ATOM     25  C   UNL     1      33.218 -13.788 -23.030  0.00  0.00    +0.039 C 
BRANCH  23  26
ATOM     26  O   UNL     1      33.779 -14.983 -25.019  0.00  0.00    -0.453 OA
BRANCH  26  27
ATOM     27  C   UNL     1      34.221 -16.065 -24.277  0.00  0.00    +0.145 C 
ATOM     28  C   UNL     1      33.782 -17.335 -24.611  0.00  0.00    +0.037 C 
ATOM     29  C   UNL     1      35.088 -15.851 -23.221  0.00  0.00    +0.037 C 
ATOM     30  C   UNL     1      34.226 -18.425 -23.863  0.00  0.00    +0.003 C 
ATOM     31  C   UNL     1      35.532 -16.942 -22.474  0.00  0.00    +0.003 C 
ATOM     32  C   UNL     1      35.101 -18.228 -22.795  0.00  0.00    +0.000 C 
ENDBRANCH  26  27
ENDBRANCH  23  26
ENDBRANCH   2  20
TORSDOF 6
ENDMDL
MODEL 7
REMARK VINA RESULT:      -9.8      5.906     11.966
REMARK  Name = 16040289
REMARK  6 active torsions:
REMARK  status: ('A' for Active; 'I' for Inactive)
REMARK    1  A    between atoms: N_2  and  C_20
REMARK    2  A    between atoms: C_3  and  C_6
REMARK    3  A    between atoms: N_11  and  C_13
REMARK    4  A    between atoms: C_13  and  C_15
REMARK    5  A    between atoms: C_23  and  O_26
REMARK    6  A    between atoms: O_26  and  C_27
REMARK                            x       y       z     vdW  Elec       q    Type
REMARK                         _______ _______ _______ _____ _____    ______ ____
ROOT
ATOM      1  O   UNL     1      33.342 -13.792 -21.254  0.00  0.00    -0.270 OA
ATOM      2  N   UNL     1      34.574 -14.689 -23.044  0.00  0.00    -0.280 N 
ATOM      3  C   UNL     1      33.849 -13.701 -22.367  0.00  0.00    +0.252 C 
ATOM      4  H   UNL     1      34.910 -14.443 -23.936  0.00  0.00    +0.155 HD
ENDROOT
BRANCH   3   6
ATOM      5  N   UNL     1      32.536 -10.335 -23.386  0.00  0.00    -0.229 NA
ATOM      6  C   UNL     1      33.665 -12.425 -23.108  0.00  0.00    +0.085 C 
ATOM      7  C   UNL     1      32.726 -11.502 -22.730  0.00  0.00    +0.133 C 
ATOM      8  C   UNL     1      34.467 -12.184 -24.199  0.00  0.00    +0.009 C 
ATOM      9  C   UNL     1      34.303 -10.994 -24.900  0.00  0.00    +0.021 C 
ATOM     10  C   UNL     1      33.331 -10.111 -24.456  0.00  0.00    +0.100 C 
ATOM     11  N   UNL     1      31.908 -11.766 -21.603  0.00  0.00    -0.314 N 
ATOM     12  H   UNL     1      32.036 -12.612 -21.114  0.00  0.00    +0.149 HD
BRANCH  11  13
ATOM     13  C   UNL     1      30.909 -10.856 -21.147  0.00  0.00    +0.115 C 
BRANCH  13  15
ATOM     14  N   UNL     1      32.713  -7.564 -19.079  0.00  0.00    -0.242 NA
ATOM     15  C   UNL     1      31.542  -9.701 -20.420  0.00  0.00    +0.000 C 
ATOM     16  C   UNL     1      31.896  -9.839 -19.089  0.00  0.00    +0.018 C 
ATOM     17  C   UNL     1      31.765  -8.510 -21.091  0.00  0.00    +0.018 C 
ATOM     18  C   UNL     1      32.476  -8.746 -18.466  0.00  0.00    +0.099 C 
ATOM     19  C   UNL     1      32.352  -7.476 -20.378  0.00  0.00    +0.099 C 
ENDBRANCH  13  15
ENDBRANCH  11  13
ENDBRANCH   3   6
BRANCH   2  20
ATOM     20  C   UNL     1      34.879 -15.979 -22.611  0.00  0.00    +0.051 C 
ATOM     21  C   UNL     1      34.833 -17.046 -23.508  0.00  0.00    +0.018 C 
ATOM     22  C   UNL     1      35.230 -16.202 -21.279  0.00  0.00    +0.018 C 
ATOM     23  C   UNL     1      35.490 -18.560 -21.743  0.00  0.00    +0.145 C 
ATOM     24  C   UNL     1      35.139 -18.337 -23.074  0.00  0.00    +0.039 C 
ATOM     25  C   UNL     1      35.535 -17.493 -20.845  0.00  0.00    +0.039 C 
BRANCH  23  26
ATOM     26  O   UNL     1      35.786 -19.819 -21.319  0.00  0.00    -0.453 OA
BRANCH  26  27
ATOM     27  C   UNL     1      34.919 -20.416 -20.420  0.00  0.00    +0.145 C 
ATOM     28  C   UNL     1      35.433 -21.245 -19.438  0.00  0.00    +0.037 C 
ATOM     29  C   UNL     1      33.562 -20.169 -20.525  0.00  0.00    +0.037 C 
ATOM     30  C   UNL     1      34.559 -21.848 -18.532  0.00  0.00    +0.003 C 
ATOM     31  C   UNL     1      32.688 -20.772 -19.620  0.00  0.00    +0.003 C 
ATOM     32  C   UNL     1      33.188 -21.611 -18.623  0.00  0.00    +0.000 C 
ENDBRANCH  26  27
ENDBRANCH  23  26
ENDBRANCH   2  20
TORSDOF 6
ENDMDL
MODEL 8
REMARK VINA RESULT:      -9.8      1.749      4.693
REMARK  Name = 16040289
REMARK  6 active torsions:
REMARK  status: ('A' for Active; 'I' for Inactive)
REMARK    1  A    between atoms: N_2  and  C_20
REMARK    2  A    between atoms: C_3  and  C_6
REMARK    3  A    between atoms: N_11  and  C_13
REMARK    4  A    between atoms: C_13  and  C_15
REMARK    5  A    between atoms: C_23  and  O_26
REMARK    6  A    between atoms: O_26  and  C_27
REMARK                            x       y       z     vdW  Elec       q    Type
REMARK                         _______ _______ _______ _____ _____    ______ ____
ROOT
ATOM      1  O   UNL     1      37.056 -21.504 -15.730  0.00  0.00    -0.270 OA
ATOM      2  N   UNL     1      35.307 -22.901 -16.448  0.00  0.00    -0.280 N 
ATOM      3  C   UNL     1      36.367 -22.512 -15.619  0.00  0.00    +0.252 C 
ATOM      4  H   UNL     1      34.861 -23.746 -16.210  0.00  0.00    +0.155 HD
ENDROOT
BRANCH   3   6
ATOM      5  N   UNL     1      35.996 -24.724 -12.609  0.00  0.00    -0.229 NA
ATOM      6  C   UNL     1      36.688 -23.450 -14.511  0.00  0.00    +0.085 C 
ATOM      7  C   UNL     1      35.732 -23.873 -13.626  0.00  0.00    +0.133 C 
ATOM      8  C   UNL     1      37.984 -23.894 -14.389  0.00  0.00    +0.009 C 
ATOM      9  C   UNL     1      38.296 -24.771 -13.356  0.00  0.00    +0.021 C 
ATOM     10  C   UNL     1      37.274 -25.152 -12.500  0.00  0.00    +0.100 C 
ATOM     11  N   UNL     1      34.401 -23.406 -13.767  0.00  0.00    -0.314 N 
ATOM     12  H   UNL     1      34.193 -22.787 -14.504  0.00  0.00    +0.149 HD
BRANCH  11  13
ATOM     13  C   UNL     1      33.350 -23.800 -12.886  0.00  0.00    +0.115 C 
BRANCH  13  15
ATOM     14  N   UNL     1      29.678 -24.269 -15.046  0.00  0.00    -0.242 NA
ATOM     15  C   UNL     1      32.061 -23.963 -13.645  0.00  0.00    +0.000 C 
ATOM     16  C   UNL     1      31.749 -23.083 -14.665  0.00  0.00    +0.018 C 
ATOM     17  C   UNL     1      31.199 -24.995 -13.313  0.00  0.00    +0.018 C 
ATOM     18  C   UNL     1      30.551 -23.277 -15.333  0.00  0.00    +0.099 C 
ATOM     19  C   UNL     1      30.026 -25.105 -14.042  0.00  0.00    +0.099 C 
ENDBRANCH  13  15
ENDBRANCH  11  13
ENDBRANCH   3   6
BRANCH   2  20
ATOM     20  C   UNL     1      34.804 -22.238 -17.568  0.00  0.00    +0.051 C 
ATOM     21  C   UNL     1      35.677 -21.750 -18.539  0.00  0.00    +0.018 C 
ATOM     22  C   UNL     1      33.428 -22.065 -17.715  0.00  0.00    +0.018 C 
ATOM     23  C   UNL     1      33.798 -20.913 -19.807  0.00  0.00    +0.145 C 
ATOM     24  C   UNL     1      35.174 -21.087 -19.660  0.00  0.00    +0.039 C 
ATOM     25  C   UNL     1      32.925 -21.402 -18.836  0.00  0.00    +0.039 C 
BRANCH  23  26
ATOM     26  O   UNL     1      33.307 -20.266 -20.899  0.00  0.00    -0.453 OA
BRANCH  26  27
ATOM     27  C   UNL     1      34.141 -19.369 -21.544  0.00  0.00    +0.145 C 
ATOM     28  C   UNL     1      34.070 -19.255 -22.922  0.00  0.00    +0.037 C 
ATOM     29  C   UNL     1      35.023 -18.610 -20.797  0.00  0.00    +0.037 C 
ATOM     30  C   UNL     1      34.911 -18.351 -23.573  0.00  0.00    +0.003 C 
ATOM     31  C   UNL     1      35.864 -17.707 -21.448  0.00  0.00    +0.003 C 
ATOM     32  C   UNL     1      35.807 -17.578 -22.835  0.00  0.00    +0.000 C 
ENDBRANCH  26  27
ENDBRANCH  23  26
ENDBRANCH   2  20
TORSDOF 6
ENDMDL
MODEL 9
REMARK VINA RESULT:      -9.6      2.075      5.151
REMARK  Name = 16040289
REMARK  6 active torsions:
REMARK  status: ('A' for Active; 'I' for Inactive)
REMARK    1  A    between atoms: N_2  and  C_20
REMARK    2  A    between atoms: C_3  and  C_6
REMARK    3  A    between atoms: N_11  and  C_13
REMARK    4  A    between atoms: C_13  and  C_15
REMARK    5  A    between atoms: C_23  and  O_26
REMARK    6  A    between atoms: O_26  and  C_27
REMARK                            x       y       z     vdW  Elec       q    Type
REMARK                         _______ _______ _______ _____ _____    ______ ____
ROOT
ATOM      1  O   UNL     1      36.955 -24.690 -15.173  0.00  0.00    -0.270 OA
ATOM      2  N   UNL     1      35.505 -22.840 -15.116  0.00  0.00    -0.280 N 
ATOM      3  C   UNL     1      36.254 -23.887 -14.565  0.00  0.00    +0.252 C 
ATOM      4  H   UNL     1      34.997 -22.290 -14.476  0.00  0.00    +0.155 HD
ENDROOT
BRANCH   3   6
ATOM      5  N   UNL     1      34.833 -24.434 -11.135  0.00  0.00    -0.229 NA
ATOM      6  C   UNL     1      36.151 -24.038 -13.090  0.00  0.00    +0.085 C 
ATOM      7  C   UNL     1      34.955 -24.294 -12.474  0.00  0.00    +0.133 C 
ATOM      8  C   UNL     1      37.299 -23.913 -12.341  0.00  0.00    +0.009 C 
ATOM      9  C   UNL     1      37.214 -24.052 -10.960  0.00  0.00    +0.021 C 
ATOM     10  C   UNL     1      35.968 -24.309 -10.411  0.00  0.00    +0.100 C 
ATOM     11  N   UNL     1      33.783 -24.420 -13.261  0.00  0.00    -0.314 N 
ATOM     12  H   UNL     1      33.857 -24.322 -14.238  0.00  0.00    +0.149 HD
BRANCH  11  13
ATOM     13  C   UNL     1      32.501 -24.686 -12.694  0.00  0.00    +0.115 C 
BRANCH  13  15
ATOM     14  N   UNL     1      29.399 -23.760 -15.502  0.00  0.00    -0.242 NA
ATOM     15  C   UNL     1      31.412 -24.360 -13.680  0.00  0.00    +0.000 C 
ATOM     16  C   UNL     1      31.498 -23.207 -14.440  0.00  0.00    +0.018 C 
ATOM     17  C   UNL     1      30.334 -25.218 -13.817  0.00  0.00    +0.018 C 
ATOM     18  C   UNL     1      30.470 -22.953 -15.333  0.00  0.00    +0.099 C 
ATOM     19  C   UNL     1      29.358 -24.874 -14.739  0.00  0.00    +0.099 C 
ENDBRANCH  13  15
ENDBRANCH  11  13
ENDBRANCH   3   6
BRANCH   2  20
ATOM     20  C   UNL     1      35.390 -22.479 -16.459  0.00  0.00    +0.051 C 
ATOM     21  C   UNL     1      36.465 -21.879 -17.114  0.00  0.00    +0.018 C 
ATOM     22  C   UNL     1      34.199 -22.718 -17.145  0.00  0.00    +0.018 C 
ATOM     23  C   UNL     1      35.159 -21.757 -19.144  0.00  0.00    +0.145 C 
ATOM     24  C   UNL     1      36.349 -21.518 -18.457  0.00  0.00    +0.039 C 
ATOM     25  C   UNL     1      34.084 -22.357 -18.488  0.00  0.00    +0.039 C 
BRANCH  23  26
ATOM     26  O   UNL     1      35.046 -21.403 -20.453  0.00  0.00    -0.453 OA
BRANCH  26  27
ATOM     27  C   UNL     1      35.427 -20.121 -20.809  0.00  0.00    +0.145 C 
ATOM     28  C   UNL     1      36.640 -19.629 -20.360  0.00  0.00    +0.037 C 
ATOM     29  C   UNL     1      34.585 -19.363 -21.603  0.00  0.00    +0.037 C 
ATOM     30  C   UNL     1      37.023 -18.336 -20.718  0.00  0.00    +0.003 C 
ATOM     31  C   UNL     1      34.969 -18.070 -21.961  0.00  0.00    +0.003 C 
ATOM     32  C   UNL     1      36.188 -17.558 -21.518  0.00  0.00    +0.000 C 
ENDBRANCH  26  27
ENDBRANCH  23  26
ENDBRANCH   2  20
TORSDOF 6
ENDMDL
