MODEL 1
REMARK VINA RESULT:     -11.4      0.000      0.000
REMARK  Name = 5326930
REMARK  4 active torsions:
REMARK  status: ('A' for Active; 'I' for Inactive)
REMARK    1  A    between atoms: C_7  and  C_21
REMARK    2  A    between atoms: C_21  and  C_22
REMARK    3  A    between atoms: C_22  and  C_23
REMARK    4  A    between atoms: C_28  and  O_29
REMARK                            x       y       z     vdW  Elec       q    Type
REMARK                         _______ _______ _______ _____ _____    ______ ____
ROOT
ATOM      1  O   UNL     1      34.605 -24.664 -11.668  0.00  0.00    -0.209 OA
ATOM      2  N   UNL     1      34.580 -22.810 -15.219  0.00  0.00    -0.275 N 
ATOM      3  N   UNL     1      29.785 -25.058 -13.725  0.00  0.00    -0.315 N 
ATOM      4  N   UNL     1      29.804 -24.021 -15.690  0.00  0.00    -0.316 N 
ATOM      5  N   UNL     1      35.751 -23.480 -13.258  0.00  0.00    -0.302 NA
ATOM      6  N   UNL     1      36.793 -22.264 -14.969  0.00  0.00    -0.320 N 
ATOM      7  C   UNL     1      32.227 -23.337 -15.585  0.00  0.00    +0.007 C 
ATOM      8  C   UNL     1      33.384 -23.399 -14.793  0.00  0.00    +0.060 C 
ATOM      9  C   UNL     1      31.050 -23.944 -15.112  0.00  0.00    +0.056 C 
ATOM     10  C   UNL     1      31.065 -24.587 -13.878  0.00  0.00    +0.060 C 
ATOM     11  C   UNL     1      33.360 -24.057 -13.554  0.00  0.00    +0.109 C 
ATOM     12  C   UNL     1      32.196 -24.668 -13.064  0.00  0.00    +0.029 C 
ATOM     13  C   UNL     1      34.618 -24.091 -12.753  0.00  0.00    +0.208 C 
ATOM     14  C   UNL     1      29.072 -24.695 -14.832  0.00  0.00    +0.182 C 
ATOM     15  C   UNL     1      35.699 -22.886 -14.421  0.00  0.00    +0.248 C 
ATOM     16  H   UNL     1      34.620 -22.344 -16.085  0.00  0.00    +0.156 HD
ATOM     17  H   UNL     1      29.444 -25.567 -12.955  0.00  0.00    +0.148 HD
ATOM     18  H   UNL     1      29.522 -23.651 -16.558  0.00  0.00    +0.148 HD
ATOM     19  H   UNL     1      36.721 -21.825 -15.847  0.00  0.00    +0.146 HD
ATOM     20  H   UNL     1      37.649 -22.257 -14.483  0.00  0.00    +0.146 HD
ENDROOT
BRANCH   7  21
ATOM     21  C   UNL     1      32.247 -22.638 -16.908  0.00  0.00    +0.034 C 
BRANCH  21  22
ATOM     22  C   UNL     1      33.365 -23.117 -17.851  0.00  0.00    +0.031 C 
BRANCH  22  23
ATOM     23  C   UNL     1      33.919 -22.020 -18.725  0.00  0.00    -0.022 C 
ATOM     24  C   UNL     1      35.291 -21.856 -18.824  0.00  0.00    -0.001 C 
ATOM     25  C   UNL     1      33.045 -21.194 -19.413  0.00  0.00    -0.001 C 
ATOM     26  C   UNL     1      35.804 -20.842 -19.632  0.00  0.00    +0.037 C 
ATOM     27  C   UNL     1      33.557 -20.178 -20.222  0.00  0.00    +0.037 C 
ATOM     28  C   UNL     1      34.936 -20.002 -20.331  0.00  0.00    +0.139 C 
BRANCH  28  29
ATOM     29  O   UNL     1      35.436 -19.012 -21.119  0.00  0.00    -0.471 OA
ATOM     30  C   UNL     1      36.817 -18.691 -20.964  0.00  0.00    +0.252 C 
ENDBRANCH  28  29
ENDBRANCH  22  23
ENDBRANCH  21  22
ENDBRANCH   7  21
TORSDOF 4
ENDMDL
MODEL 2
REMARK VINA RESULT:     -11.1      1.744      4.218
REMARK  Name = 5326930
REMARK  4 active torsions:
REMARK  status: ('A' for Active; 'I' for Inactive)
REMARK    1  A    between atoms: C_7  and  C_21
REMARK    2  A    between atoms: C_21  and  C_22
REMARK    3  A    between atoms: C_22  and  C_23
REMARK    4  A    between atoms: C_28  and  O_29
REMARK                            x       y       z     vdW  Elec       q    Type
REMARK                         _______ _______ _______ _____ _____    ______ ____
ROOT
ATOM      1  O   UNL     1      28.609 -25.366 -13.593  0.00  0.00    -0.209 OA
ATOM      2  N   UNL     1      29.710 -22.987 -16.622  0.00  0.00    -0.275 N 
ATOM      3  N   UNL     1      33.811 -24.658 -13.357  0.00  0.00    -0.315 N 
ATOM      4  N   UNL     1      34.389 -23.338 -15.048  0.00  0.00    -0.316 N 
ATOM      5  N   UNL     1      28.003 -24.139 -15.430  0.00  0.00    -0.302 NA
ATOM      6  N   UNL     1      27.532 -22.846 -17.326  0.00  0.00    -0.320 N 
ATOM      7  C   UNL     1      32.056 -23.069 -15.961  0.00  0.00    +0.007 C 
ATOM      8  C   UNL     1      30.716 -23.439 -15.762  0.00  0.00    +0.060 C 
ATOM      9  C   UNL     1      33.030 -23.551 -15.069  0.00  0.00    +0.056 C 
ATOM     10  C   UNL     1      32.641 -24.376 -14.018  0.00  0.00    +0.060 C 
ATOM     11  C   UNL     1      30.364 -24.274 -14.691  0.00  0.00    +0.109 C 
ATOM     12  C   UNL     1      31.321 -24.764 -13.790  0.00  0.00    +0.029 C 
ATOM     13  C   UNL     1      28.926 -24.635 -14.528  0.00  0.00    +0.208 C 
ATOM     14  C   UNL     1      34.825 -24.015 -14.010  0.00  0.00    +0.182 C 
ATOM     15  C   UNL     1      28.405 -23.366 -16.403  0.00  0.00    +0.248 C 
ATOM     16  H   UNL     1      29.935 -22.400 -17.380  0.00  0.00    +0.156 HD
ATOM     17  H   UNL     1      33.901 -25.222 -12.556  0.00  0.00    +0.148 HD
ATOM     18  H   UNL     1      34.920 -22.795 -15.675  0.00  0.00    +0.148 HD
ATOM     19  H   UNL     1      27.867 -22.267 -18.049  0.00  0.00    +0.146 HD
ATOM     20  H   UNL     1      26.571 -23.053 -17.265  0.00  0.00    +0.146 HD
ENDROOT
BRANCH   7  21
ATOM     21  C   UNL     1      32.438 -22.179 -17.101  0.00  0.00    +0.034 C 
BRANCH  21  22
ATOM     22  C   UNL     1      33.508 -22.782 -18.031  0.00  0.00    +0.031 C 
BRANCH  22  23
ATOM     23  C   UNL     1      34.201 -21.752 -18.888  0.00  0.00    -0.022 C 
ATOM     24  C   UNL     1      33.443 -20.899 -19.673  0.00  0.00    -0.001 C 
ATOM     25  C   UNL     1      35.585 -21.678 -18.875  0.00  0.00    -0.001 C 
ATOM     26  C   UNL     1      34.083 -19.947 -20.466  0.00  0.00    +0.037 C 
ATOM     27  C   UNL     1      36.227 -20.726 -19.668  0.00  0.00    +0.037 C 
ATOM     28  C   UNL     1      35.476 -19.860 -20.463  0.00  0.00    +0.139 C 
BRANCH  28  29
ATOM     29  O   UNL     1      36.102 -18.932 -21.236  0.00  0.00    -0.471 OA
ATOM     30  C   UNL     1      35.477 -18.587 -22.472  0.00  0.00    +0.252 C 
ENDBRANCH  28  29
ENDBRANCH  22  23
ENDBRANCH  21  22
ENDBRANCH   7  21
TORSDOF 4
ENDMDL
MODEL 3
REMARK VINA RESULT:     -10.7      1.196      3.832
REMARK  Name = 5326930
REMARK  4 active torsions:
REMARK  status: ('A' for Active; 'I' for Inactive)
REMARK    1  A    between atoms: C_7  and  C_21
REMARK    2  A    between atoms: C_21  and  C_22
REMARK    3  A    between atoms: C_22  and  C_23
REMARK    4  A    between atoms: C_28  and  O_29
REMARK                            x       y       z     vdW  Elec       q    Type
REMARK                         _______ _______ _______ _____ _____    ______ ____
ROOT
ATOM      1  O   UNL     1      30.936 -25.124 -12.236  0.00  0.00    -0.209 OA
ATOM      2  N   UNL     1      30.533 -23.447 -15.851  0.00  0.00    -0.275 N 
ATOM      3  N   UNL     1      35.677 -23.585 -13.902  0.00  0.00    -0.315 N 
ATOM      4  N   UNL     1      35.420 -22.662 -15.906  0.00  0.00    -0.316 N 
ATOM      5  N   UNL     1      29.558 -24.510 -13.959  0.00  0.00    -0.302 NA
ATOM      6  N   UNL     1      28.273 -23.827 -15.795  0.00  0.00    -0.320 N 
ATOM      7  C   UNL     1      32.925 -22.997 -16.014  0.00  0.00    +0.007 C 
ATOM      8  C   UNL     1      31.822 -23.507 -15.311  0.00  0.00    +0.060 C 
ATOM      9  C   UNL     1      34.200 -23.081 -15.428  0.00  0.00    +0.056 C 
ATOM     10  C   UNL     1      34.333 -23.664 -14.171  0.00  0.00    +0.060 C 
ATOM     11  C   UNL     1      31.998 -24.087 -14.045  0.00  0.00    +0.109 C 
ATOM     12  C   UNL     1      33.261 -24.181 -13.443  0.00  0.00    +0.029 C 
ATOM     13  C   UNL     1      30.792 -24.614 -13.343  0.00  0.00    +0.208 C 
ATOM     14  C   UNL     1      36.282 -22.979 -14.966  0.00  0.00    +0.182 C 
ATOM     15  C   UNL     1      29.471 -23.956 -15.139  0.00  0.00    +0.248 C 
ATOM     16  H   UNL     1      30.388 -23.044 -16.737  0.00  0.00    +0.156 HD
ATOM     17  H   UNL     1      36.123 -23.907 -13.086  0.00  0.00    +0.148 HD
ATOM     18  H   UNL     1      35.607 -22.220 -16.766  0.00  0.00    +0.148 HD
ATOM     19  H   UNL     1      28.241 -23.405 -16.684  0.00  0.00    +0.146 HD
ATOM     20  H   UNL     1      27.445 -24.158 -15.377  0.00  0.00    +0.146 HD
ENDROOT
BRANCH   7  21
ATOM     21  C   UNL     1      32.745 -22.376 -17.364  0.00  0.00    +0.034 C 
BRANCH  21  22
ATOM     22  C   UNL     1      33.795 -22.819 -18.399  0.00  0.00    +0.031 C 
BRANCH  22  23
ATOM     23  C   UNL     1      34.368 -21.672 -19.195  0.00  0.00    -0.022 C 
ATOM     24  C   UNL     1      35.741 -21.490 -19.234  0.00  0.00    -0.001 C 
ATOM     25  C   UNL     1      33.510 -20.820 -19.872  0.00  0.00    -0.001 C 
ATOM     26  C   UNL     1      36.271 -20.430 -19.969  0.00  0.00    +0.037 C 
ATOM     27  C   UNL     1      34.040 -19.759 -20.607  0.00  0.00    +0.037 C 
ATOM     28  C   UNL     1      35.420 -19.565 -20.656  0.00  0.00    +0.139 C 
BRANCH  28  29
ATOM     29  O   UNL     1      35.936 -18.529 -21.373  0.00  0.00    -0.471 OA
ATOM     30  C   UNL     1      35.426 -18.332 -22.690  0.00  0.00    +0.252 C 
ENDBRANCH  28  29
ENDBRANCH  22  23
ENDBRANCH  21  22
ENDBRANCH   7  21
TORSDOF 4
ENDMDL
MODEL 4
REMARK VINA RESULT:     -10.5      1.332      2.003
REMARK  Name = 5326930
REMARK  4 active torsions:
REMARK  status: ('A' for Active; 'I' for Inactive)
REMARK    1  A    between atoms: C_7  and  C_21
REMARK    2  A    between atoms: C_21  and  C_22
REMARK    3  A    between atoms: C_22  and  C_23
REMARK    4  A    between atoms: C_28  and  O_29
REMARK                            x       y       z     vdW  Elec       q    Type
REMARK                         _______ _______ _______ _____ _____    ______ ____
ROOT
ATOM      1  O   UNL     1      37.335 -23.669 -12.577  0.00  0.00    -0.209 OA
ATOM      2  N   UNL     1      35.711 -22.142 -15.905  0.00  0.00    -0.275 N 
ATOM      3  N   UNL     1      32.266 -25.046 -12.748  0.00  0.00    -0.315 N 
ATOM      4  N   UNL     1      31.396 -24.185 -14.601  0.00  0.00    -0.316 N 
ATOM      5  N   UNL     1      37.601 -22.440 -14.490  0.00  0.00    -0.302 NA
ATOM      6  N   UNL     1      37.724 -21.207 -16.479  0.00  0.00    -0.320 N 
ATOM      7  C   UNL     1      33.525 -23.090 -15.389  0.00  0.00    +0.007 C 
ATOM      8  C   UNL     1      34.876 -22.889 -15.068  0.00  0.00    +0.060 C 
ATOM      9  C   UNL     1      32.727 -23.849 -14.514  0.00  0.00    +0.056 C 
ATOM     10  C   UNL     1      33.297 -24.378 -13.360  0.00  0.00    +0.060 C 
ATOM     11  C   UNL     1      35.414 -23.439 -13.894  0.00  0.00    +0.109 C 
ATOM     12  C   UNL     1      34.635 -24.198 -13.008  0.00  0.00    +0.029 C 
ATOM     13  C   UNL     1      36.856 -23.192 -13.602  0.00  0.00    +0.208 C 
ATOM     14  C   UNL     1      31.153 -24.902 -13.528  0.00  0.00    +0.182 C 
ATOM     15  C   UNL     1      37.032 -21.960 -15.564  0.00  0.00    +0.248 C 
ATOM     16  H   UNL     1      35.355 -21.747 -16.733  0.00  0.00    +0.156 HD
ATOM     17  H   UNL     1      32.321 -25.542 -11.899  0.00  0.00    +0.148 HD
ATOM     18  H   UNL     1      30.762 -23.940 -15.314  0.00  0.00    +0.148 HD
ATOM     19  H   UNL     1      37.267 -20.860 -17.278  0.00  0.00    +0.146 HD
ATOM     20  H   UNL     1      38.680 -21.014 -16.335  0.00  0.00    +0.146 HD
ENDROOT
BRANCH   7  21
ATOM     21  C   UNL     1      32.945 -22.508 -16.639  0.00  0.00    +0.034 C 
BRANCH  21  22
ATOM     22  C   UNL     1      33.587 -23.041 -17.932  0.00  0.00    +0.031 C 
BRANCH  22  23
ATOM     23  C   UNL     1      33.972 -21.950 -18.901  0.00  0.00    -0.022 C 
ATOM     24  C   UNL     1      32.978 -21.209 -19.520  0.00  0.00    -0.001 C 
ATOM     25  C   UNL     1      35.312 -21.710 -19.155  0.00  0.00    -0.001 C 
ATOM     26  C   UNL     1      33.333 -20.200 -20.415  0.00  0.00    +0.037 C 
ATOM     27  C   UNL     1      35.668 -20.700 -20.051  0.00  0.00    +0.037 C 
ATOM     28  C   UNL     1      34.678 -19.946 -20.681  0.00  0.00    +0.139 C 
BRANCH  28  29
ATOM     29  O   UNL     1      35.026 -18.963 -21.555  0.00  0.00    -0.471 OA
ATOM     30  C   UNL     1      35.526 -17.747 -21.001  0.00  0.00    +0.252 C 
ENDBRANCH  28  29
ENDBRANCH  22  23
ENDBRANCH  21  22
ENDBRANCH   7  21
TORSDOF 4
ENDMDL
MODEL 5
REMARK VINA RESULT:     -10.2      3.000      6.269
REMARK  Name = 5326930
REMARK  4 active torsions:
REMARK  status: ('A' for Active; 'I' for Inactive)
REMARK    1  A    between atoms: C_7  and  C_21
REMARK    2  A    between atoms: C_21  and  C_22
REMARK    3  A    between atoms: C_22  and  C_23
REMARK    4  A    between atoms: C_28  and  O_29
REMARK                            x       y       z     vdW  Elec       q    Type
REMARK                         _______ _______ _______ _____ _____    ______ ____
ROOT
ATOM      1  O   UNL     1      37.203 -21.576 -16.978  0.00  0.00    -0.209 OA
ATOM      2  N   UNL     1      33.662 -23.332 -16.327  0.00  0.00    -0.275 N 
ATOM      3  N   UNL     1      37.193 -23.563 -12.113  0.00  0.00    -0.315 N 
ATOM      4  N   UNL     1      35.219 -24.527 -11.783  0.00  0.00    -0.316 N 
ATOM      5  N   UNL     1      35.126 -22.129 -17.767  0.00  0.00    -0.302 NA
ATOM      6  N   UNL     1      32.971 -22.762 -18.437  0.00  0.00    -0.320 N 
ATOM      7  C   UNL     1      34.295 -23.988 -14.065  0.00  0.00    +0.007 C 
ATOM      8  C   UNL     1      34.596 -23.364 -15.286  0.00  0.00    +0.060 C 
ATOM      9  C   UNL     1      35.268 -23.992 -13.049  0.00  0.00    +0.056 C 
ATOM     10  C   UNL     1      36.497 -23.381 -13.282  0.00  0.00    +0.060 C 
ATOM     11  C   UNL     1      35.847 -22.758 -15.482  0.00  0.00    +0.109 C 
ATOM     12  C   UNL     1      36.830 -22.752 -14.481  0.00  0.00    +0.029 C 
ATOM     13  C   UNL     1      36.112 -22.109 -16.798  0.00  0.00    +0.208 C 
ATOM     14  C   UNL     1      36.388 -24.253 -11.251  0.00  0.00    +0.182 C 
ATOM     15  C   UNL     1      33.985 -22.713 -17.513  0.00  0.00    +0.248 C 
ATOM     16  H   UNL     1      32.779 -23.751 -16.211  0.00  0.00    +0.156 HD
ATOM     17  H   UNL     1      38.108 -23.253 -11.931  0.00  0.00    +0.148 HD
ATOM     18  H   UNL     1      34.469 -25.012 -11.366  0.00  0.00    +0.148 HD
ATOM     19  H   UNL     1      32.123 -23.209 -18.215  0.00  0.00    +0.146 HD
ATOM     20  H   UNL     1      33.094 -22.349 -19.323  0.00  0.00    +0.146 HD
ENDROOT
BRANCH   7  21
ATOM     21  C   UNL     1      32.964 -24.636 -13.849  0.00  0.00    +0.034 C 
BRANCH  21  22
ATOM     22  C   UNL     1      31.855 -23.656 -13.424  0.00  0.00    +0.031 C 
BRANCH  22  23
ATOM     23  C   UNL     1      30.677 -23.643 -14.367  0.00  0.00    -0.022 C 
ATOM     24  C   UNL     1      29.754 -24.675 -14.317  0.00  0.00    -0.001 C 
ATOM     25  C   UNL     1      30.541 -22.600 -15.269  0.00  0.00    -0.001 C 
ATOM     26  C   UNL     1      28.666 -24.664 -15.188  0.00  0.00    +0.037 C 
ATOM     27  C   UNL     1      29.452 -22.588 -16.142  0.00  0.00    +0.037 C 
ATOM     28  C   UNL     1      28.515 -23.620 -16.101  0.00  0.00    +0.139 C 
BRANCH  28  29
ATOM     29  O   UNL     1      27.454 -23.609 -16.953  0.00  0.00    -0.471 OA
ATOM     30  C   UNL     1      26.820 -22.353 -17.186  0.00  0.00    +0.252 C 
ENDBRANCH  28  29
ENDBRANCH  22  23
ENDBRANCH  21  22
ENDBRANCH   7  21
TORSDOF 4
ENDMDL
MODEL 6
REMARK VINA RESULT:     -10.0      3.087      7.448
REMARK  Name = 5326930
REMARK  4 active torsions:
REMARK  status: ('A' for Active; 'I' for Inactive)
REMARK    1  A    between atoms: C_7  and  C_21
REMARK    2  A    between atoms: C_21  and  C_22
REMARK    3  A    between atoms: C_22  and  C_23
REMARK    4  A    between atoms: C_28  and  O_29
REMARK                            x       y       z     vdW  Elec       q    Type
REMARK                         _______ _______ _______ _____ _____    ______ ____
ROOT
ATOM      1  O   UNL     1      33.400 -19.215 -22.051  0.00  0.00    -0.209 OA
ATOM      2  N   UNL     1      36.799 -19.935 -20.057  0.00  0.00    -0.275 N 
ATOM      3  N   UNL     1      32.349 -22.504 -18.090  0.00  0.00    -0.315 N 
ATOM      4  N   UNL     1      34.251 -22.884 -17.007  0.00  0.00    -0.316 N 
ATOM      5  N   UNL     1      35.649 -18.846 -21.834  0.00  0.00    -0.302 NA
ATOM      6  N   UNL     1      37.950 -18.563 -21.489  0.00  0.00    -0.320 N 
ATOM      7  C   UNL     1      35.672 -21.414 -18.479  0.00  0.00    +0.007 C 
ATOM      8  C   UNL     1      35.638 -20.565 -19.596  0.00  0.00    +0.060 C 
ATOM      9  C   UNL     1      34.477 -22.024 -18.056  0.00  0.00    +0.056 C 
ATOM     10  C   UNL     1      33.300 -21.769 -18.752  0.00  0.00    +0.060 C 
ATOM     11  C   UNL     1      34.430 -20.333 -20.272  0.00  0.00    +0.109 C 
ATOM     12  C   UNL     1      33.228 -20.932 -19.866  0.00  0.00    +0.029 C 
ATOM     13  C   UNL     1      34.452 -19.423 -21.454  0.00  0.00    +0.208 C 
ATOM     14  C   UNL     1      32.965 -23.151 -17.056  0.00  0.00    +0.182 C 
ATOM     15  C   UNL     1      36.735 -19.107 -21.155  0.00  0.00    +0.248 C 
ATOM     16  H   UNL     1      37.656 -20.083 -19.598  0.00  0.00    +0.156 HD
ATOM     17  H   UNL     1      31.393 -22.555 -18.320  0.00  0.00    +0.148 HD
ATOM     18  H   UNL     1      34.909 -23.226 -16.359  0.00  0.00    +0.148 HD
ATOM     19  H   UNL     1      38.750 -18.781 -20.958  0.00  0.00    +0.146 HD
ATOM     20  H   UNL     1      38.021 -17.955 -22.260  0.00  0.00    +0.146 HD
ENDROOT
BRANCH   7  21
ATOM     21  C   UNL     1      36.956 -21.666 -17.754  0.00  0.00    +0.034 C 
BRANCH  21  22
ATOM     22  C   UNL     1      36.945 -21.199 -16.286  0.00  0.00    +0.031 C 
BRANCH  22  23
ATOM     23  C   UNL     1      37.156 -22.322 -15.302  0.00  0.00    -0.022 C 
ATOM     24  C   UNL     1      36.266 -22.482 -14.252  0.00  0.00    -0.001 C 
ATOM     25  C   UNL     1      38.238 -23.173 -15.464  0.00  0.00    -0.001 C 
ATOM     26  C   UNL     1      36.461 -23.521 -13.342  0.00  0.00    +0.037 C 
ATOM     27  C   UNL     1      38.433 -24.212 -14.553  0.00  0.00    +0.037 C 
ATOM     28  C   UNL     1      37.545 -24.386 -13.492  0.00  0.00    +0.139 C 
BRANCH  28  29
ATOM     29  O   UNL     1      37.736 -25.398 -12.604  0.00  0.00    -0.471 OA
ATOM     30  C   UNL     1      37.185 -25.231 -11.299  0.00  0.00    +0.252 C 
ENDBRANCH  28  29
ENDBRANCH  22  23
ENDBRANCH  21  22
ENDBRANCH   7  21
TORSDOF 4
ENDMDL
MODEL 7
REMARK VINA RESULT:      -9.7      3.480      6.102
REMARK  Name = 5326930
REMARK  4 active torsions:
REMARK  status: ('A' for Active; 'I' for Inactive)
REMARK    1  A    between atoms: C_7  and  C_21
REMARK    2  A    between atoms: C_21  and  C_22
REMARK    3  A    between atoms: C_22  and  C_23
REMARK    4  A    between atoms: C_28  and  O_29
REMARK                            x       y       z     vdW  Elec       q    Type
REMARK                         _______ _______ _______ _____ _____    ______ ____
ROOT
ATOM      1  O   UNL     1      38.550 -22.385 -11.528  0.00  0.00    -0.209 OA
ATOM      2  N   UNL     1      35.069 -24.357 -11.332  0.00  0.00    -0.275 N 
ATOM      3  N   UNL     1      36.221 -22.137 -16.232  0.00  0.00    -0.315 N 
ATOM      4  N   UNL     1      34.298 -23.239 -16.091  0.00  0.00    -0.316 N 
ATOM      5  N   UNL     1      37.066 -23.603 -10.280  0.00  0.00    -0.302 NA
ATOM      6  N   UNL     1      35.457 -24.860  -9.129  0.00  0.00    -0.320 N 
ATOM      7  C   UNL     1      34.557 -23.881 -13.668  0.00  0.00    +0.007 C 
ATOM      8  C   UNL     1      35.408 -23.774 -12.557  0.00  0.00    +0.060 C 
ATOM      9  C   UNL     1      34.944 -23.276 -14.878  0.00  0.00    +0.056 C 
ATOM     10  C   UNL     1      36.154 -22.592 -14.939  0.00  0.00    +0.060 C 
ATOM     11  C   UNL     1      36.621 -23.075 -12.659  0.00  0.00    +0.109 C 
ATOM     12  C   UNL     1      37.025 -22.465 -13.856  0.00  0.00    +0.029 C 
ATOM     13  C   UNL     1      37.487 -22.994 -11.447  0.00  0.00    +0.208 C 
ATOM     14  C   UNL     1      35.090 -22.548 -16.879  0.00  0.00    +0.182 C 
ATOM     15  C   UNL     1      35.923 -24.237 -10.260  0.00  0.00    +0.248 C 
ATOM     16  H   UNL     1      34.223 -24.852 -11.238  0.00  0.00    +0.156 HD
ATOM     17  H   UNL     1      36.954 -21.608 -16.623  0.00  0.00    +0.148 HD
ATOM     18  H   UNL     1      33.429 -23.642 -16.320  0.00  0.00    +0.148 HD
ATOM     19  H   UNL     1      34.592 -25.329  -9.146  0.00  0.00    +0.146 HD
ATOM     20  H   UNL     1      35.989 -24.837  -8.300  0.00  0.00    +0.146 HD
ENDROOT
BRANCH   7  21
ATOM     21  C   UNL     1      33.263 -24.624 -13.567  0.00  0.00    +0.034 C 
BRANCH  21  22
ATOM     22  C   UNL     1      32.069 -23.744 -13.151  0.00  0.00    +0.031 C 
BRANCH  22  23
ATOM     23  C   UNL     1      30.925 -23.789 -14.134  0.00  0.00    -0.022 C 
ATOM     24  C   UNL     1      30.886 -22.873 -15.173  0.00  0.00    -0.001 C 
ATOM     25  C   UNL     1      29.934 -24.744 -13.979  0.00  0.00    -0.001 C 
ATOM     26  C   UNL     1      29.829 -22.913 -16.082  0.00  0.00    +0.037 C 
ATOM     27  C   UNL     1      28.876 -24.784 -14.888  0.00  0.00    +0.037 C 
ATOM     28  C   UNL     1      28.824 -23.869 -15.939  0.00  0.00    +0.139 C 
BRANCH  28  29
ATOM     29  O   UNL     1      27.792 -23.908 -16.825  0.00  0.00    -0.471 OA
ATOM     30  C   UNL     1      27.134 -22.676 -17.112  0.00  0.00    +0.252 C 
ENDBRANCH  28  29
ENDBRANCH  22  23
ENDBRANCH  21  22
ENDBRANCH   7  21
TORSDOF 4
ENDMDL
MODEL 8
REMARK VINA RESULT:      -9.7      2.998      6.728
REMARK  Name = 5326930
REMARK  4 active torsions:
REMARK  status: ('A' for Active; 'I' for Inactive)
REMARK    1  A    between atoms: C_7  and  C_21
REMARK    2  A    between atoms: C_21  and  C_22
REMARK    3  A    between atoms: C_22  and  C_23
REMARK    4  A    between atoms: C_28  and  O_29
REMARK                            x       y       z     vdW  Elec       q    Type
REMARK                         _______ _______ _______ _____ _____    ______ ____
ROOT
ATOM      1  O   UNL     1      36.919 -20.550 -19.190  0.00  0.00    -0.209 OA
ATOM      2  N   UNL     1      33.441 -22.199 -18.083  0.00  0.00    -0.275 N 
ATOM      3  N   UNL     1      37.643 -23.082 -14.643  0.00  0.00    -0.315 N 
ATOM      4  N   UNL     1      35.699 -23.983 -14.057  0.00  0.00    -0.316 N 
ATOM      5  N   UNL     1      34.702 -20.908 -19.635  0.00  0.00    -0.302 NA
ATOM      6  N   UNL     1      32.425 -21.357 -19.958  0.00  0.00    -0.320 N 
ATOM      7  C   UNL     1      34.422 -23.141 -16.059  0.00  0.00    +0.007 C 
ATOM      8  C   UNL     1      34.541 -22.395 -17.242  0.00  0.00    +0.060 C 
ATOM      9  C   UNL     1      35.558 -23.308 -15.246  0.00  0.00    +0.056 C 
ATOM     10  C   UNL     1      36.763 -22.734 -15.637  0.00  0.00    +0.060 C 
ATOM     11  C   UNL     1      35.775 -21.831 -17.601  0.00  0.00    +0.109 C 
ATOM     12  C   UNL     1      36.919 -21.986 -16.805  0.00  0.00    +0.029 C 
ATOM     13  C   UNL     1      35.844 -21.047 -18.868  0.00  0.00    +0.208 C 
ATOM     14  C   UNL     1      36.960 -23.828 -13.724  0.00  0.00    +0.182 C 
ATOM     15  C   UNL     1      33.587 -21.463 -19.237  0.00  0.00    +0.248 C 
ATOM     16  H   UNL     1      32.566 -22.586 -17.851  0.00  0.00    +0.156 HD
ATOM     17  H   UNL     1      38.596 -22.839 -14.602  0.00  0.00    +0.148 HD
ATOM     18  H   UNL     1      35.005 -24.477 -13.561  0.00  0.00    +0.148 HD
ATOM     19  H   UNL     1      31.601 -21.786 -19.631  0.00  0.00    +0.146 HD
ATOM     20  H   UNL     1      32.414 -20.851 -20.803  0.00  0.00    +0.146 HD
ENDROOT
BRANCH   7  21
ATOM     21  C   UNL     1      33.110 -23.745 -15.669  0.00  0.00    +0.034 C 
BRANCH  21  22
ATOM     22  C   UNL     1      32.314 -22.907 -14.652  0.00  0.00    +0.031 C 
BRANCH  22  23
ATOM     23  C   UNL     1      30.843 -22.817 -14.975  0.00  0.00    -0.022 C 
ATOM     24  C   UNL     1      30.409 -23.110 -16.258  0.00  0.00    -0.001 C 
ATOM     25  C   UNL     1      29.951 -22.442 -13.983  0.00  0.00    -0.001 C 
ATOM     26  C   UNL     1      29.050 -23.027 -16.557  0.00  0.00    +0.037 C 
ATOM     27  C   UNL     1      28.591 -22.358 -14.281  0.00  0.00    +0.037 C 
ATOM     28  C   UNL     1      28.140 -22.651 -15.569  0.00  0.00    +0.139 C 
BRANCH  28  29
ATOM     29  O   UNL     1      26.814 -22.568 -15.860  0.00  0.00    -0.471 OA
ATOM     30  C   UNL     1      26.433 -21.687 -16.915  0.00  0.00    +0.252 C 
ENDBRANCH  28  29
ENDBRANCH  22  23
ENDBRANCH  21  22
ENDBRANCH   7  21
TORSDOF 4
ENDMDL
MODEL 9
REMARK VINA RESULT:      -9.5      3.126      5.985
REMARK  Name = 5326930
REMARK  4 active torsions:
REMARK  status: ('A' for Active; 'I' for Inactive)
REMARK    1  A    between atoms: C_7  and  C_21
REMARK    2  A    between atoms: C_21  and  C_22
REMARK    3  A    between atoms: C_22  and  C_23
REMARK    4  A    between atoms: C_28  and  O_29
REMARK                            x       y       z     vdW  Elec       q    Type
REMARK                         _______ _______ _______ _____ _____    ______ ____
ROOT
ATOM      1  O   UNL     1      37.938 -22.436 -14.653  0.00  0.00    -0.209 OA
ATOM      2  N   UNL     1      34.378 -24.084 -13.843  0.00  0.00    -0.275 N 
ATOM      3  N   UNL     1      34.730 -21.572 -18.725  0.00  0.00    -0.315 N 
ATOM      4  N   UNL     1      32.769 -22.498 -18.246  0.00  0.00    -0.316 N 
ATOM      5  N   UNL     1      36.620 -23.613 -13.197  0.00  0.00    -0.302 NA
ATOM      6  N   UNL     1      35.156 -24.806 -11.810  0.00  0.00    -0.320 N 
ATOM      7  C   UNL     1      33.451 -23.365 -15.980  0.00  0.00    +0.007 C 
ATOM      8  C   UNL     1      34.520 -23.433 -15.073  0.00  0.00    +0.060 C 
ATOM      9  C   UNL     1      33.644 -22.699 -17.204  0.00  0.00    +0.056 C 
ATOM     10  C   UNL     1      34.882 -22.127 -17.479  0.00  0.00    +0.060 C 
ATOM     11  C   UNL     1      35.754 -22.844 -15.387  0.00  0.00    +0.109 C 
ATOM     12  C   UNL     1      35.966 -22.176 -16.602  0.00  0.00    +0.029 C 
ATOM     13  C   UNL     1      36.855 -22.948 -14.386  0.00  0.00    +0.208 C 
ATOM     14  C   UNL     1      33.452 -21.820 -19.140  0.00  0.00    +0.182 C 
ATOM     15  C   UNL     1      35.443 -24.136 -12.973  0.00  0.00    +0.248 C 
ATOM     16  H   UNL     1      33.521 -24.504 -13.602  0.00  0.00    +0.156 HD
ATOM     17  H   UNL     1      35.420 -21.083 -19.229  0.00  0.00    +0.148 HD
ATOM     18  H   UNL     1      31.832 -22.798 -18.309  0.00  0.00    +0.148 HD
ATOM     19  H   UNL     1      34.260 -25.190 -11.672  0.00  0.00    +0.146 HD
ATOM     20  H   UNL     1      35.847 -24.904 -11.115  0.00  0.00    +0.146 HD
ENDROOT
BRANCH   7  21
ATOM     21  C   UNL     1      32.132 -23.990 -15.652  0.00  0.00    +0.034 C 
BRANCH  21  22
ATOM     22  C   UNL     1      31.300 -23.191 -14.632  0.00  0.00    +0.031 C 
BRANCH  22  23
ATOM     23  C   UNL     1      29.891 -22.918 -15.095  0.00  0.00    -0.022 C 
ATOM     24  C   UNL     1      29.504 -23.315 -16.365  0.00  0.00    -0.001 C 
ATOM     25  C   UNL     1      29.008 -22.273 -14.243  0.00  0.00    -0.001 C 
ATOM     26  C   UNL     1      28.202 -23.063 -16.795  0.00  0.00    +0.037 C 
ATOM     27  C   UNL     1      27.705 -22.021 -14.673  0.00  0.00    +0.037 C 
ATOM     28  C   UNL     1      27.302 -22.415 -15.948  0.00  0.00    +0.139 C 
BRANCH  28  29
ATOM     29  O   UNL     1      26.031 -22.168 -16.367  0.00  0.00    -0.471 OA
ATOM     30  C   UNL     1      25.867 -21.226 -17.426  0.00  0.00    +0.252 C 
ENDBRANCH  28  29
ENDBRANCH  22  23
ENDBRANCH  21  22
ENDBRANCH   7  21
TORSDOF 4
ENDMDL
