MODEL 1
REMARK VINA RESULT:     -12.3      0.000      0.000
REMARK  Name = 71226662
REMARK  4 active torsions:
REMARK  status: ('A' for Active; 'I' for Inactive)
REMARK    1  A    between atoms: C_5  and  C_15
REMARK    2  A    between atoms: C_7  and  C_23
REMARK    3  A    between atoms: C_19  and  C_20
REMARK    4  A    between atoms: C_28  and  C_31
REMARK                            x       y       z     vdW  Elec       q    Type
REMARK                         _______ _______ _______ _____ _____    ______ ____
ROOT
ATOM      1  N   UNL     1      33.732 -24.057 -14.716  0.00  0.00    -0.251 N 
ATOM      2  N   UNL     1      35.552 -23.346 -15.768  0.00  0.00    -0.392 NA
ATOM      3  N   UNL     1      31.015 -23.765 -15.199  0.00  0.00    -0.231 NA
ATOM      4  N   UNL     1      31.353 -22.502 -17.114  0.00  0.00    -0.344 N 
ATOM      5  C   UNL     1      35.098 -24.029 -14.737  0.00  0.00    +0.182 C 
ATOM      6  C   UNL     1      33.288 -23.345 -15.804  0.00  0.00    +0.185 C 
ATOM      7  C   UNL     1      34.430 -22.915 -16.438  0.00  0.00    +0.136 C 
ATOM      8  C   UNL     1      32.825 -24.634 -13.852  0.00  0.00    +0.089 C 
ATOM      9  C   UNL     1      31.860 -23.201 -16.042  0.00  0.00    +0.128 C 
ATOM     10  C   UNL     1      31.518 -24.471 -14.119  0.00  0.00    +0.116 C 
ATOM     11  H   UNL     1      30.378 -22.430 -17.238  0.00  0.00    +0.143 HD
ATOM     12  H   UNL     1      31.963 -22.074 -17.757  0.00  0.00    +0.143 HD
ENDROOT
BRANCH   5  15
ATOM     13  O   UNL     1      36.112 -27.094 -15.331  0.00  0.00    -0.260 OA
ATOM     14  N   UNL     1      37.159 -25.352 -14.212  0.00  0.00    -0.263 N 
ATOM     15  C   UNL     1      35.947 -24.716 -13.684  0.00  0.00    +0.143 C 
ATOM     16  C   UNL     1      36.478 -23.736 -12.629  0.00  0.00    +0.030 C 
ATOM     17  C   UNL     1      37.869 -23.370 -13.138  0.00  0.00    +0.024 C 
ATOM     18  C   UNL     1      38.366 -24.669 -13.753  0.00  0.00    +0.095 C 
ATOM     19  C   UNL     1      37.129 -26.526 -14.949  0.00  0.00    +0.293 C 
BRANCH  19  20
ATOM     20  C   UNL     1      38.401 -27.123 -15.292  0.00  0.00    -0.007 C 
ATOM     21  C   UNL     1      39.457 -27.619 -15.576  0.00  0.00    -0.081 C 
ATOM     22  C   UNL     1      40.742 -28.223 -15.923  0.00  0.00    +0.090 C 
ENDBRANCH  19  20
ENDBRANCH   5  15
BRANCH   7  23
ATOM     23  C   UNL     1      34.506 -22.129 -17.631  0.00  0.00    +0.028 C 
ATOM     24  C   UNL     1      33.338 -21.756 -18.297  0.00  0.00    +0.002 C 
ATOM     25  C   UNL     1      35.748 -21.736 -18.129  0.00  0.00    +0.002 C 
ATOM     26  C   UNL     1      33.412 -20.990 -19.460  0.00  0.00    +0.005 C 
ATOM     27  C   UNL     1      35.822 -20.971 -19.293  0.00  0.00    +0.005 C 
ATOM     28  C   UNL     1      34.655 -20.598 -19.958  0.00  0.00    +0.054 C 
BRANCH  28  31
ATOM     29  O   UNL     1      34.795 -20.374 -22.269  0.00  0.00    -0.270 OA
ATOM     30  N   UNL     1      34.752 -18.409 -20.988  0.00  0.00    -0.266 N 
ATOM     31  C   UNL     1      34.732 -19.798 -21.171  0.00  0.00    +0.251 C 
ATOM     32  H   UNL     1      34.693 -18.099 -20.055  0.00  0.00    +0.157 HD
ATOM     33  N   UNL     1      34.847 -16.102 -21.563  0.00  0.00    -0.229 NA
ATOM     34  C   UNL     1      34.845 -17.392 -21.969  0.00  0.00    +0.134 C 
ATOM     35  C   UNL     1      34.929 -17.787 -23.294  0.00  0.00    +0.034 C 
ATOM     36  C   UNL     1      35.022 -16.796 -24.265  0.00  0.00    +0.004 C 
ATOM     37  C   UNL     1      34.938 -15.166 -22.535  0.00  0.00    +0.100 C 
ATOM     38  C   UNL     1      35.027 -15.458 -23.886  0.00  0.00    +0.021 C 
ENDBRANCH  28  31
ENDBRANCH   7  23
TORSDOF 4
ENDMDL
MODEL 2
REMARK VINA RESULT:     -11.4      8.868     17.054
REMARK  Name = 71226662
REMARK  4 active torsions:
REMARK  status: ('A' for Active; 'I' for Inactive)
REMARK    1  A    between atoms: C_5  and  C_15
REMARK    2  A    between atoms: C_7  and  C_23
REMARK    3  A    between atoms: C_19  and  C_20
REMARK    4  A    between atoms: C_28  and  C_31
REMARK                            x       y       z     vdW  Elec       q    Type
REMARK                         _______ _______ _______ _____ _____    ______ ____
ROOT
ATOM      1  N   UNL     1      32.636  -6.236 -21.491  0.00  0.00    -0.251 N 
ATOM      2  N   UNL     1      33.134  -7.070 -23.487  0.00  0.00    -0.392 NA
ATOM      3  N   UNL     1      32.158  -7.383 -19.011  0.00  0.00    -0.231 NA
ATOM      4  N   UNL     1      32.472  -9.542 -19.797  0.00  0.00    -0.344 N 
ATOM      5  C   UNL     1      32.911  -5.967 -22.803  0.00  0.00    +0.182 C 
ATOM      6  C   UNL     1      32.689  -7.599 -21.331  0.00  0.00    +0.185 C 
ATOM      7  C   UNL     1      32.997  -8.093 -22.577  0.00  0.00    +0.136 C 
ATOM      8  C   UNL     1      32.343  -5.424 -20.416  0.00  0.00    +0.089 C 
ATOM      9  C   UNL     1      32.434  -8.184 -20.023  0.00  0.00    +0.128 C 
ATOM     10  C   UNL     1      32.118  -6.016 -19.231  0.00  0.00    +0.116 C 
ATOM     11  H   UNL     1      32.294  -9.896 -18.895  0.00  0.00    +0.143 HD
ATOM     12  H   UNL     1      32.678 -10.159 -20.536  0.00  0.00    +0.143 HD
ENDROOT
BRANCH   5  15
ATOM     13  O   UNL     1      35.398  -5.150 -24.783  0.00  0.00    -0.260 OA
ATOM     14  N   UNL     1      33.175  -4.488 -24.807  0.00  0.00    -0.263 N 
ATOM     15  C   UNL     1      32.945  -4.556 -23.360  0.00  0.00    +0.143 C 
ATOM     16  C   UNL     1      31.615  -3.816 -23.165  0.00  0.00    +0.030 C 
ATOM     17  C   UNL     1      30.877  -4.039 -24.482  0.00  0.00    +0.024 C 
ATOM     18  C   UNL     1      31.993  -4.002 -25.515  0.00  0.00    +0.095 C 
ATOM     19  C   UNL     1      34.410  -4.742 -25.383  0.00  0.00    +0.293 C 
BRANCH  19  20
ATOM     20  C   UNL     1      34.537  -4.506 -26.804  0.00  0.00    -0.007 C 
ATOM     21  C   UNL     1      34.643  -4.309 -27.983  0.00  0.00    -0.081 C 
ATOM     22  C   UNL     1      34.773  -4.071 -29.420  0.00  0.00    +0.090 C 
ENDBRANCH  19  20
ENDBRANCH   5  15
BRANCH   7  23
ATOM     23  C   UNL     1      33.166  -9.467 -22.938  0.00  0.00    +0.028 C 
ATOM     24  C   UNL     1      32.357 -10.446 -22.359  0.00  0.00    +0.002 C 
ATOM     25  C   UNL     1      34.141  -9.828 -23.868  0.00  0.00    +0.002 C 
ATOM     26  C   UNL     1      32.524 -11.785 -22.710  0.00  0.00    +0.005 C 
ATOM     27  C   UNL     1      34.306 -11.167 -24.220  0.00  0.00    +0.005 C 
ATOM     28  C   UNL     1      33.498 -12.146 -23.641  0.00  0.00    +0.054 C 
BRANCH  28  31
ATOM     29  O   UNL     1      33.242 -13.934 -25.107  0.00  0.00    -0.270 OA
ATOM     30  N   UNL     1      34.301 -14.354 -23.056  0.00  0.00    -0.266 N 
ATOM     31  C   UNL     1      33.670 -13.543 -24.009  0.00  0.00    +0.251 C 
ATOM     32  H   UNL     1      34.587 -13.901 -22.230  0.00  0.00    +0.157 HD
ATOM     33  N   UNL     1      35.204 -16.326 -22.078  0.00  0.00    -0.229 NA
ATOM     34  C   UNL     1      34.580 -15.741 -23.125  0.00  0.00    +0.134 C 
ATOM     35  C   UNL     1      34.193 -16.415 -24.272  0.00  0.00    +0.034 C 
ATOM     36  C   UNL     1      34.461 -17.777 -24.349  0.00  0.00    +0.004 C 
ATOM     37  C   UNL     1      35.450 -17.651 -22.189  0.00  0.00    +0.100 C 
ATOM     38  C   UNL     1      35.102 -18.414 -23.291  0.00  0.00    +0.021 C 
ENDBRANCH  28  31
ENDBRANCH   7  23
TORSDOF 4
ENDMDL
MODEL 3
REMARK VINA RESULT:     -10.9      1.658      2.476
REMARK  Name = 71226662
REMARK  4 active torsions:
REMARK  status: ('A' for Active; 'I' for Inactive)
REMARK    1  A    between atoms: C_5  and  C_15
REMARK    2  A    between atoms: C_7  and  C_23
REMARK    3  A    between atoms: C_19  and  C_20
REMARK    4  A    between atoms: C_28  and  C_31
REMARK                            x       y       z     vdW  Elec       q    Type
REMARK                         _______ _______ _______ _____ _____    ______ ____
ROOT
ATOM      1  N   UNL     1      35.784 -24.567 -13.094  0.00  0.00    -0.251 N 
ATOM      2  N   UNL     1      36.909 -24.446 -15.003  0.00  0.00    -0.392 NA
ATOM      3  N   UNL     1      33.384 -23.482 -12.224  0.00  0.00    -0.231 NA
ATOM      4  N   UNL     1      32.986 -22.401 -14.236  0.00  0.00    -0.344 N 
ATOM      5  C   UNL     1      36.899 -24.949 -13.786  0.00  0.00    +0.182 C 
ATOM      6  C   UNL     1      35.037 -23.769 -13.925  0.00  0.00    +0.185 C 
ATOM      7  C   UNL     1      35.752 -23.707 -15.098  0.00  0.00    +0.136 C 
ATOM      8  C   UNL     1      35.345 -24.836 -11.814  0.00  0.00    +0.089 C 
ATOM      9  C   UNL     1      33.780 -23.207 -13.452  0.00  0.00    +0.128 C 
ATOM     10  C   UNL     1      34.177 -24.293 -11.429  0.00  0.00    +0.116 C 
ATOM     11  H   UNL     1      32.142 -22.043 -13.876  0.00  0.00    +0.143 HD
ATOM     12  H   UNL     1      33.260 -22.183 -15.155  0.00  0.00    +0.143 HD
ENDROOT
BRANCH   5  15
ATOM     13  O   UNL     1      37.001 -28.085 -14.754  0.00  0.00    -0.260 OA
ATOM     14  N   UNL     1      38.714 -26.630 -14.177  0.00  0.00    -0.263 N 
ATOM     15  C   UNL     1      37.967 -25.846 -13.188  0.00  0.00    +0.143 C 
ATOM     16  C   UNL     1      39.055 -25.051 -12.453  0.00  0.00    +0.030 C 
ATOM     17  C   UNL     1      40.152 -24.881 -13.500  0.00  0.00    +0.024 C 
ATOM     18  C   UNL     1      40.105 -26.193 -14.268  0.00  0.00    +0.095 C 
ATOM     19  C   UNL     1      38.169 -27.723 -14.834  0.00  0.00    +0.293 C 
BRANCH  19  20
ATOM     20  C   UNL     1      39.054 -28.493 -15.680  0.00  0.00    -0.007 C 
ATOM     21  C   UNL     1      39.788 -29.132 -16.383  0.00  0.00    -0.081 C 
ATOM     22  C   UNL     1      40.682 -29.910 -17.239  0.00  0.00    +0.090 C 
ENDBRANCH  19  20
ENDBRANCH   5  15
BRANCH   7  23
ATOM     23  C   UNL     1      35.393 -22.995 -16.285  0.00  0.00    +0.028 C 
ATOM     24  C   UNL     1      36.332 -22.179 -16.920  0.00  0.00    +0.002 C 
ATOM     25  C   UNL     1      34.106 -23.114 -16.808  0.00  0.00    +0.002 C 
ATOM     26  C   UNL     1      35.981 -21.484 -18.077  0.00  0.00    +0.005 C 
ATOM     27  C   UNL     1      33.756 -22.418 -17.965  0.00  0.00    +0.005 C 
ATOM     28  C   UNL     1      34.693 -21.603 -18.600  0.00  0.00    +0.054 C 
BRANCH  28  31
ATOM     29  O   UNL     1      33.275 -21.177 -20.394  0.00  0.00    -0.270 OA
ATOM     30  N   UNL     1      35.235 -19.896 -20.229  0.00  0.00    -0.266 N 
ATOM     31  C   UNL     1      34.329 -20.879 -19.808  0.00  0.00    +0.251 C 
ATOM     32  H   UNL     1      36.028 -19.772 -19.659  0.00  0.00    +0.157 HD
ATOM     33  N   UNL     1      36.157 -18.171 -21.584  0.00  0.00    -0.229 NA
ATOM     34  C   UNL     1      35.159 -19.058 -21.369  0.00  0.00    +0.134 C 
ATOM     35  C   UNL     1      34.057 -19.202 -22.196  0.00  0.00    +0.034 C 
ATOM     36  C   UNL     1      33.974 -18.384 -23.317  0.00  0.00    +0.004 C 
ATOM     37  C   UNL     1      36.041 -17.393 -22.683  0.00  0.00    +0.100 C 
ATOM     38  C   UNL     1      34.981 -17.459 -23.573  0.00  0.00    +0.021 C 
ENDBRANCH  28  31
ENDBRANCH   7  23
TORSDOF 4
ENDMDL
MODEL 4
REMARK VINA RESULT:      -9.8      1.081      1.427
REMARK  Name = 71226662
REMARK  4 active torsions:
REMARK  status: ('A' for Active; 'I' for Inactive)
REMARK    1  A    between atoms: C_5  and  C_15
REMARK    2  A    between atoms: C_7  and  C_23
REMARK    3  A    between atoms: C_19  and  C_20
REMARK    4  A    between atoms: C_28  and  C_31
REMARK                            x       y       z     vdW  Elec       q    Type
REMARK                         _______ _______ _______ _____ _____    ______ ____
ROOT
ATOM      1  N   UNL     1      33.270 -24.398 -13.847  0.00  0.00    -0.251 N 
ATOM      2  N   UNL     1      34.991 -23.644 -15.029  0.00  0.00    -0.392 NA
ATOM      3  N   UNL     1      30.521 -24.284 -14.199  0.00  0.00    -0.231 NA
ATOM      4  N   UNL     1      30.687 -23.108 -16.191  0.00  0.00    -0.344 N 
ATOM      5  C   UNL     1      34.630 -24.295 -13.943  0.00  0.00    +0.182 C 
ATOM      6  C   UNL     1      32.732 -23.771 -14.945  0.00  0.00    +0.185 C 
ATOM      7  C   UNL     1      33.814 -23.313 -15.660  0.00  0.00    +0.136 C 
ATOM      8  C   UNL     1      32.443 -24.977 -12.907  0.00  0.00    +0.089 C 
ATOM      9  C   UNL     1      31.287 -23.720 -15.114  0.00  0.00    +0.128 C 
ATOM     10  C   UNL     1      31.117 -24.902 -13.112  0.00  0.00    +0.116 C 
ATOM     11  H   UNL     1      29.705 -23.097 -16.266  0.00  0.00    +0.143 HD
ATOM     12  H   UNL     1      31.238 -22.682 -16.886  0.00  0.00    +0.143 HD
ENDROOT
BRANCH   5  15
ATOM     13  O   UNL     1      35.979 -27.226 -14.548  0.00  0.00    -0.260 OA
ATOM     14  N   UNL     1      36.837 -25.371 -13.450  0.00  0.00    -0.263 N 
ATOM     15  C   UNL     1      35.570 -24.876 -12.902  0.00  0.00    +0.143 C 
ATOM     16  C   UNL     1      36.002 -23.838 -11.858  0.00  0.00    +0.030 C 
ATOM     17  C   UNL     1      37.333 -23.317 -12.392  0.00  0.00    +0.024 C 
ATOM     18  C   UNL     1      37.965 -24.552 -13.013  0.00  0.00    +0.095 C 
ATOM     19  C   UNL     1      36.930 -26.543 -14.185  0.00  0.00    +0.293 C 
BRANCH  19  20
ATOM     20  C   UNL     1      38.256 -26.991 -14.548  0.00  0.00    -0.007 C 
ATOM     21  C   UNL     1      39.357 -27.364 -14.849  0.00  0.00    -0.081 C 
ATOM     22  C   UNL     1      40.697 -27.818 -15.217  0.00  0.00    +0.090 C 
ENDBRANCH  19  20
ENDBRANCH   5  15
BRANCH   7  23
ATOM     23  C   UNL     1      33.783 -22.589 -16.893  0.00  0.00    +0.028 C 
ATOM     24  C   UNL     1      34.959 -22.399 -17.621  0.00  0.00    +0.002 C 
ATOM     25  C   UNL     1      32.578 -22.072 -17.369  0.00  0.00    +0.002 C 
ATOM     26  C   UNL     1      34.928 -21.692 -18.822  0.00  0.00    +0.005 C 
ATOM     27  C   UNL     1      32.548 -21.366 -18.571  0.00  0.00    +0.005 C 
ATOM     28  C   UNL     1      33.723 -21.175 -19.298  0.00  0.00    +0.054 C 
BRANCH  28  31
ATOM     29  O   UNL     1      32.917 -20.812 -21.449  0.00  0.00    -0.270 OA
ATOM     30  N   UNL     1      34.578 -19.359 -20.651  0.00  0.00    -0.266 N 
ATOM     31  C   UNL     1      33.691 -20.440 -20.552  0.00  0.00    +0.251 C 
ATOM     32  H   UNL     1      35.130 -19.184 -19.855  0.00  0.00    +0.157 HD
ATOM     33  N   UNL     1      35.702 -17.500 -21.621  0.00  0.00    -0.229 NA
ATOM     34  C   UNL     1      34.785 -18.486 -21.747  0.00  0.00    +0.134 C 
ATOM     35  C   UNL     1      34.026 -18.699 -22.886  0.00  0.00    +0.034 C 
ATOM     36  C   UNL     1      34.223 -17.848 -23.968  0.00  0.00    +0.004 C 
ATOM     37  C   UNL     1      35.865 -16.691 -22.692  0.00  0.00    +0.100 C 
ATOM     38  C   UNL     1      35.158 -16.822 -23.877  0.00  0.00    +0.021 C 
ENDBRANCH  28  31
ENDBRANCH   7  23
TORSDOF 4
ENDMDL
