MODEL 1
REMARK VINA RESULT:     -11.5      0.000      0.000
REMARK  Name = 10200651
REMARK  5 active torsions:
REMARK  status: ('A' for Active; 'I' for Inactive)
REMARK    1  A    between atoms: C_1  and  C_7
REMARK    2  A    between atoms: C_4  and  C_22
REMARK    3  A    between atoms: C_10  and  C_17
REMARK    4  A    between atoms: N_21  and  C_24
REMARK    5  A    between atoms: C_27  and  C_31
REMARK                            x       y       z     vdW  Elec       q    Type
REMARK                         _______ _______ _______ _____ _____    ______ ____
ROOT
ATOM      1  C   UNL     1      32.625  -9.708 -22.268  0.00  0.00    -0.000 C 
ATOM      2  C   UNL     1      31.980 -10.811 -21.708  0.00  0.00    +0.000 C 
ATOM      3  C   UNL     1      33.571  -9.889 -23.275  0.00  0.00    +0.000 C 
ATOM      4  C   UNL     1      33.222 -12.248 -23.156  0.00  0.00    +0.054 C 
ATOM      5  C   UNL     1      32.282 -12.097 -22.158  0.00  0.00    +0.005 C 
ATOM      6  C   UNL     1      33.873 -11.174 -23.725  0.00  0.00    +0.005 C 
ENDROOT
BRANCH   1   7
ATOM      7  C   UNL     1      32.311  -8.374 -21.801  0.00  0.00    -0.004 C 
ATOM      8  C   UNL     1      32.197  -8.094 -20.438  0.00  0.00    -0.022 C 
ATOM      9  C   UNL     1      32.121  -7.356 -22.737  0.00  0.00    +0.004 C 
ATOM     10  C   UNL     1      31.816  -6.062 -22.313  0.00  0.00    +0.055 C 
ATOM     11  C   UNL     1      31.893  -6.801 -20.014  0.00  0.00    -0.004 C 
ATOM     12  C   UNL     1      31.703  -5.785 -20.950  0.00  0.00    +0.004 C 
ATOM     13  C   UNL     1      32.393  -9.156 -19.406  0.00  0.00    +0.031 C 
BRANCH  10  17
ATOM     14  O   UNL     1      32.363  -5.109 -24.413  0.00  0.00    -0.420 OA
ATOM     15  N   UNL     1      30.834  -3.968 -23.245  0.00  0.00    -0.107 NA
ATOM     16  N   UNL     1      31.050  -3.298 -24.435  0.00  0.00    -0.111 NA
ATOM     17  C   UNL     1      31.619  -5.012 -23.281  0.00  0.00    +0.250 A 
ATOM     18  C   UNL     1      31.950  -3.999 -25.084  0.00  0.00    +0.227 A 
ATOM     19  C   UNL     1      32.554  -3.758 -26.399  0.00  0.00    +0.097 C 
ENDBRANCH  10  17
ENDBRANCH   1   7
BRANCH   4  22
ATOM     20  O   UNL     1      33.304 -13.885 -24.806  0.00  0.00    -0.270 OA
ATOM     21  N   UNL     1      34.120 -14.468 -22.680  0.00  0.00    -0.280 N 
ATOM     22  C   UNL     1      33.545 -13.618 -23.634  0.00  0.00    +0.249 C 
ATOM     23  H   UNL     1      34.242 -14.087 -21.779  0.00  0.00    +0.155 HD
BRANCH  21  24
ATOM     24  C   UNL     1      34.545 -15.787 -22.848  0.00  0.00    +0.051 C 
ATOM     25  C   UNL     1      35.328 -16.398 -21.869  0.00  0.00    +0.025 C 
ATOM     26  C   UNL     1      34.185 -16.494 -23.995  0.00  0.00    +0.015 C 
ATOM     27  C   UNL     1      35.753 -17.716 -22.037  0.00  0.00    +0.070 C 
ATOM     28  C   UNL     1      34.609 -17.812 -24.164  0.00  0.00    +0.002 C 
ATOM     29  C   UNL     1      35.393 -18.422 -23.185  0.00  0.00    +0.010 C 
BRANCH  27  31
ATOM     30  N   UNL     1      37.209 -18.852 -20.221  0.00  0.00    -0.191 NA
ATOM     31  C   UNL     1      36.555 -18.342 -21.035  0.00  0.00    +0.100 C 
ENDBRANCH  27  31
ENDBRANCH  21  24
ENDBRANCH   4  22
TORSDOF 5
ENDMDL
MODEL 2
REMARK VINA RESULT:     -11.5      5.254     10.307
REMARK  Name = 10200651
REMARK  5 active torsions:
REMARK  status: ('A' for Active; 'I' for Inactive)
REMARK    1  A    between atoms: C_1  and  C_7
REMARK    2  A    between atoms: C_4  and  C_22
REMARK    3  A    between atoms: C_10  and  C_17
REMARK    4  A    between atoms: N_21  and  C_24
REMARK    5  A    between atoms: C_27  and  C_31
REMARK                            x       y       z     vdW  Elec       q    Type
REMARK                         _______ _______ _______ _____ _____    ______ ____
ROOT
ATOM      1  C   UNL     1      34.853 -19.253 -21.259  0.00  0.00    -0.000 C 
ATOM      2  C   UNL     1      33.711 -19.878 -20.757  0.00  0.00    +0.000 C 
ATOM      3  C   UNL     1      36.103 -19.543 -20.716  0.00  0.00    +0.000 C 
ATOM      4  C   UNL     1      35.071 -21.064 -19.192  0.00  0.00    +0.054 C 
ATOM      5  C   UNL     1      33.821 -20.794 -19.712  0.00  0.00    +0.005 C 
ATOM      6  C   UNL     1      36.214 -20.459 -19.671  0.00  0.00    +0.005 C 
ENDROOT
BRANCH   1   7
ATOM      7  C   UNL     1      34.738 -18.302 -22.344  0.00  0.00    -0.004 C 
ATOM      8  C   UNL     1      34.750 -18.720 -23.676  0.00  0.00    -0.022 C 
ATOM      9  C   UNL     1      34.613 -16.943 -22.045  0.00  0.00    +0.004 C 
ATOM     10  C   UNL     1      34.502 -16.007 -23.073  0.00  0.00    +0.055 C 
ATOM     11  C   UNL     1      34.639 -17.784 -24.704  0.00  0.00    -0.004 C 
ATOM     12  C   UNL     1      34.514 -16.428 -24.403  0.00  0.00    +0.004 C 
ATOM     13  C   UNL     1      34.882 -20.164 -24.037  0.00  0.00    +0.031 C 
BRANCH  10  17
ATOM     14  O   UNL     1      34.142 -13.787 -23.821  0.00  0.00    -0.420 OA
ATOM     15  N   UNL     1      34.447 -13.985 -21.614  0.00  0.00    -0.107 NA
ATOM     16  N   UNL     1      34.252 -12.647 -21.899  0.00  0.00    -0.111 NA
ATOM     17  C   UNL     1      34.374 -14.605 -22.762  0.00  0.00    +0.250 A 
ATOM     18  C   UNL     1      34.080 -12.578 -23.198  0.00  0.00    +0.227 A 
ATOM     19  C   UNL     1      33.833 -11.408 -24.049  0.00  0.00    +0.097 C 
ENDBRANCH  10  17
ENDBRANCH   1   7
BRANCH   4  22
ATOM     20  O   UNL     1      34.473 -23.036 -18.114  0.00  0.00    -0.270 OA
ATOM     21  N   UNL     1      36.136 -21.721 -17.096  0.00  0.00    -0.280 N 
ATOM     22  C   UNL     1      35.188 -22.040 -18.078  0.00  0.00    +0.249 C 
ATOM     23  H   UNL     1      36.624 -20.875 -17.226  0.00  0.00    +0.155 HD
BRANCH  21  24
ATOM     24  C   UNL     1      36.477 -22.456 -15.960  0.00  0.00    +0.051 C 
ATOM     25  C   UNL     1      35.494 -22.809 -15.036  0.00  0.00    +0.025 C 
ATOM     26  C   UNL     1      37.802 -22.837 -15.748  0.00  0.00    +0.015 C 
ATOM     27  C   UNL     1      35.835 -23.543 -13.900  0.00  0.00    +0.070 C 
ATOM     28  C   UNL     1      38.144 -23.571 -14.613  0.00  0.00    +0.002 C 
ATOM     29  C   UNL     1      37.161 -23.923 -13.689  0.00  0.00    +0.010 C 
BRANCH  27  31
ATOM     30  N   UNL     1      34.009 -24.199 -12.184  0.00  0.00    -0.191 NA
ATOM     31  C   UNL     1      34.829 -23.904 -12.953  0.00  0.00    +0.100 C 
ENDBRANCH  27  31
ENDBRANCH  21  24
ENDBRANCH   4  22
TORSDOF 5
ENDMDL
MODEL 3
REMARK VINA RESULT:     -11.4      7.696     15.735
REMARK  Name = 10200651
REMARK  5 active torsions:
REMARK  status: ('A' for Active; 'I' for Inactive)
REMARK    1  A    between atoms: C_1  and  C_7
REMARK    2  A    between atoms: C_4  and  C_22
REMARK    3  A    between atoms: C_10  and  C_17
REMARK    4  A    between atoms: N_21  and  C_24
REMARK    5  A    between atoms: C_27  and  C_31
REMARK                            x       y       z     vdW  Elec       q    Type
REMARK                         _______ _______ _______ _____ _____    ______ ____
ROOT
ATOM      1  C   UNL     1      34.923 -22.739 -16.512  0.00  0.00    -0.000 C 
ATOM      2  C   UNL     1      35.873 -21.992 -17.209  0.00  0.00    +0.000 C 
ATOM      3  C   UNL     1      33.611 -22.808 -16.977  0.00  0.00    +0.000 C 
ATOM      4  C   UNL     1      34.204 -21.400 -18.812  0.00  0.00    +0.054 C 
ATOM      5  C   UNL     1      35.510 -21.315 -18.373  0.00  0.00    +0.005 C 
ATOM      6  C   UNL     1      33.247 -22.131 -18.141  0.00  0.00    +0.005 C 
ENDROOT
BRANCH   1   7
ATOM      7  C   UNL     1      35.301 -23.441 -15.304  0.00  0.00    -0.004 C 
ATOM      8  C   UNL     1      34.377 -23.668 -14.282  0.00  0.00    -0.022 C 
ATOM      9  C   UNL     1      36.614 -23.896 -15.166  0.00  0.00    +0.004 C 
ATOM     10  C   UNL     1      37.002 -24.574 -14.011  0.00  0.00    +0.055 C 
ATOM     11  C   UNL     1      34.765 -24.346 -13.127  0.00  0.00    -0.004 C 
ATOM     12  C   UNL     1      36.077 -24.800 -12.991  0.00  0.00    +0.004 C 
ATOM     13  C   UNL     1      32.963 -23.197 -14.391  0.00  0.00    +0.031 C 
BRANCH  10  17
ATOM     14  O   UNL     1      38.642 -26.217 -14.491  0.00  0.00    -0.420 OA
ATOM     15  N   UNL     1      39.372 -24.516 -13.234  0.00  0.00    -0.107 NA
ATOM     16  N   UNL     1      40.428 -25.387 -13.428  0.00  0.00    -0.111 NA
ATOM     17  C   UNL     1      38.359 -25.043 -13.870  0.00  0.00    +0.250 A 
ATOM     18  C   UNL     1      39.956 -26.364 -14.166  0.00  0.00    +0.227 A 
ATOM     19  C   UNL     1      40.633 -27.562 -14.676  0.00  0.00    +0.097 C 
ENDBRANCH  10  17
ENDBRANCH   1   7
BRANCH   4  22
ATOM     20  O   UNL     1      32.648 -20.750 -20.413  0.00  0.00    -0.270 OA
ATOM     21  N   UNL     1      34.846 -19.960 -20.676  0.00  0.00    -0.280 N 
ATOM     22  C   UNL     1      33.817 -20.678 -20.052  0.00  0.00    +0.249 C 
ATOM     23  H   UNL     1      35.732 -20.014 -20.247  0.00  0.00    +0.155 HD
BRANCH  21  24
ATOM     24  C   UNL     1      34.772 -19.176 -21.828  0.00  0.00    +0.051 C 
ATOM     25  C   UNL     1      34.864 -17.788 -21.735  0.00  0.00    +0.025 C 
ATOM     26  C   UNL     1      34.604 -19.782 -23.074  0.00  0.00    +0.015 C 
ATOM     27  C   UNL     1      34.790 -17.005 -22.887  0.00  0.00    +0.070 C 
ATOM     28  C   UNL     1      34.529 -19.000 -24.226  0.00  0.00    +0.002 C 
ATOM     29  C   UNL     1      34.621 -17.611 -24.132  0.00  0.00    +0.010 C 
BRANCH  27  31
ATOM     30  N   UNL     1      34.962 -14.426 -22.714  0.00  0.00    -0.191 NA
ATOM     31  C   UNL     1      34.884 -15.583 -22.792  0.00  0.00    +0.100 C 
ENDBRANCH  27  31
ENDBRANCH  21  24
ENDBRANCH   4  22
TORSDOF 5
ENDMDL
MODEL 4
REMARK VINA RESULT:     -11.4      4.539     12.473
REMARK  Name = 10200651
REMARK  5 active torsions:
REMARK  status: ('A' for Active; 'I' for Inactive)
REMARK    1  A    between atoms: C_1  and  C_7
REMARK    2  A    between atoms: C_4  and  C_22
REMARK    3  A    between atoms: C_10  and  C_17
REMARK    4  A    between atoms: N_21  and  C_24
REMARK    5  A    between atoms: C_27  and  C_31
REMARK                            x       y       z     vdW  Elec       q    Type
REMARK                         _______ _______ _______ _____ _____    ______ ____
ROOT
ATOM      1  C   UNL     1      34.915 -19.077 -21.054  0.00  0.00    -0.000 C 
ATOM      2  C   UNL     1      34.423 -19.380 -22.323  0.00  0.00    +0.000 C 
ATOM      3  C   UNL     1      35.267 -17.766 -20.735  0.00  0.00    +0.000 C 
ATOM      4  C   UNL     1      34.636 -17.081 -22.934  0.00  0.00    +0.054 C 
ATOM      5  C   UNL     1      34.281 -18.370 -23.274  0.00  0.00    +0.005 C 
ATOM      6  C   UNL     1      35.125 -16.756 -21.687  0.00  0.00    +0.005 C 
ENDROOT
BRANCH   1   7
ATOM      7  C   UNL     1      35.063 -20.126 -20.067  0.00  0.00    -0.004 C 
ATOM      8  C   UNL     1      36.312 -20.678 -19.780  0.00  0.00    -0.022 C 
ATOM      9  C   UNL     1      33.929 -20.587 -19.394  0.00  0.00    +0.004 C 
ATOM     10  C   UNL     1      34.045 -21.598 -18.439  0.00  0.00    +0.055 C 
ATOM     11  C   UNL     1      36.428 -21.688 -18.825  0.00  0.00    -0.004 C 
ATOM     12  C   UNL     1      35.295 -22.147 -18.154  0.00  0.00    +0.004 C 
ATOM     13  C   UNL     1      37.549 -20.211 -20.478  0.00  0.00    +0.031 C 
BRANCH  10  17
ATOM     14  O   UNL     1      33.110 -22.826 -16.640  0.00  0.00    -0.420 OA
ATOM     15  N   UNL     1      31.606 -21.899 -18.012  0.00  0.00    -0.107 NA
ATOM     16  N   UNL     1      30.920 -22.577 -17.022  0.00  0.00    -0.111 NA
ATOM     17  C   UNL     1      32.873 -22.074 -17.746  0.00  0.00    +0.250 A 
ATOM     18  C   UNL     1      31.837 -23.102 -16.245  0.00  0.00    +0.227 A 
ATOM     19  C   UNL     1      31.683 -23.925 -15.039  0.00  0.00    +0.097 C 
ENDBRANCH  10  17
ENDBRANCH   1   7
BRANCH   4  22
ATOM     20  O   UNL     1      34.653 -16.303 -25.126  0.00  0.00    -0.270 OA
ATOM     21  N   UNL     1      34.139 -14.745 -23.442  0.00  0.00    -0.280 N 
ATOM     22  C   UNL     1      34.485 -16.005 -23.948  0.00  0.00    +0.249 C 
ATOM     23  H   UNL     1      34.045 -14.685 -22.463  0.00  0.00    +0.155 HD
BRANCH  21  24
ATOM     24  C   UNL     1      33.909 -13.566 -24.153  0.00  0.00    +0.051 C 
ATOM     25  C   UNL     1      34.080 -12.331 -23.529  0.00  0.00    +0.025 C 
ATOM     26  C   UNL     1      33.509 -13.624 -25.488  0.00  0.00    +0.015 C 
ATOM     27  C   UNL     1      33.850 -11.153 -24.240  0.00  0.00    +0.070 C 
ATOM     28  C   UNL     1      33.279 -12.447 -26.199  0.00  0.00    +0.002 C 
ATOM     29  C   UNL     1      33.449 -11.212 -25.575  0.00  0.00    +0.010 C 
BRANCH  27  31
ATOM     30  N   UNL     1      34.167  -8.857 -23.083  0.00  0.00    -0.191 NA
ATOM     31  C   UNL     1      34.025  -9.887 -23.602  0.00  0.00    +0.100 C 
ENDBRANCH  27  31
ENDBRANCH  21  24
ENDBRANCH   4  22
TORSDOF 5
ENDMDL
MODEL 5
REMARK VINA RESULT:     -11.4      5.204     10.390
REMARK  Name = 10200651
REMARK  5 active torsions:
REMARK  status: ('A' for Active; 'I' for Inactive)
REMARK    1  A    between atoms: C_1  and  C_7
REMARK    2  A    between atoms: C_4  and  C_22
REMARK    3  A    between atoms: C_10  and  C_17
REMARK    4  A    between atoms: N_21  and  C_24
REMARK    5  A    between atoms: C_27  and  C_31
REMARK                            x       y       z     vdW  Elec       q    Type
REMARK                         _______ _______ _______ _____ _____    ______ ____
ROOT
ATOM      1  C   UNL     1      34.930 -19.333 -21.130  0.00  0.00    -0.000 C 
ATOM      2  C   UNL     1      36.187 -19.610 -20.591  0.00  0.00    +0.000 C 
ATOM      3  C   UNL     1      33.795 -19.953 -20.609  0.00  0.00    +0.000 C 
ATOM      4  C   UNL     1      35.169 -21.107 -19.033  0.00  0.00    +0.054 C 
ATOM      5  C   UNL     1      36.307 -20.507 -19.530  0.00  0.00    +0.005 C 
ATOM      6  C   UNL     1      33.916 -20.850 -19.549  0.00  0.00    +0.005 C 
ENDROOT
BRANCH   1   7
ATOM      7  C   UNL     1      34.805 -18.401 -22.230  0.00  0.00    -0.004 C 
ATOM      8  C   UNL     1      34.812 -18.843 -23.555  0.00  0.00    -0.022 C 
ATOM      9  C   UNL     1      34.676 -17.039 -21.954  0.00  0.00    +0.004 C 
ATOM     10  C   UNL     1      34.556 -16.121 -22.998  0.00  0.00    +0.055 C 
ATOM     11  C   UNL     1      34.692 -17.926 -24.598  0.00  0.00    -0.004 C 
ATOM     12  C   UNL     1      34.563 -16.566 -24.321  0.00  0.00    +0.004 C 
ATOM     13  C   UNL     1      34.949 -20.293 -23.892  0.00  0.00    +0.031 C 
BRANCH  10  17
ATOM     14  O   UNL     1      34.161 -13.918 -23.780  0.00  0.00    -0.420 OA
ATOM     15  N   UNL     1      34.517 -14.072 -21.577  0.00  0.00    -0.107 NA
ATOM     16  N   UNL     1      34.304 -12.741 -21.883  0.00  0.00    -0.111 NA
ATOM     17  C   UNL     1      34.423 -14.714 -22.711  0.00  0.00    +0.250 A 
ATOM     18  C   UNL     1      34.103 -12.698 -23.179  0.00  0.00    +0.227 A 
ATOM     19  C   UNL     1      33.828 -11.547 -24.046  0.00  0.00    +0.097 C 
ENDBRANCH  10  17
ENDBRANCH   1   7
BRANCH   4  22
ATOM     20  O   UNL     1      34.530 -23.020 -17.874  0.00  0.00    -0.270 OA
ATOM     21  N   UNL     1      36.318 -21.778 -16.986  0.00  0.00    -0.280 N 
ATOM     22  C   UNL     1      35.298 -22.064 -17.904  0.00  0.00    +0.249 C 
ATOM     23  H   UNL     1      36.842 -20.963 -17.164  0.00  0.00    +0.155 HD
BRANCH  21  24
ATOM     24  C   UNL     1      36.685 -22.506 -15.854  0.00  0.00    +0.051 C 
ATOM     25  C   UNL     1      37.936 -23.118 -15.793  0.00  0.00    +0.025 C 
ATOM     26  C   UNL     1      35.800 -22.621 -14.782  0.00  0.00    +0.015 C 
ATOM     27  C   UNL     1      38.303 -23.846 -14.660  0.00  0.00    +0.070 C 
ATOM     28  C   UNL     1      36.165 -23.349 -13.650  0.00  0.00    +0.002 C 
ATOM     29  C   UNL     1      37.417 -23.961 -13.590  0.00  0.00    +0.010 C 
BRANCH  27  31
ATOM     30  N   UNL     1      40.628 -24.983 -14.546  0.00  0.00    -0.191 NA
ATOM     31  C   UNL     1      39.585 -24.473 -14.598  0.00  0.00    +0.100 C 
ENDBRANCH  27  31
ENDBRANCH  21  24
ENDBRANCH   4  22
TORSDOF 5
ENDMDL
MODEL 6
REMARK VINA RESULT:     -11.2      5.596     10.562
REMARK  Name = 10200651
REMARK  5 active torsions:
REMARK  status: ('A' for Active; 'I' for Inactive)
REMARK    1  A    between atoms: C_1  and  C_7
REMARK    2  A    between atoms: C_4  and  C_22
REMARK    3  A    between atoms: C_10  and  C_17
REMARK    4  A    between atoms: N_21  and  C_24
REMARK    5  A    between atoms: C_27  and  C_31
REMARK                            x       y       z     vdW  Elec       q    Type
REMARK                         _______ _______ _______ _____ _____    ______ ____
ROOT
ATOM      1  C   UNL     1      34.563 -19.507 -21.231  0.00  0.00    -0.000 C 
ATOM      2  C   UNL     1      35.734 -19.995 -20.649  0.00  0.00    +0.000 C 
ATOM      3  C   UNL     1      33.323 -19.981 -20.807  0.00  0.00    +0.000 C 
ATOM      4  C   UNL     1      34.423 -21.411 -19.242  0.00  0.00    +0.054 C 
ATOM      5  C   UNL     1      35.663 -20.958 -19.643  0.00  0.00    +0.005 C 
ATOM      6  C   UNL     1      33.252 -20.944 -19.801  0.00  0.00    +0.005 C 
ENDROOT
BRANCH   1   7
ATOM      7  C   UNL     1      34.637 -18.508 -22.275  0.00  0.00    -0.004 C 
ATOM      8  C   UNL     1      34.833 -18.870 -23.609  0.00  0.00    -0.022 C 
ATOM      9  C   UNL     1      34.510 -17.160 -21.934  0.00  0.00    +0.004 C 
ATOM     10  C   UNL     1      34.579 -16.178 -22.922  0.00  0.00    +0.055 C 
ATOM     11  C   UNL     1      34.902 -17.889 -24.597  0.00  0.00    -0.004 C 
ATOM     12  C   UNL     1      34.774 -16.543 -24.255  0.00  0.00    +0.004 C 
ATOM     13  C   UNL     1      34.974 -20.302 -24.014  0.00  0.00    +0.031 C 
BRANCH  10  17
ATOM     14  O   UNL     1      34.208 -13.937 -23.600  0.00  0.00    -0.420 OA
ATOM     15  N   UNL     1      34.525 -14.201 -21.402  0.00  0.00    -0.107 NA
ATOM     16  N   UNL     1      34.324 -12.855 -21.645  0.00  0.00    -0.111 NA
ATOM     17  C   UNL     1      34.448 -14.786 -22.568  0.00  0.00    +0.250 A 
ATOM     18  C   UNL     1      34.145 -12.748 -22.941  0.00  0.00    +0.227 A 
ATOM     19  C   UNL     1      33.890 -11.553 -23.754  0.00  0.00    +0.097 C 
ENDBRANCH  10  17
ENDBRANCH   1   7
BRANCH   4  22
ATOM     20  O   UNL     1      33.732 -23.470 -18.411  0.00  0.00    -0.270 OA
ATOM     21  N   UNL     1      35.020 -22.118 -16.982  0.00  0.00    -0.280 N 
ATOM     22  C   UNL     1      34.347 -22.437 -18.170  0.00  0.00    +0.249 C 
ATOM     23  H   UNL     1      35.463 -21.238 -16.961  0.00  0.00    +0.155 HD
BRANCH  21  24
ATOM     24  C   UNL     1      35.140 -22.892 -15.828  0.00  0.00    +0.051 C 
ATOM     25  C   UNL     1      34.001 -23.261 -15.113  0.00  0.00    +0.025 C 
ATOM     26  C   UNL     1      36.400 -23.297 -15.388  0.00  0.00    +0.015 C 
ATOM     27  C   UNL     1      34.121 -24.035 -13.958  0.00  0.00    +0.070 C 
ATOM     28  C   UNL     1      36.522 -24.071 -14.234  0.00  0.00    +0.002 C 
ATOM     29  C   UNL     1      35.382 -24.439 -13.519  0.00  0.00    +0.010 C 
BRANCH  27  31
ATOM     30  N   UNL     1      32.006 -24.720 -12.629  0.00  0.00    -0.191 NA
ATOM     31  C   UNL     1      32.955 -24.412 -13.226  0.00  0.00    +0.100 C 
ENDBRANCH  27  31
ENDBRANCH  21  24
ENDBRANCH   4  22
TORSDOF 5
ENDMDL
MODEL 7
REMARK VINA RESULT:     -11.2      3.651     12.087
REMARK  Name = 10200651
REMARK  5 active torsions:
REMARK  status: ('A' for Active; 'I' for Inactive)
REMARK    1  A    between atoms: C_1  and  C_7
REMARK    2  A    between atoms: C_4  and  C_22
REMARK    3  A    between atoms: C_10  and  C_17
REMARK    4  A    between atoms: N_21  and  C_24
REMARK    5  A    between atoms: C_27  and  C_31
REMARK                            x       y       z     vdW  Elec       q    Type
REMARK                         _______ _______ _______ _____ _____    ______ ____
ROOT
ATOM      1  C   UNL     1      35.139 -17.673 -21.598  0.00  0.00    -0.000 C 
ATOM      2  C   UNL     1      34.949 -17.705 -22.979  0.00  0.00    +0.000 C 
ATOM      3  C   UNL     1      34.971 -16.479 -20.897  0.00  0.00    +0.000 C 
ATOM      4  C   UNL     1      34.429 -15.375 -22.944  0.00  0.00    +0.054 C 
ATOM      5  C   UNL     1      34.589 -16.543 -23.660  0.00  0.00    +0.005 C 
ATOM      6  C   UNL     1      34.611 -15.317 -21.578  0.00  0.00    +0.005 C 
ENDROOT
BRANCH   1   7
ATOM      7  C   UNL     1      35.512 -18.880 -20.891  0.00  0.00    -0.004 C 
ATOM      8  C   UNL     1      36.831 -19.338 -20.890  0.00  0.00    -0.022 C 
ATOM      9  C   UNL     1      34.530 -19.593 -20.201  0.00  0.00    +0.004 C 
ATOM     10  C   UNL     1      34.864 -20.760 -19.514  0.00  0.00    +0.055 C 
ATOM     11  C   UNL     1      37.166 -20.504 -20.203  0.00  0.00    -0.004 C 
ATOM     12  C   UNL     1      36.183 -21.215 -19.514  0.00  0.00    +0.004 C 
ATOM     13  C   UNL     1      37.911 -18.603 -21.616  0.00  0.00    +0.031 C 
BRANCH  10  17
ATOM     14  O   UNL     1      34.269 -22.159 -17.695  0.00  0.00    -0.420 OA
ATOM     15  N   UNL     1      32.572 -21.631 -19.054  0.00  0.00    -0.107 NA
ATOM     16  N   UNL     1      32.079 -22.443 -18.051  0.00  0.00    -0.111 NA
ATOM     17  C   UNL     1      33.848 -21.495 -18.803  0.00  0.00    +0.250 A 
ATOM     18  C   UNL     1      33.104 -22.728 -17.282  0.00  0.00    +0.227 A 
ATOM     19  C   UNL     1      33.164 -23.553 -16.070  0.00  0.00    +0.097 C 
ENDBRANCH  10  17
ENDBRANCH   1   7
BRANCH   4  22
ATOM     20  O   UNL     1      33.514 -14.258 -24.768  0.00  0.00    -0.270 OA
ATOM     21  N   UNL     1      34.322 -12.936 -23.000  0.00  0.00    -0.280 N 
ATOM     22  C   UNL     1      34.047 -14.135 -23.670  0.00  0.00    +0.249 C 
ATOM     23  H   UNL     1      34.758 -13.024 -22.120  0.00  0.00    +0.155 HD
BRANCH  21  24
ATOM     24  C   UNL     1      34.054 -11.634 -23.422  0.00  0.00    +0.051 C 
ATOM     25  C   UNL     1      33.220 -10.812 -22.665  0.00  0.00    +0.025 C 
ATOM     26  C   UNL     1      34.620 -11.153 -24.603  0.00  0.00    +0.015 C 
ATOM     27  C   UNL     1      32.952  -9.510 -23.088  0.00  0.00    +0.070 C 
ATOM     28  C   UNL     1      34.352  -9.852 -25.027  0.00  0.00    +0.002 C 
ATOM     29  C   UNL     1      33.518  -9.031 -24.269  0.00  0.00    +0.010 C 
BRANCH  27  31
ATOM     30  N   UNL     1      31.403  -7.983 -21.681  0.00  0.00    -0.191 NA
ATOM     31  C   UNL     1      32.097  -8.668 -22.312  0.00  0.00    +0.100 C 
ENDBRANCH  27  31
ENDBRANCH  21  24
ENDBRANCH   4  22
TORSDOF 5
ENDMDL
MODEL 8
REMARK VINA RESULT:     -11.0      1.277      1.935
REMARK  Name = 10200651
REMARK  5 active torsions:
REMARK  status: ('A' for Active; 'I' for Inactive)
REMARK    1  A    between atoms: C_1  and  C_7
REMARK    2  A    between atoms: C_4  and  C_22
REMARK    3  A    between atoms: C_10  and  C_17
REMARK    4  A    between atoms: N_21  and  C_24
REMARK    5  A    between atoms: C_27  and  C_31
REMARK                            x       y       z     vdW  Elec       q    Type
REMARK                         _______ _______ _______ _____ _____    ______ ____
ROOT
ATOM      1  C   UNL     1      32.572  -8.580 -22.410  0.00  0.00    -0.000 C 
ATOM      2  C   UNL     1      33.602  -9.224 -23.097  0.00  0.00    +0.000 C 
ATOM      3  C   UNL     1      31.631  -9.327 -21.703  0.00  0.00    +0.000 C 
ATOM      4  C   UNL     1      32.746 -11.331 -22.368  0.00  0.00    +0.054 C 
ATOM      5  C   UNL     1      33.690 -10.616 -23.076  0.00  0.00    +0.005 C 
ATOM      6  C   UNL     1      31.719 -10.718 -21.681  0.00  0.00    +0.005 C 
ENDROOT
BRANCH   1   7
ATOM      7  C   UNL     1      32.481  -7.136 -22.433  0.00  0.00    -0.004 C 
ATOM      8  C   UNL     1      32.365  -6.401 -21.252  0.00  0.00    -0.022 C 
ATOM      9  C   UNL     1      32.511  -6.474 -23.662  0.00  0.00    +0.004 C 
ATOM     10  C   UNL     1      32.424  -5.082 -23.710  0.00  0.00    +0.055 C 
ATOM     11  C   UNL     1      32.277  -5.010 -21.300  0.00  0.00    -0.004 C 
ATOM     12  C   UNL     1      32.308  -4.350 -22.528  0.00  0.00    +0.004 C 
ATOM     13  C   UNL     1      32.329  -7.072 -19.917  0.00  0.00    +0.031 C 
BRANCH  10  17
ATOM     14  O   UNL     1      33.426  -4.802 -25.840  0.00  0.00    -0.420 OA
ATOM     15  N   UNL     1      31.691  -3.446 -25.445  0.00  0.00    -0.107 NA
ATOM     16  N   UNL     1      32.169  -3.170 -26.712  0.00  0.00    -0.111 NA
ATOM     17  C   UNL     1      32.454  -4.401 -24.981  0.00  0.00    +0.250 A 
ATOM     18  C   UNL     1      33.181  -3.983 -26.900  0.00  0.00    +0.227 A 
ATOM     19  C   UNL     1      34.062  -4.129 -28.065  0.00  0.00    +0.097 C 
ENDBRANCH  10  17
ENDBRANCH   1   7
BRANCH   4  22
ATOM     20  O   UNL     1      31.955 -13.434 -21.764  0.00  0.00    -0.270 OA
ATOM     21  N   UNL     1      33.939 -13.358 -23.024  0.00  0.00    -0.280 N 
ATOM     22  C   UNL     1      32.840 -12.814 -22.346  0.00  0.00    +0.249 C 
ATOM     23  H   UNL     1      34.555 -12.709 -23.437  0.00  0.00    +0.155 HD
BRANCH  21  24
ATOM     24  C   UNL     1      34.267 -14.704 -23.190  0.00  0.00    +0.051 C 
ATOM     25  C   UNL     1      34.819 -15.423 -22.131  0.00  0.00    +0.025 C 
ATOM     26  C   UNL     1      34.042 -15.330 -24.416  0.00  0.00    +0.015 C 
ATOM     27  C   UNL     1      35.147 -16.769 -22.296  0.00  0.00    +0.070 C 
ATOM     28  C   UNL     1      34.370 -16.675 -24.583  0.00  0.00    +0.002 C 
ATOM     29  C   UNL     1      34.923 -17.394 -23.523  0.00  0.00    +0.010 C 
BRANCH  27  31
ATOM     30  N   UNL     1      36.173 -18.106 -20.329  0.00  0.00    -0.191 NA
ATOM     31  C   UNL     1      35.713 -17.506 -21.211  0.00  0.00    +0.100 C 
ENDBRANCH  27  31
ENDBRANCH  21  24
ENDBRANCH   4  22
TORSDOF 5
ENDMDL
MODEL 9
REMARK VINA RESULT:     -10.9      7.415     14.959
REMARK  Name = 10200651
REMARK  5 active torsions:
REMARK  status: ('A' for Active; 'I' for Inactive)
REMARK    1  A    between atoms: C_1  and  C_7
REMARK    2  A    between atoms: C_4  and  C_22
REMARK    3  A    between atoms: C_10  and  C_17
REMARK    4  A    between atoms: N_21  and  C_24
REMARK    5  A    between atoms: C_27  and  C_31
REMARK                            x       y       z     vdW  Elec       q    Type
REMARK                         _______ _______ _______ _____ _____    ______ ____
ROOT
ATOM      1  C   UNL     1      35.556 -22.353 -16.796  0.00  0.00    -0.000 C 
ATOM      2  C   UNL     1      36.748 -21.653 -16.984  0.00  0.00    +0.000 C 
ATOM      3  C   UNL     1      34.552 -22.296 -17.761  0.00  0.00    +0.000 C 
ATOM      4  C   UNL     1      35.926 -20.854 -19.079  0.00  0.00    +0.054 C 
ATOM      5  C   UNL     1      36.935 -20.894 -18.139  0.00  0.00    +0.005 C 
ATOM      6  C   UNL     1      34.739 -21.537 -18.917  0.00  0.00    +0.005 C 
ENDROOT
BRANCH   1   7
ATOM      7  C   UNL     1      35.362 -23.140 -15.597  0.00  0.00    -0.004 C 
ATOM      8  C   UNL     1      36.449 -23.613 -14.860  0.00  0.00    -0.022 C 
ATOM      9  C   UNL     1      34.062 -23.427 -15.177  0.00  0.00    +0.004 C 
ATOM     10  C   UNL     1      33.849 -24.185 -14.025  0.00  0.00    +0.055 C 
ATOM     11  C   UNL     1      36.237 -24.371 -13.708  0.00  0.00    -0.004 C 
ATOM     12  C   UNL     1      34.937 -24.656 -13.290  0.00  0.00    +0.004 C 
ATOM     13  C   UNL     1      37.856 -23.328 -15.276  0.00  0.00    +0.031 C 
BRANCH  10  17
ATOM     14  O   UNL     1      31.566 -24.515 -14.574  0.00  0.00    -0.420 OA
ATOM     15  N   UNL     1      32.037 -24.721 -12.397  0.00  0.00    -0.107 NA
ATOM     16  N   UNL     1      30.682 -24.937 -12.563  0.00  0.00    -0.111 NA
ATOM     17  C   UNL     1      32.505 -24.480 -13.593  0.00  0.00    +0.250 A 
ATOM     18  C   UNL     1      30.452 -24.806 -13.849  0.00  0.00    +0.227 A 
ATOM     19  C   UNL     1      29.193 -24.928 -14.592  0.00  0.00    +0.097 C 
ENDBRANCH  10  17
ENDBRANCH   1   7
BRANCH   4  22
ATOM     20  O   UNL     1      37.270 -19.922 -20.733  0.00  0.00    -0.270 OA
ATOM     21  N   UNL     1      34.958 -19.517 -20.879  0.00  0.00    -0.280 N 
ATOM     22  C   UNL     1      36.125 -20.045 -20.310  0.00  0.00    +0.249 C 
ATOM     23  H   UNL     1      34.119 -19.716 -20.403  0.00  0.00    +0.155 HD
BRANCH  21  24
ATOM     24  C   UNL     1      34.838 -18.748 -22.037  0.00  0.00    +0.051 C 
ATOM     25  C   UNL     1      34.877 -17.356 -21.957  0.00  0.00    +0.025 C 
ATOM     26  C   UNL     1      34.679 -19.371 -23.274  0.00  0.00    +0.015 C 
ATOM     27  C   UNL     1      34.756 -16.587 -23.115  0.00  0.00    +0.070 C 
ATOM     28  C   UNL     1      34.559 -18.603 -24.432  0.00  0.00    +0.002 C 
ATOM     29  C   UNL     1      34.597 -17.211 -24.352  0.00  0.00    +0.010 C 
BRANCH  27  31
ATOM     30  N   UNL     1      34.828 -14.002 -22.967  0.00  0.00    -0.191 NA
ATOM     31  C   UNL     1      34.796 -15.162 -23.033  0.00  0.00    +0.100 C 
ENDBRANCH  27  31
ENDBRANCH  21  24
ENDBRANCH   4  22
TORSDOF 5
ENDMDL
