MODEL 1
REMARK VINA RESULT:     -12.8      0.000      0.000
REMARK  Name = 51049992
REMARK  10 active torsions:
REMARK  status: ('A' for Active; 'I' for Inactive)
REMARK    1  A    between atoms: C_1  and  C_7
REMARK    2  A    between atoms: C_6  and  C_23
REMARK    3  A    between atoms: C_7  and  N_8
REMARK    4  A    between atoms: C_23  and  O_24
REMARK    5  A    between atoms: O_24  and  C_25
REMARK    6  A    between atoms: C_26  and  C_31
REMARK    7  A    between atoms: C_31  and  C_32
REMARK    8  A    between atoms: C_31  and  C_35
REMARK    9  A    between atoms: C_35  and  C_37
REMARK   10  A    between atoms: C_37  and  O_38
REMARK                            x       y       z     vdW  Elec       q    Type
REMARK                         _______ _______ _______ _____ _____    ______ ____
ROOT
ATOM      1  C   UNL     1      32.780 -12.900 -21.568  0.00  0.00    -0.043 C 
ATOM      2  C   UNL     1      33.642 -13.738 -20.858  0.00  0.00    -0.007 C 
ATOM      3  C   UNL     1      32.629 -13.062 -22.945  0.00  0.00    -0.007 C 
ATOM      4  C   UNL     1      34.351 -14.736 -21.526  0.00  0.00    -0.001 C 
ATOM      5  C   UNL     1      33.338 -14.060 -23.613  0.00  0.00    -0.001 C 
ATOM      6  C   UNL     1      34.199 -14.897 -22.903  0.00  0.00    +0.021 C 
ENDROOT
BRANCH   1   7
ATOM      7  C   UNL     1      32.015 -11.823 -20.847  0.00  0.00    -0.050 C 
BRANCH   7   8
ATOM      8  N   UNL     1      31.925 -10.596 -21.639  0.00  0.00    +0.390 N 
ATOM      9  C   UNL     1      32.895  -8.058 -22.781  0.00  0.00    +0.033 C 
ATOM     10  C   UNL     1      32.795  -9.358 -23.599  0.00  0.00    -0.015 C 
ATOM     11  C   UNL     1      31.934  -8.120 -21.580  0.00  0.00    -0.015 C 
ATOM     12  C   UNL     1      32.089  -9.417 -20.778  0.00  0.00    -0.076 C 
ATOM     13  C   UNL     1      32.918 -10.609 -22.720  0.00  0.00    -0.076 C 
ATOM     14  C   UNL     1      32.646  -6.834 -23.638  0.00  0.00    -0.019 C 
ATOM     15  C   UNL     1      34.331  -7.781 -22.337  0.00  0.00    -0.023 C 
ATOM     16  C   UNL     1      33.791  -6.022 -23.646  0.00  0.00    -0.004 C 
ATOM     17  C   UNL     1      34.822  -6.634 -22.830  0.00  0.00    -0.005 C 
ATOM     18  C   UNL     1      31.513  -6.469 -24.347  0.00  0.00    -0.004 C 
ATOM     19  C   UNL     1      33.826  -4.835 -24.359  0.00  0.00    -0.000 C 
ATOM     20  C   UNL     1      31.539  -5.273 -25.070  0.00  0.00    -0.000 C 
ATOM     21  C   UNL     1      32.686  -4.463 -25.075  0.00  0.00    -0.000 C 
ATOM     22  H   UNL     1      31.000 -10.547 -22.064  0.00  0.00    -0.079 HD
ENDBRANCH   7   8
ENDBRANCH   1   7
BRANCH   6  23
ATOM     23  C   UNL     1      34.955 -15.966 -23.616  0.00  0.00    +0.232 C 
BRANCH  23  24
ATOM     24  O   UNL     1      36.003 -16.443 -22.780  0.00  0.00    -0.471 OA
BRANCH  24  25
ATOM     25  C   UNL     1      35.759 -17.593 -22.079  0.00  0.00    +0.139 C 
ATOM     26  C   UNL     1      35.259 -19.935 -20.647  0.00  0.00    -0.010 C 
ATOM     27  C   UNL     1      34.632 -18.362 -22.370  0.00  0.00    +0.037 C 
ATOM     28  C   UNL     1      36.635 -17.995 -21.070  0.00  0.00    +0.037 C 
ATOM     29  C   UNL     1      34.382 -19.533 -21.655  0.00  0.00    -0.000 C 
ATOM     30  C   UNL     1      36.385 -19.166 -20.354  0.00  0.00    -0.000 C 
BRANCH  26  31
ATOM     31  C   UNL     1      34.992 -21.187 -19.881  0.00  0.00    +0.097 C 
BRANCH  31  32
ATOM     32  C   UNL     1      35.916 -21.329 -18.722  0.00  0.00    -0.087 C 
ATOM     33  C   UNL     1      36.651 -21.456 -17.780  0.00  0.00    -0.090 C 
ATOM     34  C   UNL     1      37.543 -21.609 -16.632  0.00  0.00    +0.090 C 
ENDBRANCH  31  32
BRANCH  31  35
ATOM     35  C   UNL     1      33.519 -21.283 -19.401  0.00  0.00    +0.127 C 
BRANCH  35  37
ATOM     36  O   UNL     1      33.682 -23.668 -18.910  0.00  0.00    -0.250 OA
ATOM     37  C   UNL     1      33.184 -22.575 -18.681  0.00  0.00    +0.315 C 
BRANCH  37  38
ATOM     38  O   UNL     1      32.249 -22.373 -17.715  0.00  0.00    -0.480 OA
ATOM     39  H   UNL     1      31.474 -21.885 -17.907  0.00  0.00    +0.295 HD
ENDBRANCH  37  38
ENDBRANCH  35  37
ENDBRANCH  31  35
ENDBRANCH  26  31
ENDBRANCH  24  25
ENDBRANCH  23  24
ENDBRANCH   6  23
TORSDOF 10
ENDMDL
MODEL 2
REMARK VINA RESULT:     -12.7      2.013      3.254
REMARK  Name = 51049992
REMARK  10 active torsions:
REMARK  status: ('A' for Active; 'I' for Inactive)
REMARK    1  A    between atoms: C_1  and  C_7
REMARK    2  A    between atoms: C_6  and  C_23
REMARK    3  A    between atoms: C_7  and  N_8
REMARK    4  A    between atoms: C_23  and  O_24
REMARK    5  A    between atoms: O_24  and  C_25
REMARK    6  A    between atoms: C_26  and  C_31
REMARK    7  A    between atoms: C_31  and  C_32
REMARK    8  A    between atoms: C_31  and  C_35
REMARK    9  A    between atoms: C_35  and  C_37
REMARK   10  A    between atoms: C_37  and  O_38
REMARK                            x       y       z     vdW  Elec       q    Type
REMARK                         _______ _______ _______ _____ _____    ______ ____
ROOT
ATOM      1  C   UNL     1      34.115 -14.280 -23.173  0.00  0.00    -0.043 C 
ATOM      2  C   UNL     1      34.490 -15.447 -23.839  0.00  0.00    -0.007 C 
ATOM      3  C   UNL     1      34.208 -14.211 -21.782  0.00  0.00    -0.007 C 
ATOM      4  C   UNL     1      34.957 -16.544 -23.115  0.00  0.00    -0.001 C 
ATOM      5  C   UNL     1      34.675 -15.307 -21.059  0.00  0.00    -0.001 C 
ATOM      6  C   UNL     1      35.050 -16.474 -21.725  0.00  0.00    +0.021 C 
ENDROOT
BRANCH   1   7
ATOM      7  C   UNL     1      33.611 -13.096 -23.954  0.00  0.00    -0.050 C 
BRANCH   7   8
ATOM      8  N   UNL     1      33.470 -11.908 -23.112  0.00  0.00    +0.390 N 
ATOM      9  C   UNL     1      32.470  -9.231 -22.388  0.00  0.00    +0.033 C 
ATOM     10  C   UNL     1      31.916 -10.527 -21.767  0.00  0.00    -0.015 C 
ATOM     11  C   UNL     1      33.892  -9.475 -22.924  0.00  0.00    -0.015 C 
ATOM     12  C   UNL     1      33.973 -10.719 -23.815  0.00  0.00    -0.076 C 
ATOM     13  C   UNL     1      32.071 -11.732 -22.702  0.00  0.00    -0.076 C 
ATOM     14  C   UNL     1      32.427  -8.076 -21.410  0.00  0.00    -0.019 C 
ATOM     15  C   UNL     1      31.545  -8.689 -23.477  0.00  0.00    -0.023 C 
ATOM     16  C   UNL     1      31.596  -7.063 -21.911  0.00  0.00    -0.004 C 
ATOM     17  C   UNL     1      31.061  -7.469 -23.196  0.00  0.00    -0.005 C 
ATOM     18  C   UNL     1      33.063  -7.930 -20.187  0.00  0.00    -0.004 C 
ATOM     19  C   UNL     1      31.384  -5.890 -21.205  0.00  0.00    -0.000 C 
ATOM     20  C   UNL     1      32.857  -6.751 -19.468  0.00  0.00    -0.000 C 
ATOM     21  C   UNL     1      32.024  -5.739 -19.972  0.00  0.00    -0.000 C 
ATOM     22  H   UNL     1      34.030 -12.034 -22.270  0.00  0.00    -0.079 HD
ENDBRANCH   7   8
ENDBRANCH   1   7
BRANCH   6  23
ATOM     23  C   UNL     1      35.553 -17.645 -20.952  0.00  0.00    +0.232 C 
BRANCH  23  24
ATOM     24  O   UNL     1      34.963 -18.836 -21.460  0.00  0.00    -0.471 OA
BRANCH  24  25
ATOM     25  C   UNL     1      34.587 -19.780 -20.542  0.00  0.00    +0.139 C 
ATOM     26  C   UNL     1      33.823 -21.701 -18.668  0.00  0.00    -0.010 C 
ATOM     27  C   UNL     1      33.235 -20.012 -20.292  0.00  0.00    +0.037 C 
ATOM     28  C   UNL     1      35.558 -20.509 -19.853  0.00  0.00    +0.037 C 
ATOM     29  C   UNL     1      32.852 -20.973 -19.355  0.00  0.00    -0.000 C 
ATOM     30  C   UNL     1      35.175 -21.468 -18.916  0.00  0.00    -0.000 C 
BRANCH  26  31
ATOM     31  C   UNL     1      33.415 -22.728 -17.666  0.00  0.00    +0.097 C 
BRANCH  31  32
ATOM     32  C   UNL     1      34.408 -22.844 -16.563  0.00  0.00    -0.087 C 
ATOM     33  C   UNL     1      35.216 -22.923 -15.677  0.00  0.00    -0.090 C 
ATOM     34  C   UNL     1      36.202 -23.019 -14.602  0.00  0.00    +0.090 C 
ENDBRANCH  31  32
BRANCH  31  35
ATOM     35  C   UNL     1      32.002 -22.455 -17.083  0.00  0.00    +0.127 C 
BRANCH  35  37
ATOM     36  O   UNL     1      31.323 -24.418 -15.801  0.00  0.00    -0.250 OA
ATOM     37  C   UNL     1      31.684 -23.249 -15.831  0.00  0.00    +0.315 C 
BRANCH  37  38
ATOM     38  O   UNL     1      31.862 -22.499 -14.712  0.00  0.00    -0.480 OA
ATOM     39  H   UNL     1      31.353 -22.673 -13.946  0.00  0.00    +0.295 HD
ENDBRANCH  37  38
ENDBRANCH  35  37
ENDBRANCH  31  35
ENDBRANCH  26  31
ENDBRANCH  24  25
ENDBRANCH  23  24
ENDBRANCH   6  23
TORSDOF 10
ENDMDL
MODEL 3
REMARK VINA RESULT:     -12.7      4.126     13.264
REMARK  Name = 51049992
REMARK  10 active torsions:
REMARK  status: ('A' for Active; 'I' for Inactive)
REMARK    1  A    between atoms: C_1  and  C_7
REMARK    2  A    between atoms: C_6  and  C_23
REMARK    3  A    between atoms: C_7  and  N_8
REMARK    4  A    between atoms: C_23  and  O_24
REMARK    5  A    between atoms: O_24  and  C_25
REMARK    6  A    between atoms: C_26  and  C_31
REMARK    7  A    between atoms: C_31  and  C_32
REMARK    8  A    between atoms: C_31  and  C_35
REMARK    9  A    between atoms: C_35  and  C_37
REMARK   10  A    between atoms: C_37  and  O_38
REMARK                            x       y       z     vdW  Elec       q    Type
REMARK                         _______ _______ _______ _____ _____    ______ ____
ROOT
ATOM      1  C   UNL     1      33.883 -13.432 -23.227  0.00  0.00    -0.043 C 
ATOM      2  C   UNL     1      33.972 -12.188 -23.854  0.00  0.00    -0.007 C 
ATOM      3  C   UNL     1      33.052 -13.594 -22.117  0.00  0.00    -0.007 C 
ATOM      4  C   UNL     1      33.232 -11.109 -23.372  0.00  0.00    -0.001 C 
ATOM      5  C   UNL     1      32.312 -12.515 -21.635  0.00  0.00    -0.001 C 
ATOM      6  C   UNL     1      32.402 -11.272 -22.263  0.00  0.00    +0.021 C 
ENDROOT
BRANCH   1   7
ATOM      7  C   UNL     1      34.682 -14.596 -23.748  0.00  0.00    -0.050 C 
BRANCH   7   8
ATOM      8  N   UNL     1      34.467 -15.803 -22.950  0.00  0.00    +0.390 N 
ATOM      9  C   UNL     1      35.271 -18.209 -21.447  0.00  0.00    +0.033 C 
ATOM     10  C   UNL     1      34.837 -16.901 -20.761  0.00  0.00    -0.015 C 
ATOM     11  C   UNL     1      34.692 -18.269 -22.872  0.00  0.00    -0.015 C 
ATOM     12  C   UNL     1      34.965 -16.986 -23.665  0.00  0.00    -0.076 C 
ATOM     13  C   UNL     1      35.105 -15.670 -21.634  0.00  0.00    -0.076 C 
ATOM     14  C   UNL     1      34.886 -19.426 -20.632  0.00  0.00    -0.019 C 
ATOM     15  C   UNL     1      36.791 -18.364 -21.451  0.00  0.00    -0.023 C 
ATOM     16  C   UNL     1      36.042 -20.128 -20.258  0.00  0.00    -0.004 C 
ATOM     17  C   UNL     1      37.211 -19.447 -20.779  0.00  0.00    -0.005 C 
ATOM     18  C   UNL     1      33.631 -19.874 -20.254  0.00  0.00    -0.004 C 
ATOM     19  C   UNL     1      35.967 -21.287 -19.502  0.00  0.00    -0.000 C 
ATOM     20  C   UNL     1      33.545 -21.042 -19.491  0.00  0.00    -0.000 C 
ATOM     21  C   UNL     1      34.703 -21.742 -19.118  0.00  0.00    -0.000 C 
ATOM     22  H   UNL     1      33.466 -15.926 -22.802  0.00  0.00    -0.079 HD
ENDBRANCH   7   8
ENDBRANCH   1   7
BRANCH   6  23
ATOM     23  C   UNL     1      31.608 -10.119 -21.749  0.00  0.00    +0.232 C 
BRANCH  23  24
ATOM     24  O   UNL     1      32.491  -9.131 -21.231  0.00  0.00    -0.471 OA
BRANCH  24  25
ATOM     25  C   UNL     1      32.600  -7.966 -21.943  0.00  0.00    +0.139 C 
ATOM     26  C   UNL     1      32.822  -5.595 -23.397  0.00  0.00    -0.010 C 
ATOM     27  C   UNL     1      31.453  -7.321 -22.406  0.00  0.00    +0.037 C 
ATOM     28  C   UNL     1      33.858  -7.425 -22.207  0.00  0.00    +0.037 C 
ATOM     29  C   UNL     1      31.564  -6.135 -23.133  0.00  0.00    -0.000 C 
ATOM     30  C   UNL     1      33.969  -6.240 -22.935  0.00  0.00    -0.000 C 
BRANCH  26  31
ATOM     31  C   UNL     1      32.942  -4.327 -24.173  0.00  0.00    +0.097 C 
BRANCH  31  32
ATOM     32  C   UNL     1      34.063  -4.386 -25.152  0.00  0.00    -0.087 C 
ATOM     33  C   UNL     1      34.978  -4.426 -25.930  0.00  0.00    -0.090 C 
ATOM     34  C   UNL     1      36.091  -4.471 -26.876  0.00  0.00    +0.090 C 
ENDBRANCH  31  32
BRANCH  31  35
ATOM     35  C   UNL     1      31.622  -3.953 -24.900  0.00  0.00    +0.127 C 
BRANCH  35  37
ATOM     36  O   UNL     1      29.981  -2.147 -24.872  0.00  0.00    -0.250 OA
ATOM     37  C   UNL     1      31.038  -2.619 -24.479  0.00  0.00    +0.315 C 
BRANCH  37  38
ATOM     38  O   UNL     1      31.840  -1.992 -23.577  0.00  0.00    -0.480 OA
ATOM     39  H   UNL     1      31.482  -1.681 -22.770  0.00  0.00    +0.295 HD
ENDBRANCH  37  38
ENDBRANCH  35  37
ENDBRANCH  31  35
ENDBRANCH  26  31
ENDBRANCH  24  25
ENDBRANCH  23  24
ENDBRANCH   6  23
TORSDOF 10
ENDMDL
MODEL 4
REMARK VINA RESULT:     -12.6      1.358      2.248
REMARK  Name = 51049992
REMARK  10 active torsions:
REMARK  status: ('A' for Active; 'I' for Inactive)
REMARK    1  A    between atoms: C_1  and  C_7
REMARK    2  A    between atoms: C_6  and  C_23
REMARK    3  A    between atoms: C_7  and  N_8
REMARK    4  A    between atoms: C_23  and  O_24
REMARK    5  A    between atoms: O_24  and  C_25
REMARK    6  A    between atoms: C_26  and  C_31
REMARK    7  A    between atoms: C_31  and  C_32
REMARK    8  A    between atoms: C_31  and  C_35
REMARK    9  A    between atoms: C_35  and  C_37
REMARK   10  A    between atoms: C_37  and  O_38
REMARK                            x       y       z     vdW  Elec       q    Type
REMARK                         _______ _______ _______ _____ _____    ______ ____
ROOT
ATOM      1  C   UNL     1      32.673 -11.376 -22.076  0.00  0.00    -0.043 C 
ATOM      2  C   UNL     1      33.366 -11.282 -23.283  0.00  0.00    -0.007 C 
ATOM      3  C   UNL     1      32.521 -12.616 -21.455  0.00  0.00    -0.007 C 
ATOM      4  C   UNL     1      33.908 -12.426 -23.868  0.00  0.00    -0.001 C 
ATOM      5  C   UNL     1      33.063 -13.761 -22.040  0.00  0.00    -0.001 C 
ATOM      6  C   UNL     1      33.756 -13.665 -23.246  0.00  0.00    +0.021 C 
ENDROOT
BRANCH   1   7
ATOM      7  C   UNL     1      32.088 -10.141 -21.445  0.00  0.00    -0.050 C 
BRANCH   7   8
ATOM      8  N   UNL     1      32.397  -8.937 -22.218  0.00  0.00    +0.390 N 
ATOM      9  C   UNL     1      32.272  -6.070 -22.889  0.00  0.00    +0.033 C 
ATOM     10  C   UNL     1      33.484  -6.712 -22.192  0.00  0.00    -0.015 C 
ATOM     11  C   UNL     1      31.481  -7.143 -23.659  0.00  0.00    -0.015 C 
ATOM     12  C   UNL     1      31.170  -8.369 -22.794  0.00  0.00    -0.076 C 
ATOM     13  C   UNL     1      33.097  -7.955 -21.382  0.00  0.00    -0.076 C 
ATOM     14  C   UNL     1      32.683  -4.921 -23.788  0.00  0.00    -0.019 C 
ATOM     15  C   UNL     1      31.383  -5.322 -21.897  0.00  0.00    -0.023 C 
ATOM     16  C   UNL     1      32.093  -3.732 -23.334  0.00  0.00    -0.004 C 
ATOM     17  C   UNL     1      31.291  -4.009 -22.158  0.00  0.00    -0.005 C 
ATOM     18  C   UNL     1      33.503  -4.924 -24.904  0.00  0.00    -0.004 C 
ATOM     19  C   UNL     1      32.310  -2.527 -23.983  0.00  0.00    -0.000 C 
ATOM     20  C   UNL     1      33.728  -3.714 -25.566  0.00  0.00    -0.000 C 
ATOM     21  C   UNL     1      33.136  -2.526 -25.109  0.00  0.00    -0.000 C 
ATOM     22  H   UNL     1      33.015  -9.191 -22.988  0.00  0.00    -0.079 HD
ENDBRANCH   7   8
ENDBRANCH   1   7
BRANCH   6  23
ATOM     23  C   UNL     1      34.338 -14.889 -23.869  0.00  0.00    +0.232 C 
BRANCH  23  24
ATOM     24  O   UNL     1      35.378 -15.393 -23.040  0.00  0.00    -0.471 OA
BRANCH  24  25
ATOM     25  C   UNL     1      35.175 -16.625 -22.476  0.00  0.00    +0.139 C 
ATOM     26  C   UNL     1      34.765 -19.134 -21.328  0.00  0.00    -0.010 C 
ATOM     27  C   UNL     1      35.418 -16.818 -21.116  0.00  0.00    +0.037 C 
ATOM     28  C   UNL     1      34.728 -17.687 -23.262  0.00  0.00    +0.037 C 
ATOM     29  C   UNL     1      35.212 -18.073 -20.542  0.00  0.00    -0.000 C 
ATOM     30  C   UNL     1      34.523 -18.942 -22.688  0.00  0.00    -0.000 C 
BRANCH  26  31
ATOM     31  C   UNL     1      34.544 -20.476 -20.715  0.00  0.00    +0.097 C 
BRANCH  31  32
ATOM     32  C   UNL     1      35.529 -20.755 -19.634  0.00  0.00    -0.087 C 
ATOM     33  C   UNL     1      36.313 -20.993 -18.755  0.00  0.00    -0.090 C 
ATOM     34  C   UNL     1      37.266 -21.281 -17.684  0.00  0.00    +0.090 C 
ENDBRANCH  31  32
BRANCH  31  35
ATOM     35  C   UNL     1      33.099 -20.648 -20.174  0.00  0.00    +0.127 C 
BRANCH  35  37
ATOM     36  O   UNL     1      33.396 -22.946 -19.407  0.00  0.00    -0.250 OA
ATOM     37  C   UNL     1      32.921 -21.831 -19.242  0.00  0.00    +0.315 C 
BRANCH  37  38
ATOM     38  O   UNL     1      32.165 -21.499 -18.163  0.00  0.00    -0.480 OA
ATOM     39  H   UNL     1      32.495 -21.641 -17.298  0.00  0.00    +0.295 HD
ENDBRANCH  37  38
ENDBRANCH  35  37
ENDBRANCH  31  35
ENDBRANCH  26  31
ENDBRANCH  24  25
ENDBRANCH  23  24
ENDBRANCH   6  23
TORSDOF 10
ENDMDL
MODEL 5
REMARK VINA RESULT:     -12.5      0.702      1.987
REMARK  Name = 51049992
REMARK  10 active torsions:
REMARK  status: ('A' for Active; 'I' for Inactive)
REMARK    1  A    between atoms: C_1  and  C_7
REMARK    2  A    between atoms: C_6  and  C_23
REMARK    3  A    between atoms: C_7  and  N_8
REMARK    4  A    between atoms: C_23  and  O_24
REMARK    5  A    between atoms: O_24  and  C_25
REMARK    6  A    between atoms: C_26  and  C_31
REMARK    7  A    between atoms: C_31  and  C_32
REMARK    8  A    between atoms: C_31  and  C_35
REMARK    9  A    between atoms: C_35  and  C_37
REMARK   10  A    between atoms: C_37  and  O_38
REMARK                            x       y       z     vdW  Elec       q    Type
REMARK                         _______ _______ _______ _____ _____    ______ ____
ROOT
ATOM      1  C   UNL     1      33.052 -13.027 -21.776  0.00  0.00    -0.043 C 
ATOM      2  C   UNL     1      32.909 -13.371 -23.121  0.00  0.00    -0.007 C 
ATOM      3  C   UNL     1      33.860 -13.800 -20.942  0.00  0.00    -0.007 C 
ATOM      4  C   UNL     1      33.573 -14.487 -23.630  0.00  0.00    -0.001 C 
ATOM      5  C   UNL     1      34.525 -14.915 -21.451  0.00  0.00    -0.001 C 
ATOM      6  C   UNL     1      34.381 -15.258 -22.795  0.00  0.00    +0.021 C 
ENDROOT
BRANCH   1   7
ATOM      7  C   UNL     1      32.334 -11.823 -21.227  0.00  0.00    -0.050 C 
BRANCH   7   8
ATOM      8  N   UNL     1      32.811 -10.581 -21.836  0.00  0.00    +0.390 N 
ATOM      9  C   UNL     1      32.544  -7.990 -23.216  0.00  0.00    +0.033 C 
ATOM     10  C   UNL     1      32.812  -8.108 -21.705  0.00  0.00    -0.015 C 
ATOM     11  C   UNL     1      33.003  -9.274 -23.931  0.00  0.00    -0.015 C 
ATOM     12  C   UNL     1      32.457 -10.539 -23.262  0.00  0.00    -0.076 C 
ATOM     13  C   UNL     1      32.272  -9.418 -21.119  0.00  0.00    -0.076 C 
ATOM     14  C   UNL     1      33.190  -6.755 -23.808  0.00  0.00    -0.019 C 
ATOM     15  C   UNL     1      31.075  -7.682 -23.505  0.00  0.00    -0.023 C 
ATOM     16  C   UNL     1      32.202  -5.911 -24.336  0.00  0.00    -0.004 C 
ATOM     17  C   UNL     1      30.897  -6.511 -24.135  0.00  0.00    -0.005 C 
ATOM     18  C   UNL     1      34.530  -6.405 -23.874  0.00  0.00    -0.004 C 
ATOM     19  C   UNL     1      32.529  -4.707 -24.938  0.00  0.00    -0.000 C 
ATOM     20  C   UNL     1      34.870  -5.193 -24.479  0.00  0.00    -0.000 C 
ATOM     21  C   UNL     1      33.879  -4.351 -25.007  0.00  0.00    -0.000 C 
ATOM     22  H   UNL     1      33.827 -10.549 -21.765  0.00  0.00    -0.079 HD
ENDBRANCH   7   8
ENDBRANCH   1   7
BRANCH   6  23
ATOM     23  C   UNL     1      35.094 -16.449 -23.340  0.00  0.00    +0.232 C 
BRANCH  23  24
ATOM     24  O   UNL     1      36.122 -16.840 -22.436  0.00  0.00    -0.471 OA
BRANCH  24  25
ATOM     25  C   UNL     1      35.899 -17.973 -21.700  0.00  0.00    +0.139 C 
ATOM     26  C   UNL     1      35.444 -20.283 -20.203  0.00  0.00    -0.010 C 
ATOM     27  C   UNL     1      36.897 -18.470 -20.862  0.00  0.00    +0.037 C 
ATOM     28  C   UNL     1      34.672 -18.632 -21.789  0.00  0.00    +0.037 C 
ATOM     29  C   UNL     1      36.670 -19.624 -20.113  0.00  0.00    -0.000 C 
ATOM     30  C   UNL     1      34.446 -19.788 -21.041  0.00  0.00    -0.000 C 
BRANCH  26  31
ATOM     31  C   UNL     1      35.201 -21.518 -19.403  0.00  0.00    +0.097 C 
BRANCH  31  32
ATOM     32  C   UNL     1      36.104 -21.595 -18.222  0.00  0.00    -0.087 C 
ATOM     33  C   UNL     1      36.822 -21.668 -17.260  0.00  0.00    -0.090 C 
ATOM     34  C   UNL     1      37.692 -21.754 -16.090  0.00  0.00    +0.090 C 
ENDBRANCH  31  32
BRANCH  31  35
ATOM     35  C   UNL     1      33.721 -21.644 -18.949  0.00  0.00    +0.127 C 
BRANCH  35  37
ATOM     36  O   UNL     1      33.053 -22.824 -16.919  0.00  0.00    -0.250 OA
ATOM     37  C   UNL     1      33.440 -22.854 -18.079  0.00  0.00    +0.315 C 
BRANCH  37  38
ATOM     38  O   UNL     1      33.659 -24.011 -18.758  0.00  0.00    -0.480 OA
ATOM     39  H   UNL     1      34.534 -24.283 -18.950  0.00  0.00    +0.295 HD
ENDBRANCH  37  38
ENDBRANCH  35  37
ENDBRANCH  31  35
ENDBRANCH  26  31
ENDBRANCH  24  25
ENDBRANCH  23  24
ENDBRANCH   6  23
TORSDOF 10
ENDMDL
MODEL 6
REMARK VINA RESULT:     -12.5      3.087      6.132
REMARK  Name = 51049992
REMARK  10 active torsions:
REMARK  status: ('A' for Active; 'I' for Inactive)
REMARK    1  A    between atoms: C_1  and  C_7
REMARK    2  A    between atoms: C_6  and  C_23
REMARK    3  A    between atoms: C_7  and  N_8
REMARK    4  A    between atoms: C_23  and  O_24
REMARK    5  A    between atoms: O_24  and  C_25
REMARK    6  A    between atoms: C_26  and  C_31
REMARK    7  A    between atoms: C_31  and  C_32
REMARK    8  A    between atoms: C_31  and  C_35
REMARK    9  A    between atoms: C_35  and  C_37
REMARK   10  A    between atoms: C_37  and  O_38
REMARK                            x       y       z     vdW  Elec       q    Type
REMARK                         _______ _______ _______ _____ _____    ______ ____
ROOT
ATOM      1  C   UNL     1      35.204 -17.959 -22.666  0.00  0.00    -0.043 C 
ATOM      2  C   UNL     1      34.248 -18.937 -22.388  0.00  0.00    -0.007 C 
ATOM      3  C   UNL     1      36.386 -17.911 -21.926  0.00  0.00    -0.007 C 
ATOM      4  C   UNL     1      34.475 -19.865 -21.372  0.00  0.00    -0.001 C 
ATOM      5  C   UNL     1      36.613 -18.839 -20.910  0.00  0.00    -0.001 C 
ATOM      6  C   UNL     1      35.657 -19.816 -20.633  0.00  0.00    +0.021 C 
ENDROOT
BRANCH   1   7
ATOM      7  C   UNL     1      34.959 -16.957 -23.762  0.00  0.00    -0.050 C 
BRANCH   7   8
ATOM      8  N   UNL     1      34.213 -15.794 -23.280  0.00  0.00    +0.390 N 
ATOM      9  C   UNL     1      33.553 -12.930 -23.056  0.00  0.00    +0.033 C 
ATOM     10  C   UNL     1      32.728 -13.914 -23.906  0.00  0.00    -0.015 C 
ATOM     11  C   UNL     1      34.321 -13.699 -21.965  0.00  0.00    -0.015 C 
ATOM     12  C   UNL     1      35.098 -14.891 -22.532  0.00  0.00    -0.076 C 
ATOM     13  C   UNL     1      33.566 -15.099 -24.400  0.00  0.00    -0.076 C 
ATOM     14  C   UNL     1      32.689 -11.834 -22.469  0.00  0.00    -0.019 C 
ATOM     15  C   UNL     1      34.493 -12.091 -23.920  0.00  0.00    -0.023 C 
ATOM     16  C   UNL     1      33.113 -10.587 -22.954  0.00  0.00    -0.004 C 
ATOM     17  C   UNL     1      34.235 -10.776 -23.853  0.00  0.00    -0.005 C 
ATOM     18  C   UNL     1      31.624 -11.925 -21.587  0.00  0.00    -0.004 C 
ATOM     19  C   UNL     1      32.486  -9.413 -22.570  0.00  0.00    -0.000 C 
ATOM     20  C   UNL     1      30.985 -10.747 -21.194  0.00  0.00    -0.000 C 
ATOM     21  C   UNL     1      31.412  -9.501 -21.681  0.00  0.00    -0.000 C 
ATOM     22  H   UNL     1      33.483 -16.113 -22.645  0.00  0.00    -0.079 HD
ENDBRANCH   7   8
ENDBRANCH   1   7
BRANCH   6  23
ATOM     23  C   UNL     1      35.900 -20.810 -19.549  0.00  0.00    +0.232 C 
BRANCH  23  24
ATOM     24  O   UNL     1      34.801 -21.712 -19.478  0.00  0.00    -0.471 OA
BRANCH  24  25
ATOM     25  C   UNL     1      34.442 -22.150 -18.231  0.00  0.00    +0.139 C 
ATOM     26  C   UNL     1      33.709 -23.045 -15.693  0.00  0.00    -0.010 C 
ATOM     27  C   UNL     1      35.413 -22.321 -17.245  0.00  0.00    +0.037 C 
ATOM     28  C   UNL     1      33.104 -22.427 -17.948  0.00  0.00    +0.037 C 
ATOM     29  C   UNL     1      35.046 -22.768 -15.975  0.00  0.00    -0.000 C 
ATOM     30  C   UNL     1      32.738 -22.875 -16.679  0.00  0.00    -0.000 C 
BRANCH  26  31
ATOM     31  C   UNL     1      33.317 -23.523 -14.335  0.00  0.00    +0.097 C 
BRANCH  31  32
ATOM     32  C   UNL     1      31.955 -24.125 -14.337  0.00  0.00    -0.087 C 
ATOM     33  C   UNL     1      30.862 -24.626 -14.334  0.00  0.00    -0.090 C 
ATOM     34  C   UNL     1      29.534 -25.236 -14.333  0.00  0.00    +0.090 C 
ENDBRANCH  31  32
BRANCH  31  35
ATOM     35  C   UNL     1      34.341 -24.530 -13.745  0.00  0.00    +0.127 C 
BRANCH  35  37
ATOM     36  O   UNL     1      34.639 -24.667 -11.327  0.00  0.00    -0.250 OA
ATOM     37  C   UNL     1      34.898 -24.128 -12.393  0.00  0.00    +0.315 C 
BRANCH  37  38
ATOM     38  O   UNL     1      35.754 -23.078 -12.504  0.00  0.00    -0.480 OA
ATOM     39  H   UNL     1      36.080 -22.656 -11.735  0.00  0.00    +0.295 HD
ENDBRANCH  37  38
ENDBRANCH  35  37
ENDBRANCH  31  35
ENDBRANCH  26  31
ENDBRANCH  24  25
ENDBRANCH  23  24
ENDBRANCH   6  23
TORSDOF 10
ENDMDL
MODEL 7
REMARK VINA RESULT:     -12.4      2.761      5.485
REMARK  Name = 51049992
REMARK  10 active torsions:
REMARK  status: ('A' for Active; 'I' for Inactive)
REMARK    1  A    between atoms: C_1  and  C_7
REMARK    2  A    between atoms: C_6  and  C_23
REMARK    3  A    between atoms: C_7  and  N_8
REMARK    4  A    between atoms: C_23  and  O_24
REMARK    5  A    between atoms: O_24  and  C_25
REMARK    6  A    between atoms: C_26  and  C_31
REMARK    7  A    between atoms: C_31  and  C_32
REMARK    8  A    between atoms: C_31  and  C_35
REMARK    9  A    between atoms: C_35  and  C_37
REMARK   10  A    between atoms: C_37  and  O_38
REMARK                            x       y       z     vdW  Elec       q    Type
REMARK                         _______ _______ _______ _____ _____    ______ ____
ROOT
ATOM      1  C   UNL     1      35.008 -17.624 -22.941  0.00  0.00    -0.043 C 
ATOM      2  C   UNL     1      34.325 -18.841 -22.948  0.00  0.00    -0.007 C 
ATOM      3  C   UNL     1      35.935 -17.351 -21.935  0.00  0.00    -0.007 C 
ATOM      4  C   UNL     1      34.568 -19.783 -21.949  0.00  0.00    -0.001 C 
ATOM      5  C   UNL     1      36.178 -18.293 -20.936  0.00  0.00    -0.001 C 
ATOM      6  C   UNL     1      35.495 -19.509 -20.943  0.00  0.00    +0.021 C 
ENDROOT
BRANCH   1   7
ATOM      7  C   UNL     1      34.745 -16.608 -24.020  0.00  0.00    -0.050 C 
BRANCH   7   8
ATOM      8  N   UNL     1      34.056 -15.426 -23.498  0.00  0.00    +0.390 N 
ATOM      9  C   UNL     1      33.509 -12.545 -23.209  0.00  0.00    +0.033 C 
ATOM     10  C   UNL     1      32.625 -13.483 -24.051  0.00  0.00    -0.015 C 
ATOM     11  C   UNL     1      34.279 -13.359 -22.153  0.00  0.00    -0.015 C 
ATOM     12  C   UNL     1      34.995 -14.569 -22.761  0.00  0.00    -0.076 C 
ATOM     13  C   UNL     1      33.404 -14.689 -24.587  0.00  0.00    -0.076 C 
ATOM     14  C   UNL     1      32.703 -11.427 -22.580  0.00  0.00    -0.019 C 
ATOM     15  C   UNL     1      34.455 -11.726 -24.086  0.00  0.00    -0.023 C 
ATOM     16  C   UNL     1      33.160 -10.189 -23.057  0.00  0.00    -0.004 C 
ATOM     17  C   UNL     1      34.248 -10.403 -23.991  0.00  0.00    -0.005 C 
ATOM     18  C   UNL     1      31.661 -11.495 -21.669  0.00  0.00    -0.004 C 
ATOM     19  C   UNL     1      32.587  -9.000 -22.636  0.00  0.00    -0.000 C 
ATOM     20  C   UNL     1      31.077 -10.301 -21.238  0.00  0.00    -0.000 C 
ATOM     21  C   UNL     1      31.536  -9.064 -21.718  0.00  0.00    -0.000 C 
ATOM     22  H   UNL     1      33.333 -15.729 -22.847  0.00  0.00    -0.079 HD
ENDBRANCH   7   8
ENDBRANCH   1   7
BRANCH   6  23
ATOM     23  C   UNL     1      35.758 -20.518 -19.877  0.00  0.00    +0.232 C 
BRANCH  23  24
ATOM     24  O   UNL     1      34.628 -21.373 -19.746  0.00  0.00    -0.471 OA
BRANCH  24  25
ATOM     25  C   UNL     1      34.424 -21.942 -18.517  0.00  0.00    +0.139 C 
ATOM     26  C   UNL     1      34.007 -23.098 -16.013  0.00  0.00    -0.010 C 
ATOM     27  C   UNL     1      33.157 -22.410 -18.166  0.00  0.00    +0.037 C 
ATOM     28  C   UNL     1      35.482 -22.052 -17.615  0.00  0.00    +0.037 C 
ATOM     29  C   UNL     1      32.949 -22.988 -16.914  0.00  0.00    -0.000 C 
ATOM     30  C   UNL     1      35.273 -22.630 -16.362  0.00  0.00    -0.000 C 
BRANCH  26  31
ATOM     31  C   UNL     1      33.785 -23.716 -14.673  0.00  0.00    +0.097 C 
BRANCH  31  32
ATOM     32  C   UNL     1      34.963 -23.533 -13.781  0.00  0.00    -0.087 C 
ATOM     33  C   UNL     1      35.904 -23.390 -13.048  0.00  0.00    -0.090 C 
ATOM     34  C   UNL     1      37.047 -23.213 -12.155  0.00  0.00    +0.090 C 
ENDBRANCH  31  32
BRANCH  31  35
ATOM     35  C   UNL     1      32.504 -23.177 -13.979  0.00  0.00    +0.127 C 
BRANCH  35  37
ATOM     36  O   UNL     1      30.940 -23.964 -12.280  0.00  0.00    -0.250 OA
ATOM     37  C   UNL     1      31.772 -24.208 -13.142  0.00  0.00    +0.315 C 
BRANCH  37  38
ATOM     38  O   UNL     1      32.144 -25.471 -13.477  0.00  0.00    -0.480 OA
ATOM     39  H   UNL     1      32.313 -26.103 -12.807  0.00  0.00    +0.295 HD
ENDBRANCH  37  38
ENDBRANCH  35  37
ENDBRANCH  31  35
ENDBRANCH  26  31
ENDBRANCH  24  25
ENDBRANCH  23  24
ENDBRANCH   6  23
TORSDOF 10
ENDMDL
MODEL 8
REMARK VINA RESULT:     -12.2      3.809     13.252
REMARK  Name = 51049992
REMARK  10 active torsions:
REMARK  status: ('A' for Active; 'I' for Inactive)
REMARK    1  A    between atoms: C_1  and  C_7
REMARK    2  A    between atoms: C_6  and  C_23
REMARK    3  A    between atoms: C_7  and  N_8
REMARK    4  A    between atoms: C_23  and  O_24
REMARK    5  A    between atoms: O_24  and  C_25
REMARK    6  A    between atoms: C_26  and  C_31
REMARK    7  A    between atoms: C_31  and  C_32
REMARK    8  A    between atoms: C_31  and  C_35
REMARK    9  A    between atoms: C_35  and  C_37
REMARK   10  A    between atoms: C_37  and  O_38
REMARK                            x       y       z     vdW  Elec       q    Type
REMARK                         _______ _______ _______ _____ _____    ______ ____
ROOT
ATOM      1  C   UNL     1      34.487 -15.224 -23.810  0.00  0.00    -0.043 C 
ATOM      2  C   UNL     1      34.657 -14.698 -22.529  0.00  0.00    -0.007 C 
ATOM      3  C   UNL     1      33.891 -14.451 -24.807  0.00  0.00    -0.007 C 
ATOM      4  C   UNL     1      34.231 -13.401 -22.245  0.00  0.00    -0.001 C 
ATOM      5  C   UNL     1      33.465 -13.153 -24.523  0.00  0.00    -0.001 C 
ATOM      6  C   UNL     1      33.635 -12.629 -23.242  0.00  0.00    +0.021 C 
ENDROOT
BRANCH   1   7
ATOM      7  C   UNL     1      34.947 -16.624 -24.116  0.00  0.00    -0.050 C 
BRANCH   7   8
ATOM      8  N   UNL     1      34.558 -17.566 -23.066  0.00  0.00    +0.390 N 
ATOM      9  C   UNL     1      35.011 -19.561 -20.944  0.00  0.00    +0.033 C 
ATOM     10  C   UNL     1      34.662 -18.091 -20.649  0.00  0.00    -0.015 C 
ATOM     11  C   UNL     1      34.530 -19.939 -22.358  0.00  0.00    -0.015 C 
ATOM     12  C   UNL     1      34.985 -18.928 -23.416  0.00  0.00    -0.076 C 
ATOM     13  C   UNL     1      35.112 -17.150 -21.772  0.00  0.00    -0.076 C 
ATOM     14  C   UNL     1      34.451 -20.495 -19.892  0.00  0.00    -0.019 C 
ATOM     15  C   UNL     1      36.504 -19.831 -20.768  0.00  0.00    -0.023 C 
ATOM     16  C   UNL     1      35.502 -21.167 -19.249  0.00  0.00    -0.004 C 
ATOM     17  C   UNL     1      36.766 -20.736 -19.812  0.00  0.00    -0.005 C 
ATOM     18  C   UNL     1      33.134 -20.732 -19.532  0.00  0.00    -0.004 C 
ATOM     19  C   UNL     1      35.259 -22.083 -18.238  0.00  0.00    -0.000 C 
ATOM     20  C   UNL     1      32.879 -21.655 -18.515  0.00  0.00    -0.000 C 
ATOM     21  C   UNL     1      33.933 -22.325 -17.873  0.00  0.00    -0.000 C 
ATOM     22  H   UNL     1      33.542 -17.568 -22.987  0.00  0.00    -0.079 HD
ENDBRANCH   7   8
ENDBRANCH   1   7
BRANCH   6  23
ATOM     23  C   UNL     1      33.182 -11.240 -22.940  0.00  0.00    +0.232 C 
BRANCH  23  24
ATOM     24  O   UNL     1      34.207 -10.320 -23.297  0.00  0.00    -0.471 OA
BRANCH  24  25
ATOM     25  C   UNL     1      33.869  -8.993 -23.304  0.00  0.00    +0.139 C 
ATOM     26  C   UNL     1      33.182  -6.289 -23.315  0.00  0.00    -0.010 C 
ATOM     27  C   UNL     1      34.868  -8.019 -23.298  0.00  0.00    +0.037 C 
ATOM     28  C   UNL     1      32.527  -8.614 -23.315  0.00  0.00    +0.037 C 
ATOM     29  C   UNL     1      34.524  -6.667 -23.304  0.00  0.00    -0.000 C 
ATOM     30  C   UNL     1      32.183  -7.262 -23.320  0.00  0.00    -0.000 C 
BRANCH  26  31
ATOM     31  C   UNL     1      32.813  -4.844 -23.321  0.00  0.00    +0.097 C 
BRANCH  31  32
ATOM     32  C   UNL     1      33.266  -4.166 -24.567  0.00  0.00    -0.087 C 
ATOM     33  C   UNL     1      33.637  -3.605 -25.563  0.00  0.00    -0.090 C 
ATOM     34  C   UNL     1      34.085  -2.922 -26.775  0.00  0.00    +0.090 C 
ENDBRANCH  31  32
BRANCH  31  35
ATOM     35  C   UNL     1      31.290  -4.622 -23.120  0.00  0.00    +0.127 C 
BRANCH  35  37
ATOM     36  O   UNL     1      30.901  -5.106 -20.759  0.00  0.00    -0.250 OA
ATOM     37  C   UNL     1      30.891  -4.313 -21.690  0.00  0.00    +0.315 C 
BRANCH  37  38
ATOM     38  O   UNL     1      30.523  -3.012 -21.551  0.00  0.00    -0.480 OA
ATOM     39  H   UNL     1      29.785  -2.788 -21.019  0.00  0.00    +0.295 HD
ENDBRANCH  37  38
ENDBRANCH  35  37
ENDBRANCH  31  35
ENDBRANCH  26  31
ENDBRANCH  24  25
ENDBRANCH  23  24
ENDBRANCH   6  23
TORSDOF 10
ENDMDL
MODEL 9
REMARK VINA RESULT:     -11.9      3.225      6.147
REMARK  Name = 51049992
REMARK  10 active torsions:
REMARK  status: ('A' for Active; 'I' for Inactive)
REMARK    1  A    between atoms: C_1  and  C_7
REMARK    2  A    between atoms: C_6  and  C_23
REMARK    3  A    between atoms: C_7  and  N_8
REMARK    4  A    between atoms: C_23  and  O_24
REMARK    5  A    between atoms: O_24  and  C_25
REMARK    6  A    between atoms: C_26  and  C_31
REMARK    7  A    between atoms: C_31  and  C_32
REMARK    8  A    between atoms: C_31  and  C_35
REMARK    9  A    between atoms: C_35  and  C_37
REMARK   10  A    between atoms: C_37  and  O_38
REMARK                            x       y       z     vdW  Elec       q    Type
REMARK                         _______ _______ _______ _____ _____    ______ ____
ROOT
ATOM      1  C   UNL     1      35.310 -18.007 -22.653  0.00  0.00    -0.043 C 
ATOM      2  C   UNL     1      34.346 -18.916 -22.218  0.00  0.00    -0.007 C 
ATOM      3  C   UNL     1      36.572 -17.992 -22.059  0.00  0.00    -0.007 C 
ATOM      4  C   UNL     1      34.644 -19.810 -21.190  0.00  0.00    -0.001 C 
ATOM      5  C   UNL     1      36.870 -18.886 -21.031  0.00  0.00    -0.001 C 
ATOM      6  C   UNL     1      35.906 -19.795 -20.596  0.00  0.00    +0.021 C 
ENDROOT
BRANCH   1   7
ATOM      7  C   UNL     1      34.988 -17.042 -23.763  0.00  0.00    -0.050 C 
BRANCH   7   8
ATOM      8  N   UNL     1      34.236 -15.885 -23.277  0.00  0.00    +0.390 N 
ATOM      9  C   UNL     1      33.561 -13.025 -23.042  0.00  0.00    +0.033 C 
ATOM     10  C   UNL     1      32.742 -14.009 -23.897  0.00  0.00    -0.015 C 
ATOM     11  C   UNL     1      34.332 -13.794 -21.954  0.00  0.00    -0.015 C 
ATOM     12  C   UNL     1      35.116 -14.980 -22.524  0.00  0.00    -0.076 C 
ATOM     13  C   UNL     1      33.586 -15.188 -24.395  0.00  0.00    -0.076 C 
ATOM     14  C   UNL     1      32.691 -11.935 -22.451  0.00  0.00    -0.019 C 
ATOM     15  C   UNL     1      34.498 -12.178 -23.901  0.00  0.00    -0.023 C 
ATOM     16  C   UNL     1      33.110 -10.685 -22.931  0.00  0.00    -0.004 C 
ATOM     17  C   UNL     1      34.233 -10.864 -23.830  0.00  0.00    -0.005 C 
ATOM     18  C   UNL     1      31.626 -12.036 -21.571  0.00  0.00    -0.004 C 
ATOM     19  C   UNL     1      32.476  -9.515 -22.543  0.00  0.00    -0.000 C 
ATOM     20  C   UNL     1      30.981 -10.862 -21.173  0.00  0.00    -0.000 C 
ATOM     21  C   UNL     1      31.402  -9.612 -21.655  0.00  0.00    -0.000 C 
ATOM     22  H   UNL     1      33.506 -16.210 -22.644  0.00  0.00    -0.079 HD
ENDBRANCH   7   8
ENDBRANCH   1   7
BRANCH   6  23
ATOM     23  C   UNL     1      36.226 -20.753 -19.499  0.00  0.00    +0.232 C 
BRANCH  23  24
ATOM     24  O   UNL     1      35.018 -21.289 -18.972  0.00  0.00    -0.471 OA
BRANCH  24  25
ATOM     25  C   UNL     1      35.108 -21.959 -17.781  0.00  0.00    +0.139 C 
ATOM     26  C   UNL     1      35.290 -23.320 -15.353  0.00  0.00    -0.010 C 
ATOM     27  C   UNL     1      33.994 -22.624 -17.269  0.00  0.00    +0.037 C 
ATOM     28  C   UNL     1      36.313 -21.973 -17.078  0.00  0.00    +0.037 C 
ATOM     29  C   UNL     1      34.085 -23.305 -16.055  0.00  0.00    -0.000 C 
ATOM     30  C   UNL     1      36.404 -22.654 -15.864  0.00  0.00    -0.000 C 
BRANCH  26  31
ATOM     31  C   UNL     1      35.389 -24.048 -14.054  0.00  0.00    +0.097 C 
BRANCH  31  32
ATOM     32  C   UNL     1      36.101 -25.346 -14.205  0.00  0.00    -0.087 C 
ATOM     33  C   UNL     1      36.672 -26.395 -14.343  0.00  0.00    -0.090 C 
ATOM     34  C   UNL     1      37.364 -27.671 -14.512  0.00  0.00    +0.090 C 
ENDBRANCH  31  32
BRANCH  31  35
ATOM     35  C   UNL     1      36.068 -23.194 -12.949  0.00  0.00    +0.127 C 
BRANCH  35  37
ATOM     36  O   UNL     1      35.069 -24.349 -11.045  0.00  0.00    -0.250 OA
ATOM     37  C   UNL     1      36.042 -23.827 -11.572  0.00  0.00    +0.315 C 
BRANCH  37  38
ATOM     38  O   UNL     1      37.261 -23.761 -10.975  0.00  0.00    -0.480 OA
ATOM     39  H   UNL     1      37.475 -24.351 -10.280  0.00  0.00    +0.295 HD
ENDBRANCH  37  38
ENDBRANCH  35  37
ENDBRANCH  31  35
ENDBRANCH  26  31
ENDBRANCH  24  25
ENDBRANCH  23  24
ENDBRANCH   6  23
TORSDOF 10
ENDMDL
