MODEL 1
REMARK VINA RESULT:     -12.3      0.000      0.000
REMARK  Name = 6914657
REMARK  8 active torsions:
REMARK  status: ('A' for Active; 'I' for Inactive)
REMARK    1  A    between atoms: C_1  and  C_4
REMARK    2  A    between atoms: C_1  and  C_16
REMARK    3  A    between atoms: C_9  and  C_10
REMARK    4  A    between atoms: C_16  and  C_17
REMARK    5  A    between atoms: C_17  and  C_18
REMARK    6  A    between atoms: C_18  and  N_20
REMARK    7  A    between atoms: C_21  and  C_23
REMARK    8  A    between atoms: C_24  and  C_26
REMARK                            x       y       z     vdW  Elec       q    Type
REMARK                         _______ _______ _______ _____ _____    ______ ____
ROOT
ATOM      1  C   UNL     1      32.176 -12.888 -20.770  0.00  0.00    +0.000 C 
ENDROOT
BRANCH   1   4
ATOM      2  O   UNL     1      33.125  -6.906 -19.328  0.00  0.00    -0.270 OA
ATOM      3  N   UNL     1      32.043  -8.602 -20.520  0.00  0.00    -0.276 N 
ATOM      4  C   UNL     1      31.631 -11.464 -20.682  0.00  0.00    +0.003 C 
ATOM      5  C   UNL     1      32.063 -10.636 -21.903  0.00  0.00    +0.022 C 
ATOM      6  C   UNL     1      32.092 -10.782 -19.384  0.00  0.00    +0.022 C 
ATOM      7  C   UNL     1      31.587  -9.191 -21.785  0.00  0.00    +0.094 C 
ATOM      8  C   UNL     1      31.623  -9.329 -19.323  0.00  0.00    +0.094 C 
ATOM      9  C   UNL     1      32.779  -7.421 -20.389  0.00  0.00    +0.249 C 
BRANCH   9  10
ATOM     10  C   UNL     1      33.194  -6.725 -21.613  0.00  0.00    +0.054 C 
ATOM     11  C   UNL     1      34.351  -7.123 -22.284  0.00  0.00    +0.005 C 
ATOM     12  C   UNL     1      32.433  -5.665 -22.105  0.00  0.00    +0.005 C 
ATOM     13  C   UNL     1      34.745  -6.462 -23.446  0.00  0.00    +0.000 C 
ATOM     14  C   UNL     1      32.827  -5.004 -23.269  0.00  0.00    +0.000 C 
ATOM     15  C   UNL     1      33.984  -5.402 -23.939  0.00  0.00    +0.000 C 
ENDBRANCH   9  10
ENDBRANCH   1   4
BRANCH   1  16
ATOM     16  C   UNL     1      32.830 -13.146 -22.125  0.00  0.00    +0.002 C 
BRANCH  16  17
ATOM     17  C   UNL     1      34.251 -13.684 -21.955  0.00  0.00    +0.021 C 
BRANCH  17  18
ATOM     18  C   UNL     1      34.626 -14.629 -23.090  0.00  0.00    +0.090 C 
BRANCH  18  20
ATOM     19  O   UNL     1      34.775 -17.027 -24.709  0.00  0.00    -0.270 OA
ATOM     20  N   UNL     1      34.753 -15.985 -22.630  0.00  0.00    -0.301 N 
ATOM     21  C   UNL     1      34.817 -17.078 -23.484  0.00  0.00    +0.246 C 
ATOM     22  H   UNL     1      34.796 -16.145 -21.660  0.00  0.00    +0.150 HD
BRANCH  21  23
ATOM     23  C   UNL     1      34.948 -18.364 -22.740  0.00  0.00    +0.058 C 
ATOM     24  C   UNL     1      34.866 -18.374 -21.402  0.00  0.00    +0.006 C 
BRANCH  24  26
ATOM     25  N   UNL     1      36.374 -21.186 -19.423  0.00  0.00    -0.242 NA
ATOM     26  C   UNL     1      34.971 -19.583 -20.566  0.00  0.00    +0.019 C 
ATOM     27  C   UNL     1      33.835 -20.258 -20.134  0.00  0.00    +0.003 C 
ATOM     28  C   UNL     1      36.206 -20.083 -20.186  0.00  0.00    +0.099 C 
ATOM     29  C   UNL     1      33.966 -21.396 -19.347  0.00  0.00    +0.021 C 
ATOM     30  C   UNL     1      35.246 -21.816 -19.022  0.00  0.00    +0.099 C 
ENDBRANCH  24  26
ENDBRANCH  21  23
ENDBRANCH  18  20
ENDBRANCH  17  18
ENDBRANCH  16  17
ENDBRANCH   1  16
TORSDOF 8
ENDMDL
MODEL 2
REMARK VINA RESULT:     -11.4      1.015      1.507
REMARK  Name = 6914657
REMARK  8 active torsions:
REMARK  status: ('A' for Active; 'I' for Inactive)
REMARK    1  A    between atoms: C_1  and  C_4
REMARK    2  A    between atoms: C_1  and  C_16
REMARK    3  A    between atoms: C_9  and  C_10
REMARK    4  A    between atoms: C_16  and  C_17
REMARK    5  A    between atoms: C_17  and  C_18
REMARK    6  A    between atoms: C_18  and  N_20
REMARK    7  A    between atoms: C_21  and  C_23
REMARK    8  A    between atoms: C_24  and  C_26
REMARK                            x       y       z     vdW  Elec       q    Type
REMARK                         _______ _______ _______ _____ _____    ______ ____
ROOT
ATOM      1  C   UNL     1      33.341 -13.692 -21.555  0.00  0.00    +0.000 C 
ENDROOT
BRANCH   1   4
ATOM      2  O   UNL     1      32.084  -7.819 -19.913  0.00  0.00    -0.270 OA
ATOM      3  N   UNL     1      32.027  -9.605 -21.421  0.00  0.00    -0.276 N 
ATOM      4  C   UNL     1      32.460 -12.455 -21.707  0.00  0.00    +0.003 C 
ATOM      5  C   UNL     1      33.105 -11.437 -22.661  0.00  0.00    +0.022 C 
ATOM      6  C   UNL     1      32.187 -11.807 -20.339  0.00  0.00    +0.022 C 
ATOM      7  C   UNL     1      32.267 -10.164 -22.757  0.00  0.00    +0.094 C 
ATOM      8  C   UNL     1      31.376 -10.521 -20.485  0.00  0.00    +0.094 C 
ATOM      9  C   UNL     1      32.323  -8.301 -21.019  0.00  0.00    +0.249 C 
BRANCH   9  10
ATOM     10  C   UNL     1      32.988  -7.413 -21.980  0.00  0.00    +0.054 C 
ATOM     11  C   UNL     1      32.254  -6.433 -22.648  0.00  0.00    +0.005 C 
ATOM     12  C   UNL     1      34.354  -7.550 -22.227  0.00  0.00    +0.005 C 
ATOM     13  C   UNL     1      32.886  -5.590 -23.562  0.00  0.00    +0.000 C 
ATOM     14  C   UNL     1      34.986  -6.706 -23.141  0.00  0.00    +0.000 C 
ATOM     15  C   UNL     1      34.252  -5.726 -23.809  0.00  0.00    +0.000 C 
ENDBRANCH   9  10
ENDBRANCH   1   4
BRANCH   1  16
ATOM     16  C   UNL     1      34.331 -13.811 -22.711  0.00  0.00    +0.002 C 
BRANCH  16  17
ATOM     17  C   UNL     1      33.806 -14.758 -23.790  0.00  0.00    +0.021 C 
BRANCH  17  18
ATOM     18  C   UNL     1      34.816 -15.856 -24.103  0.00  0.00    +0.090 C 
BRANCH  18  20
ATOM     19  O   UNL     1      34.077 -18.565 -24.816  0.00  0.00    -0.270 OA
ATOM     20  N   UNL     1      34.667 -16.980 -23.220  0.00  0.00    -0.301 N 
ATOM     21  C   UNL     1      34.308 -18.250 -23.653  0.00  0.00    +0.246 C 
ATOM     22  H   UNL     1      34.829 -16.842 -22.259  0.00  0.00    +0.150 HD
BRANCH  21  23
ATOM     23  C   UNL     1      34.228 -19.224 -22.528  0.00  0.00    +0.058 C 
ATOM     24  C   UNL     1      35.140 -19.190 -21.546  0.00  0.00    +0.006 C 
BRANCH  24  26
ATOM     25  N   UNL     1      36.418 -21.209 -18.649  0.00  0.00    -0.242 NA
ATOM     26  C   UNL     1      35.154 -20.096 -20.384  0.00  0.00    +0.019 C 
ATOM     27  C   UNL     1      33.983 -20.685 -19.920  0.00  0.00    +0.003 C 
ATOM     28  C   UNL     1      36.335 -20.387 -19.720  0.00  0.00    +0.099 C 
ATOM     29  C   UNL     1      34.028 -21.536 -18.822  0.00  0.00    +0.021 C 
ATOM     30  C   UNL     1      35.259 -21.763 -18.227  0.00  0.00    +0.099 C 
ENDBRANCH  24  26
ENDBRANCH  21  23
ENDBRANCH  18  20
ENDBRANCH  17  18
ENDBRANCH  16  17
ENDBRANCH   1  16
TORSDOF 8
ENDMDL
MODEL 3
REMARK VINA RESULT:     -11.0      1.566      2.303
REMARK  Name = 6914657
REMARK  8 active torsions:
REMARK  status: ('A' for Active; 'I' for Inactive)
REMARK    1  A    between atoms: C_1  and  C_4
REMARK    2  A    between atoms: C_1  and  C_16
REMARK    3  A    between atoms: C_9  and  C_10
REMARK    4  A    between atoms: C_16  and  C_17
REMARK    5  A    between atoms: C_17  and  C_18
REMARK    6  A    between atoms: C_18  and  N_20
REMARK    7  A    between atoms: C_21  and  C_23
REMARK    8  A    between atoms: C_24  and  C_26
REMARK                            x       y       z     vdW  Elec       q    Type
REMARK                         _______ _______ _______ _____ _____    ______ ____
ROOT
ATOM      1  C   UNL     1      34.386 -14.125 -22.328  0.00  0.00    +0.000 C 
ENDROOT
BRANCH   1   4
ATOM      2  O   UNL     1      31.685  -8.752 -20.712  0.00  0.00    -0.270 OA
ATOM      3  N   UNL     1      32.288 -10.377 -22.282  0.00  0.00    -0.276 N 
ATOM      4  C   UNL     1      33.326 -13.062 -22.606  0.00  0.00    +0.003 C 
ATOM      5  C   UNL     1      33.936 -11.861 -23.348  0.00  0.00    +0.022 C 
ATOM      6  C   UNL     1      32.660 -12.599 -21.299  0.00  0.00    +0.022 C 
ATOM      7  C   UNL     1      32.899 -10.761 -23.561  0.00  0.00    +0.094 C 
ATOM      8  C   UNL     1      31.656 -11.476 -21.554  0.00  0.00    +0.094 C 
ATOM      9  C   UNL     1      32.233  -9.081 -21.763  0.00  0.00    +0.249 C 
BRANCH   9  10
ATOM     10  C   UNL     1      32.890  -8.005 -22.515  0.00  0.00    +0.054 C 
ATOM     11  C   UNL     1      34.261  -7.790 -22.372  0.00  0.00    +0.005 C 
ATOM     12  C   UNL     1      32.143  -7.197 -23.372  0.00  0.00    +0.005 C 
ATOM     13  C   UNL     1      34.885  -6.768 -23.086  0.00  0.00    +0.000 C 
ATOM     14  C   UNL     1      32.767  -6.174 -24.087  0.00  0.00    +0.000 C 
ATOM     15  C   UNL     1      34.138  -5.959 -23.943  0.00  0.00    +0.000 C 
ENDBRANCH   9  10
ENDBRANCH   1   4
BRANCH   1  16
ATOM     16  C   UNL     1      34.874 -14.770 -23.623  0.00  0.00    +0.002 C 
BRANCH  16  17
ATOM     17  C   UNL     1      33.878 -15.814 -24.126  0.00  0.00    +0.021 C 
BRANCH  17  18
ATOM     18  C   UNL     1      34.553 -17.162 -24.349  0.00  0.00    +0.090 C 
BRANCH  18  20
ATOM     19  O   UNL     1      36.364 -18.354 -22.426  0.00  0.00    -0.270 OA
ATOM     20  N   UNL     1      34.226 -18.096 -23.306  0.00  0.00    -0.301 N 
ATOM     21  C   UNL     1      35.166 -18.617 -22.425  0.00  0.00    +0.246 C 
ATOM     22  H   UNL     1      33.289 -18.380 -23.211  0.00  0.00    +0.150 HD
BRANCH  21  23
ATOM     23  C   UNL     1      34.554 -19.560 -21.446  0.00  0.00    +0.058 C 
ATOM     24  C   UNL     1      35.285 -20.039 -20.430  0.00  0.00    +0.006 C 
BRANCH  24  26
ATOM     25  N   UNL     1      35.259 -22.473 -17.571  0.00  0.00    -0.242 NA
ATOM     26  C   UNL     1      34.784 -20.966 -19.401  0.00  0.00    +0.019 C 
ATOM     27  C   UNL     1      33.423 -21.221 -19.266  0.00  0.00    +0.003 C 
ATOM     28  C   UNL     1      35.653 -21.611 -18.536  0.00  0.00    +0.099 C 
ATOM     29  C   UNL     1      32.980 -22.101 -18.286  0.00  0.00    +0.021 C 
ATOM     30  C   UNL     1      33.929 -22.696 -17.472  0.00  0.00    +0.099 C 
ENDBRANCH  24  26
ENDBRANCH  21  23
ENDBRANCH  18  20
ENDBRANCH  17  18
ENDBRANCH  16  17
ENDBRANCH   1  16
TORSDOF 8
ENDMDL
MODEL 4
REMARK VINA RESULT:     -10.7      8.118     11.854
REMARK  Name = 6914657
REMARK  8 active torsions:
REMARK  status: ('A' for Active; 'I' for Inactive)
REMARK    1  A    between atoms: C_1  and  C_4
REMARK    2  A    between atoms: C_1  and  C_16
REMARK    3  A    between atoms: C_9  and  C_10
REMARK    4  A    between atoms: C_16  and  C_17
REMARK    5  A    between atoms: C_17  and  C_18
REMARK    6  A    between atoms: C_18  and  N_20
REMARK    7  A    between atoms: C_21  and  C_23
REMARK    8  A    between atoms: C_24  and  C_26
REMARK                            x       y       z     vdW  Elec       q    Type
REMARK                         _______ _______ _______ _____ _____    ______ ____
ROOT
ATOM      1  C   UNL     1      36.822 -21.993 -15.695  0.00  0.00    +0.000 C 
ENDROOT
BRANCH   1   4
ATOM      2  O   UNL     1      32.518 -20.547 -19.955  0.00  0.00    -0.270 OA
ATOM      3  N   UNL     1      34.593 -21.418 -19.321  0.00  0.00    -0.276 N 
ATOM      4  C   UNL     1      36.197 -22.262 -17.061  0.00  0.00    +0.003 C 
ATOM      5  C   UNL     1      36.731 -21.275 -18.112  0.00  0.00    +0.022 C 
ATOM      6  C   UNL     1      34.663 -22.182 -16.985  0.00  0.00    +0.022 C 
ATOM      7  C   UNL     1      36.053 -21.488 -19.463  0.00  0.00    +0.094 C 
ATOM      8  C   UNL     1      34.028 -22.367 -18.362  0.00  0.00    +0.094 C 
ATOM      9  C   UNL     1      33.745 -20.576 -20.043  0.00  0.00    +0.249 C 
BRANCH   9  10
ATOM     10  C   UNL     1      34.348 -19.628 -20.987  0.00  0.00    +0.054 C 
ATOM     11  C   UNL     1      35.328 -18.736 -20.550  0.00  0.00    +0.005 C 
ATOM     12  C   UNL     1      33.943 -19.618 -22.322  0.00  0.00    +0.005 C 
ATOM     13  C   UNL     1      35.902 -17.836 -21.446  0.00  0.00    +0.000 C 
ATOM     14  C   UNL     1      34.517 -18.717 -23.219  0.00  0.00    +0.000 C 
ATOM     15  C   UNL     1      35.497 -17.825 -22.781  0.00  0.00    +0.000 C 
ENDBRANCH   9  10
ENDBRANCH   1   4
BRANCH   1  16
ATOM     16  C   UNL     1      37.534 -23.233 -15.159  0.00  0.00    +0.002 C 
BRANCH  16  17
ATOM     17  C   UNL     1      37.135 -23.514 -13.711  0.00  0.00    +0.021 C 
BRANCH  17  18
ATOM     18  C   UNL     1      36.366 -24.825 -13.593  0.00  0.00    +0.090 C 
BRANCH  18  20
ATOM     19  O   UNL     1      34.452 -23.896 -11.625  0.00  0.00    -0.270 OA
ATOM     20  N   UNL     1      34.953 -24.628 -13.775  0.00  0.00    -0.301 N 
ATOM     21  C   UNL     1      34.109 -24.176 -12.769  0.00  0.00    +0.246 C 
ATOM     22  H   UNL     1      34.566 -24.822 -14.659  0.00  0.00    +0.150 HD
BRANCH  21  23
ATOM     23  C   UNL     1      32.696 -24.062 -13.232  0.00  0.00    +0.058 C 
ATOM     24  C   UNL     1      32.433 -23.727 -14.503  0.00  0.00    +0.006 C 
BRANCH  24  26
ATOM     25  N   UNL     1      29.611 -22.550 -16.682  0.00  0.00    -0.242 NA
ATOM     26  C   UNL     1      31.080 -23.594 -15.070  0.00  0.00    +0.019 C 
ATOM     27  C   UNL     1      30.017 -24.341 -14.574  0.00  0.00    +0.003 C 
ATOM     28  C   UNL     1      30.827 -22.721 -16.116  0.00  0.00    +0.099 C 
ATOM     29  C   UNL     1      28.752 -24.193 -15.130  0.00  0.00    +0.021 C 
ATOM     30  C   UNL     1      28.602 -23.292 -16.172  0.00  0.00    +0.099 C 
ENDBRANCH  24  26
ENDBRANCH  21  23
ENDBRANCH  18  20
ENDBRANCH  17  18
ENDBRANCH  16  17
ENDBRANCH   1  16
TORSDOF 8
ENDMDL
MODEL 5
REMARK VINA RESULT:     -10.5      3.903     12.736
REMARK  Name = 6914657
REMARK  8 active torsions:
REMARK  status: ('A' for Active; 'I' for Inactive)
REMARK    1  A    between atoms: C_1  and  C_4
REMARK    2  A    between atoms: C_1  and  C_16
REMARK    3  A    between atoms: C_9  and  C_10
REMARK    4  A    between atoms: C_16  and  C_17
REMARK    5  A    between atoms: C_17  and  C_18
REMARK    6  A    between atoms: C_18  and  N_20
REMARK    7  A    between atoms: C_21  and  C_23
REMARK    8  A    between atoms: C_24  and  C_26
REMARK                            x       y       z     vdW  Elec       q    Type
REMARK                         _______ _______ _______ _____ _____    ______ ____
ROOT
ATOM      1  C   UNL     1      33.878 -20.417 -20.137  0.00  0.00    +0.000 C 
ENDROOT
BRANCH   1   4
ATOM      2  O   UNL     1      35.393 -22.585 -14.500  0.00  0.00    -0.270 OA
ATOM      3  N   UNL     1      34.452 -22.826 -16.627  0.00  0.00    -0.276 N 
ATOM      4  C   UNL     1      34.219 -21.609 -19.245  0.00  0.00    +0.003 C 
ATOM      5  C   UNL     1      32.985 -22.069 -18.452  0.00  0.00    +0.022 C 
ATOM      6  C   UNL     1      35.371 -21.263 -18.287  0.00  0.00    +0.022 C 
ATOM      7  C   UNL     1      33.337 -23.211 -17.500  0.00  0.00    +0.094 C 
ATOM      8  C   UNL     1      35.666 -22.418 -17.333  0.00  0.00    +0.094 C 
ATOM      9  C   UNL     1      34.445 -22.867 -15.231  0.00  0.00    +0.249 C 
BRANCH   9  10
ATOM     10  C   UNL     1      33.205 -23.269 -14.556  0.00  0.00    +0.054 C 
ATOM     11  C   UNL     1      32.068 -22.465 -14.650  0.00  0.00    +0.005 C 
ATOM     12  C   UNL     1      33.162 -24.453 -13.821  0.00  0.00    +0.005 C 
ATOM     13  C   UNL     1      30.890 -22.846 -14.009  0.00  0.00    +0.000 C 
ATOM     14  C   UNL     1      31.983 -24.835 -13.180  0.00  0.00    +0.000 C 
ATOM     15  C   UNL     1      30.847 -24.031 -13.274  0.00  0.00    +0.000 C 
ENDBRANCH   9  10
ENDBRANCH   1   4
BRANCH   1  16
ATOM     16  C   UNL     1      35.141 -19.743 -20.664  0.00  0.00    +0.002 C 
BRANCH  16  17
ATOM     17  C   UNL     1      34.890 -19.090 -22.023  0.00  0.00    +0.021 C 
BRANCH  17  18
ATOM     18  C   UNL     1      35.868 -17.949 -22.280  0.00  0.00    +0.090 C 
BRANCH  18  20
ATOM     19  O   UNL     1      34.775 -17.008 -24.793  0.00  0.00    -0.270 OA
ATOM     20  N   UNL     1      35.182 -16.709 -22.523  0.00  0.00    -0.301 N 
ATOM     21  C   UNL     1      34.690 -16.340 -23.768  0.00  0.00    +0.246 C 
ATOM     22  H   UNL     1      35.055 -16.091 -21.768  0.00  0.00    +0.150 HD
BRANCH  21  23
ATOM     23  C   UNL     1      34.024 -15.007 -23.735  0.00  0.00    +0.058 C 
ATOM     24  C   UNL     1      34.000 -14.298 -22.597  0.00  0.00    +0.006 C 
BRANCH  24  26
ATOM     25  N   UNL     1      33.247 -10.664 -23.166  0.00  0.00    -0.242 NA
ATOM     26  C   UNL     1      33.381 -12.970 -22.451  0.00  0.00    +0.019 C 
ATOM     27  C   UNL     1      32.383 -12.742 -21.509  0.00  0.00    +0.003 C 
ATOM     28  C   UNL     1      33.773 -11.907 -23.249  0.00  0.00    +0.099 C 
ATOM     29  C   UNL     1      31.818 -11.478 -21.394  0.00  0.00    +0.021 C 
ATOM     30  C   UNL     1      32.280 -10.481 -22.238  0.00  0.00    +0.099 C 
ENDBRANCH  24  26
ENDBRANCH  21  23
ENDBRANCH  18  20
ENDBRANCH  17  18
ENDBRANCH  16  17
ENDBRANCH   1  16
TORSDOF 8
ENDMDL
MODEL 6
REMARK VINA RESULT:     -10.4      4.349     12.864
REMARK  Name = 6914657
REMARK  8 active torsions:
REMARK  status: ('A' for Active; 'I' for Inactive)
REMARK    1  A    between atoms: C_1  and  C_4
REMARK    2  A    between atoms: C_1  and  C_16
REMARK    3  A    between atoms: C_9  and  C_10
REMARK    4  A    between atoms: C_16  and  C_17
REMARK    5  A    between atoms: C_17  and  C_18
REMARK    6  A    between atoms: C_18  and  N_20
REMARK    7  A    between atoms: C_21  and  C_23
REMARK    8  A    between atoms: C_24  and  C_26
REMARK                            x       y       z     vdW  Elec       q    Type
REMARK                         _______ _______ _______ _____ _____    ______ ____
ROOT
ATOM      1  C   UNL     1      35.686 -20.902 -19.109  0.00  0.00    +0.000 C 
ENDROOT
BRANCH   1   4
ATOM      2  O   UNL     1      33.396 -23.289 -13.835  0.00  0.00    -0.270 OA
ATOM      3  N   UNL     1      33.771 -23.346 -16.142  0.00  0.00    -0.276 N 
ATOM      4  C   UNL     1      35.254 -22.130 -18.312  0.00  0.00    +0.003 C 
ATOM      5  C   UNL     1      33.729 -22.315 -18.375  0.00  0.00    +0.022 C 
ATOM      6  C   UNL     1      35.720 -22.025 -16.850  0.00  0.00    +0.022 C 
ATOM      7  C   UNL     1      33.282 -23.497 -17.518  0.00  0.00    +0.094 C 
ATOM      8  C   UNL     1      35.222 -23.208 -16.022  0.00  0.00    +0.094 C 
ATOM      9  C   UNL     1      32.982 -23.373 -14.989  0.00  0.00    +0.249 C 
BRANCH   9  10
ATOM     10  C   UNL     1      31.528 -23.500 -15.148  0.00  0.00    +0.054 C 
ATOM     11  C   UNL     1      30.837 -22.614 -15.975  0.00  0.00    +0.005 C 
ATOM     12  C   UNL     1      30.838 -24.506 -14.473  0.00  0.00    +0.005 C 
ATOM     13  C   UNL     1      29.456 -22.734 -16.126  0.00  0.00    +0.000 C 
ATOM     14  C   UNL     1      29.456 -24.627 -14.625  0.00  0.00    +0.000 C 
ATOM     15  C   UNL     1      28.765 -23.740 -15.451  0.00  0.00    +0.000 C 
ENDBRANCH   9  10
ENDBRANCH   1   4
BRANCH   1  16
ATOM     16  C   UNL     1      34.653 -20.541 -20.173  0.00  0.00    +0.002 C 
BRANCH  16  17
ATOM     17  C   UNL     1      34.924 -19.155 -20.756  0.00  0.00    +0.021 C 
BRANCH  17  18
ATOM     18  C   UNL     1      34.998 -19.199 -22.278  0.00  0.00    +0.090 C 
BRANCH  18  20
ATOM     19  O   UNL     1      33.787 -18.372 -24.777  0.00  0.00    -0.270 OA
ATOM     20  N   UNL     1      34.986 -17.878 -22.846  0.00  0.00    -0.301 N 
ATOM     21  C   UNL     1      34.376 -17.573 -24.056  0.00  0.00    +0.246 C 
ATOM     22  H   UNL     1      35.431 -17.153 -22.351  0.00  0.00    +0.150 HD
BRANCH  21  23
ATOM     23  C   UNL     1      34.514 -16.130 -24.406  0.00  0.00    +0.058 C 
ATOM     24  C   UNL     1      33.640 -15.237 -23.920  0.00  0.00    +0.006 C 
BRANCH  24  26
ATOM     25  N   UNL     1      33.536 -11.983 -25.790  0.00  0.00    -0.242 NA
ATOM     26  C   UNL     1      33.685 -13.790 -24.190  0.00  0.00    +0.019 C 
ATOM     27  C   UNL     1      33.907 -12.875 -23.167  0.00  0.00    +0.003 C 
ATOM     28  C   UNL     1      33.506 -13.297 -25.473  0.00  0.00    +0.099 C 
ATOM     29  C   UNL     1      33.945 -11.515 -23.453  0.00  0.00    +0.021 C 
ATOM     30  C   UNL     1      33.755 -11.124 -24.769  0.00  0.00    +0.099 C 
ENDBRANCH  24  26
ENDBRANCH  21  23
ENDBRANCH  18  20
ENDBRANCH  17  18
ENDBRANCH  16  17
ENDBRANCH   1  16
TORSDOF 8
ENDMDL
MODEL 7
REMARK VINA RESULT:     -10.3      7.008     13.447
REMARK  Name = 6914657
REMARK  8 active torsions:
REMARK  status: ('A' for Active; 'I' for Inactive)
REMARK    1  A    between atoms: C_1  and  C_4
REMARK    2  A    between atoms: C_1  and  C_16
REMARK    3  A    between atoms: C_9  and  C_10
REMARK    4  A    between atoms: C_16  and  C_17
REMARK    5  A    between atoms: C_17  and  C_18
REMARK    6  A    between atoms: C_18  and  N_20
REMARK    7  A    between atoms: C_21  and  C_23
REMARK    8  A    between atoms: C_24  and  C_26
REMARK                            x       y       z     vdW  Elec       q    Type
REMARK                         _______ _______ _______ _____ _____    ______ ____
ROOT
ATOM      1  C   UNL     1      36.482 -21.992 -14.830  0.00  0.00    +0.000 C 
ENDROOT
BRANCH   1   4
ATOM      2  O   UNL     1      31.558 -24.889 -12.354  0.00  0.00    -0.270 OA
ATOM      3  N   UNL     1      32.997 -24.405 -14.132  0.00  0.00    -0.276 N 
ATOM      4  C   UNL     1      35.525 -23.182 -14.843  0.00  0.00    +0.003 C 
ATOM      5  C   UNL     1      34.218 -22.825 -15.570  0.00  0.00    +0.022 C 
ATOM      6  C   UNL     1      35.227 -23.659 -13.412  0.00  0.00    +0.022 C 
ATOM      7  C   UNL     1      33.226 -23.984 -15.520  0.00  0.00    +0.094 C 
ATOM      8  C   UNL     1      34.206 -24.795 -13.407  0.00  0.00    +0.094 C 
ATOM      9  C   UNL     1      31.753 -24.497 -13.503  0.00  0.00    +0.249 C 
BRANCH   9  10
ATOM     10  C   UNL     1      30.564 -24.084 -14.257  0.00  0.00    +0.054 C 
ATOM     11  C   UNL     1      29.836 -25.027 -14.983  0.00  0.00    +0.005 C 
ATOM     12  C   UNL     1      30.160 -22.749 -14.248  0.00  0.00    +0.005 C 
ATOM     13  C   UNL     1      28.705 -24.635 -15.700  0.00  0.00    +0.000 C 
ATOM     14  C   UNL     1      29.029 -22.357 -14.965  0.00  0.00    +0.000 C 
ATOM     15  C   UNL     1      28.302 -23.300 -15.691  0.00  0.00    +0.000 C 
ENDBRANCH   9  10
ENDBRANCH   1   4
BRANCH   1  16
ATOM     16  C   UNL     1      37.514 -22.101 -15.949  0.00  0.00    +0.002 C 
BRANCH  16  17
ATOM     17  C   UNL     1      37.212 -21.111 -17.074  0.00  0.00    +0.021 C 
BRANCH  17  18
ATOM     18  C   UNL     1      36.556 -21.804 -18.262  0.00  0.00    +0.090 C 
BRANCH  18  20
ATOM     19  O   UNL     1      33.825 -21.754 -19.229  0.00  0.00    -0.270 OA
ATOM     20  N   UNL     1      35.970 -20.856 -19.170  0.00  0.00    -0.301 N 
ATOM     21  C   UNL     1      34.644 -20.911 -19.580  0.00  0.00    +0.246 C 
ATOM     22  H   UNL     1      36.537 -20.131 -19.517  0.00  0.00    +0.150 HD
BRANCH  21  23
ATOM     23  C   UNL     1      34.302 -19.806 -20.521  0.00  0.00    +0.058 C 
ATOM     24  C   UNL     1      35.167 -19.453 -21.482  0.00  0.00    +0.006 C 
BRANCH  24  26
ATOM     25  N   UNL     1      34.099 -17.730 -24.642  0.00  0.00    -0.242 NA
ATOM     26  C   UNL     1      34.932 -18.385 -22.469  0.00  0.00    +0.019 C 
ATOM     27  C   UNL     1      35.292 -17.069 -22.203  0.00  0.00    +0.003 C 
ATOM     28  C   UNL     1      34.343 -18.661 -23.693  0.00  0.00    +0.099 C 
ATOM     29  C   UNL     1      35.058 -16.083 -23.155  0.00  0.00    +0.021 C 
ATOM     30  C   UNL     1      34.464 -16.461 -24.348  0.00  0.00    +0.099 C 
ENDBRANCH  24  26
ENDBRANCH  21  23
ENDBRANCH  18  20
ENDBRANCH  17  18
ENDBRANCH  16  17
ENDBRANCH   1  16
TORSDOF 8
ENDMDL
MODEL 8
REMARK VINA RESULT:     -10.2      2.059      2.880
REMARK  Name = 6914657
REMARK  8 active torsions:
REMARK  status: ('A' for Active; 'I' for Inactive)
REMARK    1  A    between atoms: C_1  and  C_4
REMARK    2  A    between atoms: C_1  and  C_16
REMARK    3  A    between atoms: C_9  and  C_10
REMARK    4  A    between atoms: C_16  and  C_17
REMARK    5  A    between atoms: C_17  and  C_18
REMARK    6  A    between atoms: C_18  and  N_20
REMARK    7  A    between atoms: C_21  and  C_23
REMARK    8  A    between atoms: C_24  and  C_26
REMARK                            x       y       z     vdW  Elec       q    Type
REMARK                         _______ _______ _______ _____ _____    ______ ____
ROOT
ATOM      1  C   UNL     1      33.463 -12.709 -24.623  0.00  0.00    +0.000 C 
ENDROOT
BRANCH   1   4
ATOM      2  O   UNL     1      34.538  -6.576 -24.648  0.00  0.00    -0.270 OA
ATOM      3  N   UNL     1      34.290  -8.631 -23.559  0.00  0.00    -0.276 N 
ATOM      4  C   UNL     1      34.103 -11.494 -23.956  0.00  0.00    +0.003 C 
ATOM      5  C   UNL     1      33.070 -10.722 -23.118  0.00  0.00    +0.022 C 
ATOM      6  C   UNL     1      34.739 -10.567 -25.006  0.00  0.00    +0.022 C 
ATOM      7  C   UNL     1      33.685  -9.463 -22.511  0.00  0.00    +0.094 C 
ATOM      8  C   UNL     1      35.310  -9.306 -24.360  0.00  0.00    +0.094 C 
ATOM      9  C   UNL     1      34.001  -7.285 -23.798  0.00  0.00    +0.249 C 
BRANCH   9  10
ATOM     10  C   UNL     1      32.962  -6.644 -22.983  0.00  0.00    +0.054 C 
ATOM     11  C   UNL     1      31.830  -6.105 -23.594  0.00  0.00    +0.005 C 
ATOM     12  C   UNL     1      33.106  -6.573 -21.598  0.00  0.00    +0.005 C 
ATOM     13  C   UNL     1      30.843  -5.495 -22.820  0.00  0.00    +0.000 C 
ATOM     14  C   UNL     1      32.119  -5.964 -20.823  0.00  0.00    +0.000 C 
ATOM     15  C   UNL     1      30.987  -5.425 -21.435  0.00  0.00    +0.000 C 
ENDBRANCH   9  10
ENDBRANCH   1   4
BRANCH   1  16
ATOM     16  C   UNL     1      33.112 -13.782 -23.595  0.00  0.00    +0.002 C 
BRANCH  16  17
ATOM     17  C   UNL     1      34.372 -14.370 -22.962  0.00  0.00    +0.021 C 
BRANCH  17  18
ATOM     18  C   UNL     1      34.966 -15.473 -23.830  0.00  0.00    +0.090 C 
BRANCH  18  20
ATOM     19  O   UNL     1      34.109 -18.090 -24.732  0.00  0.00    -0.270 OA
ATOM     20  N   UNL     1      35.062 -16.716 -23.115  0.00  0.00    -0.301 N 
ATOM     21  C   UNL     1      34.623 -17.929 -23.630  0.00  0.00    +0.246 C 
ATOM     22  H   UNL     1      35.460 -16.707 -22.215  0.00  0.00    +0.150 HD
BRANCH  21  23
ATOM     23  C   UNL     1      34.844 -19.055 -22.678  0.00  0.00    +0.058 C 
ATOM     24  C   UNL     1      34.335 -18.995 -21.439  0.00  0.00    +0.006 C 
BRANCH  24  26
ATOM     25  N   UNL     1      35.943 -21.462 -19.109  0.00  0.00    -0.242 NA
ATOM     26  C   UNL     1      34.484 -20.050 -20.422  0.00  0.00    +0.019 C 
ATOM     27  C   UNL     1      33.371 -20.626 -19.818  0.00  0.00    +0.003 C 
ATOM     28  C   UNL     1      35.736 -20.498 -20.035  0.00  0.00    +0.099 C 
ATOM     29  C   UNL     1      33.543 -21.620 -18.862  0.00  0.00    +0.021 C 
ATOM     30  C   UNL     1      34.837 -21.999 -18.545  0.00  0.00    +0.099 C 
ENDBRANCH  24  26
ENDBRANCH  21  23
ENDBRANCH  18  20
ENDBRANCH  17  18
ENDBRANCH  16  17
ENDBRANCH   1  16
TORSDOF 8
ENDMDL
MODEL 9
REMARK VINA RESULT:     -10.1      3.289     12.435
REMARK  Name = 6914657
REMARK  8 active torsions:
REMARK  status: ('A' for Active; 'I' for Inactive)
REMARK    1  A    between atoms: C_1  and  C_4
REMARK    2  A    between atoms: C_1  and  C_16
REMARK    3  A    between atoms: C_9  and  C_10
REMARK    4  A    between atoms: C_16  and  C_17
REMARK    5  A    between atoms: C_17  and  C_18
REMARK    6  A    between atoms: C_18  and  N_20
REMARK    7  A    between atoms: C_21  and  C_23
REMARK    8  A    between atoms: C_24  and  C_26
REMARK                            x       y       z     vdW  Elec       q    Type
REMARK                         _______ _______ _______ _____ _____    ______ ____
ROOT
ATOM      1  C   UNL     1      34.276 -19.067 -20.919  0.00  0.00    +0.000 C 
ENDROOT
BRANCH   1   4
ATOM      2  O   UNL     1      35.547 -22.935 -16.208  0.00  0.00    -0.270 OA
ATOM      3  N   UNL     1      34.385 -22.350 -18.151  0.00  0.00    -0.276 N 
ATOM      4  C   UNL     1      34.305 -20.492 -20.372  0.00  0.00    +0.003 C 
ATOM      5  C   UNL     1      33.069 -20.769 -19.501  0.00  0.00    +0.022 C 
ATOM      6  C   UNL     1      35.592 -20.743 -19.568  0.00  0.00    +0.022 C 
ATOM      7  C   UNL     1      33.129 -22.166 -18.888  0.00  0.00    +0.094 C 
ATOM      8  C   UNL     1      35.594 -22.138 -18.945  0.00  0.00    +0.094 C 
ATOM      9  C   UNL     1      34.495 -22.741 -16.814  0.00  0.00    +0.249 C 
BRANCH   9  10
ATOM     10  C   UNL     1      33.260 -22.931 -16.044  0.00  0.00    +0.054 C 
ATOM     11  C   UNL     1      33.325 -23.206 -14.678  0.00  0.00    +0.005 C 
ATOM     12  C   UNL     1      32.021 -22.838 -16.677  0.00  0.00    +0.005 C 
ATOM     13  C   UNL     1      32.153 -23.387 -13.946  0.00  0.00    +0.000 C 
ATOM     14  C   UNL     1      30.848 -23.019 -15.945  0.00  0.00    +0.000 C 
ATOM     15  C   UNL     1      30.914 -23.294 -14.579  0.00  0.00    +0.000 C 
ENDBRANCH   9  10
ENDBRANCH   1   4
BRANCH   1  16
ATOM     16  C   UNL     1      35.688 -18.546 -21.176  0.00  0.00    +0.002 C 
BRANCH  16  17
ATOM     17  C   UNL     1      35.678 -17.040 -21.442  0.00  0.00    +0.021 C 
BRANCH  17  18
ATOM     18  C   UNL     1      35.312 -16.735 -22.889  0.00  0.00    +0.090 C 
BRANCH  18  20
ATOM     19  O   UNL     1      33.857 -15.723 -25.181  0.00  0.00    -0.270 OA
ATOM     20  N   UNL     1      34.651 -15.464 -23.011  0.00  0.00    -0.301 N 
ATOM     21  C   UNL     1      33.974 -15.061 -24.155  0.00  0.00    +0.246 C 
ATOM     22  H   UNL     1      34.680 -14.848 -22.244  0.00  0.00    +0.150 HD
BRANCH  21  23
ATOM     23  C   UNL     1      33.383 -13.700 -24.007  0.00  0.00    +0.058 C 
ATOM     24  C   UNL     1      34.061 -12.743 -23.358  0.00  0.00    +0.006 C 
BRANCH  24  26
ATOM     25  N   UNL     1      31.966  -9.864 -22.166  0.00  0.00    -0.242 NA
ATOM     26  C   UNL     1      33.580 -11.365 -23.160  0.00  0.00    +0.019 C 
ATOM     27  C   UNL     1      34.236 -10.285 -23.743  0.00  0.00    +0.003 C 
ATOM     28  C   UNL     1      32.460 -11.103 -22.387  0.00  0.00    +0.099 C 
ATOM     29  C   UNL     1      33.758  -8.996 -23.538  0.00  0.00    +0.021 C 
ATOM     30  C   UNL     1      32.630  -8.840 -22.749  0.00  0.00    +0.099 C 
ENDBRANCH  24  26
ENDBRANCH  21  23
ENDBRANCH  18  20
ENDBRANCH  17  18
ENDBRANCH  16  17
ENDBRANCH   1  16
TORSDOF 8
ENDMDL
