MODEL 1
REMARK VINA RESULT:     -12.3      0.000      0.000
REMARK  Name = 25049750
REMARK  7 active torsions:
REMARK  status: ('A' for Active; 'I' for Inactive)
REMARK    1  A    between atoms: C_1  and  C_14
REMARK    2  A    between atoms: C_6  and  O_20
REMARK    3  A    between atoms: C_10  and  C_17
REMARK    4  A    between atoms: C_17  and  O_18
REMARK    5  A    between atoms: O_20  and  C_21
REMARK    6  A    between atoms: C_21  and  C_23
REMARK    7  A    between atoms: C_27  and  C_32
REMARK                            x       y       z     vdW  Elec       q    Type
REMARK                         _______ _______ _______ _____ _____    ______ ____
ROOT
ATOM      1  C   UNL     1      34.881 -19.805 -21.364  0.00  0.00    -0.004 C 
ATOM      2  C   UNL     1      33.491 -19.803 -21.243  0.00  0.00    +0.000 C 
ATOM      3  C   UNL     1      35.664 -20.428 -20.391  0.00  0.00    +0.000 C 
ATOM      4  C   UNL     1      32.885 -20.422 -20.150  0.00  0.00    +0.037 C 
ATOM      5  C   UNL     1      35.057 -21.047 -19.299  0.00  0.00    +0.037 C 
ATOM      6  C   UNL     1      33.668 -21.046 -19.178  0.00  0.00    +0.139 C 
ENDROOT
BRANCH   1  14
ATOM      7  O   UNL     1      33.519 -17.440 -24.933  0.00  0.00    -0.275 OA
ATOM      8  N   UNL     1      34.650 -19.077 -23.699  0.00  0.00    -0.302 N 
ATOM      9  C   UNL     1      34.971 -16.903 -23.126  0.00  0.00    +0.081 C 
ATOM     10  C   UNL     1      34.223 -15.773 -22.507  0.00  0.00    +0.108 C 
ATOM     11  C   UNL     1      35.303 -15.510 -23.523  0.00  0.00    +0.021 C 
ATOM     12  C   UNL     1      35.934 -17.665 -22.291  0.00  0.00    +0.033 C 
ATOM     13  C   UNL     1      34.277 -17.792 -24.043  0.00  0.00    +0.222 C 
ATOM     14  C   UNL     1      35.538 -19.134 -22.549  0.00  0.00    +0.095 C 
ATOM     15  H   UNL     1      34.345 -19.876 -24.186  0.00  0.00    +0.150 HD
BRANCH  10  17
ATOM     16  O   UNL     1      34.891 -16.083 -20.281  0.00  0.00    -0.250 OA
ATOM     17  C   UNL     1      34.549 -15.320 -21.172  0.00  0.00    +0.314 C 
BRANCH  17  18
ATOM     18  O   UNL     1      34.434 -13.976 -21.034  0.00  0.00    -0.480 OA
ATOM     19  H   UNL     1      33.619 -13.601 -20.765  0.00  0.00    +0.295 HD
ENDBRANCH  17  18
ENDBRANCH  10  17
ENDBRANCH   1  14
BRANCH   6  20
ATOM     20  O   UNL     1      33.072 -21.654 -18.104  0.00  0.00    -0.471 OA
BRANCH  20  21
ATOM     21  C   UNL     1      33.442 -23.001 -17.845  0.00  0.00    +0.229 C 
BRANCH  21  23
ATOM     22  N   UNL     1      33.573 -23.677 -13.622  0.00  0.00    -0.406 NA
ATOM     23  C   UNL     1      33.450 -23.233 -16.366  0.00  0.00    +0.012 C 
ATOM     24  C   UNL     1      32.278 -23.202 -15.598  0.00  0.00    +0.096 C 
ATOM     25  C   UNL     1      34.674 -23.485 -15.763  0.00  0.00    +0.028 C 
ATOM     26  C   UNL     1      32.387 -23.433 -14.211  0.00  0.00    +0.117 C 
ATOM     27  C   UNL     1      34.680 -23.699 -14.399  0.00  0.00    +0.130 C 
ATOM     28  C   UNL     1      31.024 -22.950 -16.180  0.00  0.00    -0.015 C 
ATOM     29  C   UNL     1      31.223 -23.401 -13.449  0.00  0.00    +0.028 C 
ATOM     30  C   UNL     1      29.876 -22.924 -15.395  0.00  0.00    -0.004 C 
ATOM     31  C   UNL     1      29.976 -23.150 -14.027  0.00  0.00    +0.002 C 
BRANCH  27  32
ATOM     32  C   UNL     1      35.911 -23.967 -13.694  0.00  0.00    +0.030 C 
ATOM     33  C   UNL     1      36.880 -24.788 -14.270  0.00  0.00    +0.003 C 
ATOM     34  C   UNL     1      36.131 -23.407 -12.436  0.00  0.00    +0.003 C 
ATOM     35  C   UNL     1      38.070 -25.047 -13.590  0.00  0.00    +0.000 C 
ATOM     36  C   UNL     1      37.321 -23.666 -11.755  0.00  0.00    +0.000 C 
ATOM     37  C   UNL     1      38.290 -24.487 -12.332  0.00  0.00    +0.000 C 
ENDBRANCH  27  32
ENDBRANCH  21  23
ENDBRANCH  20  21
ENDBRANCH   6  20
TORSDOF 7
ENDMDL
MODEL 2
REMARK VINA RESULT:     -12.2      3.808     10.001
REMARK  Name = 25049750
REMARK  7 active torsions:
REMARK  status: ('A' for Active; 'I' for Inactive)
REMARK    1  A    between atoms: C_1  and  C_14
REMARK    2  A    between atoms: C_6  and  O_20
REMARK    3  A    between atoms: C_10  and  C_17
REMARK    4  A    between atoms: C_17  and  O_18
REMARK    5  A    between atoms: O_20  and  C_21
REMARK    6  A    between atoms: C_21  and  C_23
REMARK    7  A    between atoms: C_27  and  C_32
REMARK                            x       y       z     vdW  Elec       q    Type
REMARK                         _______ _______ _______ _____ _____    ______ ____
ROOT
ATOM      1  C   UNL     1      37.469 -25.526 -13.894  0.00  0.00    -0.004 C 
ATOM      2  C   UNL     1      38.519 -24.727 -14.349  0.00  0.00    +0.000 C 
ATOM      3  C   UNL     1      36.149 -25.139 -14.124  0.00  0.00    +0.000 C 
ATOM      4  C   UNL     1      38.247 -23.542 -15.033  0.00  0.00    +0.037 C 
ATOM      5  C   UNL     1      35.878 -23.954 -14.808  0.00  0.00    +0.037 C 
ATOM      6  C   UNL     1      36.927 -23.156 -15.263  0.00  0.00    +0.139 C 
ENDROOT
BRANCH   1  14
ATOM      7  O   UNL     1      36.755 -29.910 -14.572  0.00  0.00    -0.275 OA
ATOM      8  N   UNL     1      36.793 -27.849 -13.463  0.00  0.00    -0.302 N 
ATOM      9  C   UNL     1      38.751 -28.646 -14.291  0.00  0.00    +0.081 C 
ATOM     10  C   UNL     1      39.410 -28.888 -15.605  0.00  0.00    +0.108 C 
ATOM     11  C   UNL     1      39.729 -29.758 -14.418  0.00  0.00    +0.021 C 
ATOM     12  C   UNL     1      39.128 -27.438 -13.515  0.00  0.00    +0.033 C 
ATOM     13  C   UNL     1      37.330 -28.919 -14.152  0.00  0.00    +0.222 C 
ATOM     14  C   UNL     1      37.763 -26.812 -13.154  0.00  0.00    +0.095 C 
ATOM     15  H   UNL     1      35.844 -27.794 -13.206  0.00  0.00    +0.150 HD
BRANCH  10  17
ATOM     16  O   UNL     1      41.651 -28.483 -16.160  0.00  0.00    -0.250 OA
ATOM     17  C   UNL     1      40.512 -28.057 -16.039  0.00  0.00    +0.314 C 
BRANCH  17  18
ATOM     18  O   UNL     1      40.135 -26.780 -16.291  0.00  0.00    -0.480 OA
ATOM     19  H   UNL     1      40.251 -26.120 -15.638  0.00  0.00    +0.295 HD
ENDBRANCH  17  18
ENDBRANCH  10  17
ENDBRANCH   1  14
BRANCH   6  20
ATOM     20  O   UNL     1      36.660 -21.991 -15.935  0.00  0.00    -0.471 OA
BRANCH  20  21
ATOM     21  C   UNL     1      36.492 -22.087 -17.342  0.00  0.00    +0.229 C 
BRANCH  21  23
ATOM     22  N   UNL     1      32.309 -21.806 -18.198  0.00  0.00    -0.406 NA
ATOM     23  C   UNL     1      35.036 -21.969 -17.672  0.00  0.00    +0.012 C 
ATOM     24  C   UNL     1      34.582 -21.295 -18.814  0.00  0.00    +0.096 C 
ATOM     25  C   UNL     1      34.130 -22.557 -16.802  0.00  0.00    +0.028 C 
ATOM     26  C   UNL     1      33.191 -21.237 -19.041  0.00  0.00    +0.117 C 
ATOM     27  C   UNL     1      32.788 -22.447 -17.108  0.00  0.00    +0.130 C 
ATOM     28  C   UNL     1      35.475 -20.690 -19.715  0.00  0.00    -0.015 C 
ATOM     29  C   UNL     1      32.741 -20.567 -20.175  0.00  0.00    +0.028 C 
ATOM     30  C   UNL     1      34.997 -20.026 -20.841  0.00  0.00    -0.004 C 
ATOM     31  C   UNL     1      33.628 -19.965 -21.071  0.00  0.00    +0.002 C 
BRANCH  27  32
ATOM     32  C   UNL     1      31.781 -23.030 -16.254  0.00  0.00    +0.030 C 
ATOM     33  C   UNL     1      30.431 -22.768 -16.489  0.00  0.00    +0.003 C 
ATOM     34  C   UNL     1      32.156 -23.855 -15.195  0.00  0.00    +0.003 C 
ATOM     35  C   UNL     1      29.457 -23.331 -15.665  0.00  0.00    +0.000 C 
ATOM     36  C   UNL     1      31.182 -24.419 -14.370  0.00  0.00    +0.000 C 
ATOM     37  C   UNL     1      29.833 -24.156 -14.605  0.00  0.00    +0.000 C 
ENDBRANCH  27  32
ENDBRANCH  21  23
ENDBRANCH  20  21
ENDBRANCH   6  20
TORSDOF 7
ENDMDL
MODEL 3
REMARK VINA RESULT:     -11.7      1.017      4.089
REMARK  Name = 25049750
REMARK  7 active torsions:
REMARK  status: ('A' for Active; 'I' for Inactive)
REMARK    1  A    between atoms: C_1  and  C_14
REMARK    2  A    between atoms: C_6  and  O_20
REMARK    3  A    between atoms: C_10  and  C_17
REMARK    4  A    between atoms: C_17  and  O_18
REMARK    5  A    between atoms: O_20  and  C_21
REMARK    6  A    between atoms: C_21  and  C_23
REMARK    7  A    between atoms: C_27  and  C_32
REMARK                            x       y       z     vdW  Elec       q    Type
REMARK                         _______ _______ _______ _____ _____    ______ ____
ROOT
ATOM      1  C   UNL     1      35.298 -19.417 -21.606  0.00  0.00    -0.004 C 
ATOM      2  C   UNL     1      33.930 -19.605 -21.399  0.00  0.00    +0.000 C 
ATOM      3  C   UNL     1      36.220 -19.980 -20.725  0.00  0.00    +0.000 C 
ATOM      4  C   UNL     1      33.487 -20.355 -20.311  0.00  0.00    +0.037 C 
ATOM      5  C   UNL     1      35.775 -20.731 -19.636  0.00  0.00    +0.037 C 
ATOM      6  C   UNL     1      34.409 -20.920 -19.429  0.00  0.00    +0.139 C 
ENDROOT
BRANCH   1  14
ATOM      7  O   UNL     1      33.398 -17.023 -24.900  0.00  0.00    -0.275 OA
ATOM      8  N   UNL     1      34.801 -18.584 -23.864  0.00  0.00    -0.302 N 
ATOM      9  C   UNL     1      34.917 -16.426 -23.169  0.00  0.00    +0.081 C 
ATOM     10  C   UNL     1      34.098 -15.431 -22.423  0.00  0.00    +0.108 C 
ATOM     11  C   UNL     1      35.057 -14.982 -23.494  0.00  0.00    +0.021 C 
ATOM     12  C   UNL     1      36.024 -17.116 -22.459  0.00  0.00    +0.033 C 
ATOM     13  C   UNL     1      34.258 -17.334 -24.092  0.00  0.00    +0.222 C 
ATOM     14  C   UNL     1      35.778 -18.604 -22.788  0.00  0.00    +0.095 C 
ATOM     15  H   UNL     1      34.551 -19.384 -24.381  0.00  0.00    +0.150 HD
BRANCH  10  17
ATOM     16  O   UNL     1      34.507 -13.850 -20.740  0.00  0.00    -0.250 OA
ATOM     17  C   UNL     1      34.474 -15.022 -21.087  0.00  0.00    +0.314 C 
BRANCH  17  18
ATOM     18  O   UNL     1      34.778 -16.071 -20.285  0.00  0.00    -0.480 OA
ATOM     19  H   UNL     1      35.045 -16.887 -20.661  0.00  0.00    +0.295 HD
ENDBRANCH  17  18
ENDBRANCH  10  17
ENDBRANCH   1  14
BRANCH   6  20
ATOM     20  O   UNL     1      33.973 -21.657 -18.359  0.00  0.00    -0.471 OA
BRANCH  20  21
ATOM     21  C   UNL     1      34.969 -22.296 -17.573  0.00  0.00    +0.229 C 
BRANCH  21  23
ATOM     22  N   UNL     1      33.070 -23.867 -14.075  0.00  0.00    -0.406 NA
ATOM     23  C   UNL     1      34.338 -22.846 -16.332  0.00  0.00    +0.012 C 
ATOM     24  C   UNL     1      35.081 -23.127 -15.177  0.00  0.00    +0.096 C 
ATOM     25  C   UNL     1      32.969 -23.074 -16.354  0.00  0.00    +0.028 C 
ATOM     26  C   UNL     1      34.398 -23.643 -14.057  0.00  0.00    +0.117 C 
ATOM     27  C   UNL     1      32.389 -23.582 -15.208  0.00  0.00    +0.130 C 
ATOM     28  C   UNL     1      36.469 -22.905 -15.124  0.00  0.00    -0.015 C 
ATOM     29  C   UNL     1      35.137 -23.922 -12.911  0.00  0.00    +0.028 C 
ATOM     30  C   UNL     1      37.183 -23.194 -13.965  0.00  0.00    -0.004 C 
ATOM     31  C   UNL     1      36.516 -23.702 -12.857  0.00  0.00    +0.002 C 
BRANCH  27  32
ATOM     32  C   UNL     1      30.972 -23.849 -15.148  0.00  0.00    +0.030 C 
ATOM     33  C   UNL     1      30.080 -23.042 -15.855  0.00  0.00    +0.003 C 
ATOM     34  C   UNL     1      30.494 -24.914 -14.384  0.00  0.00    +0.003 C 
ATOM     35  C   UNL     1      28.710 -23.300 -15.797  0.00  0.00    +0.000 C 
ATOM     36  C   UNL     1      29.124 -25.172 -14.327  0.00  0.00    +0.000 C 
ATOM     37  C   UNL     1      28.233 -24.364 -15.033  0.00  0.00    +0.000 C 
ENDBRANCH  27  32
ENDBRANCH  21  23
ENDBRANCH  20  21
ENDBRANCH   6  20
TORSDOF 7
ENDMDL
MODEL 4
REMARK VINA RESULT:     -11.4      4.562     10.056
REMARK  Name = 25049750
REMARK  7 active torsions:
REMARK  status: ('A' for Active; 'I' for Inactive)
REMARK    1  A    between atoms: C_1  and  C_14
REMARK    2  A    between atoms: C_6  and  O_20
REMARK    3  A    between atoms: C_10  and  C_17
REMARK    4  A    between atoms: C_17  and  O_18
REMARK    5  A    between atoms: O_20  and  C_21
REMARK    6  A    between atoms: C_21  and  C_23
REMARK    7  A    between atoms: C_27  and  C_32
REMARK                            x       y       z     vdW  Elec       q    Type
REMARK                         _______ _______ _______ _____ _____    ______ ____
ROOT
ATOM      1  C   UNL     1      37.090 -25.597 -12.772  0.00  0.00    -0.004 C 
ATOM      2  C   UNL     1      36.497 -24.929 -11.699  0.00  0.00    +0.000 C 
ATOM      3  C   UNL     1      36.534 -25.498 -14.047  0.00  0.00    +0.000 C 
ATOM      4  C   UNL     1      35.349 -24.164 -11.903  0.00  0.00    +0.037 C 
ATOM      5  C   UNL     1      35.386 -24.732 -14.250  0.00  0.00    +0.037 C 
ATOM      6  C   UNL     1      34.793 -24.064 -13.179  0.00  0.00    +0.139 C 
ENDROOT
BRANCH   1  14
ATOM      7  O   UNL     1      38.023 -29.910 -11.928  0.00  0.00    -0.275 OA
ATOM      8  N   UNL     1      38.074 -27.580 -11.707  0.00  0.00    -0.302 N 
ATOM      9  C   UNL     1      38.634 -28.470 -13.720  0.00  0.00    +0.081 C 
ATOM     10  C   UNL     1      37.992 -29.176 -14.864  0.00  0.00    +0.108 C 
ATOM     11  C   UNL     1      39.433 -29.440 -14.514  0.00  0.00    +0.021 C 
ATOM     12  C   UNL     1      38.925 -27.019 -13.849  0.00  0.00    +0.033 C 
ATOM     13  C   UNL     1      38.211 -28.787 -12.367  0.00  0.00    +0.222 C 
ATOM     14  C   UNL     1      38.335 -26.426 -12.551  0.00  0.00    +0.095 C 
ATOM     15  H   UNL     1      37.825 -27.509 -10.757  0.00  0.00    +0.150 HD
BRANCH  10  17
ATOM     16  O   UNL     1      36.809 -27.853 -16.396  0.00  0.00    -0.250 OA
ATOM     17  C   UNL     1      37.809 -28.505 -16.133  0.00  0.00    +0.314 C 
BRANCH  17  18
ATOM     18  O   UNL     1      38.857 -28.682 -16.974  0.00  0.00    -0.480 OA
ATOM     19  H   UNL     1      39.113 -29.546 -17.228  0.00  0.00    +0.295 HD
ENDBRANCH  17  18
ENDBRANCH  10  17
ENDBRANCH   1  14
BRANCH   6  20
ATOM     20  O   UNL     1      33.665 -23.313 -13.378  0.00  0.00    -0.471 OA
BRANCH  20  21
ATOM     21  C   UNL     1      32.485 -24.013 -13.746  0.00  0.00    +0.229 C 
BRANCH  21  23
ATOM     22  N   UNL     1      31.009 -22.302 -17.379  0.00  0.00    -0.406 NA
ATOM     23  C   UNL     1      31.933 -23.422 -15.006  0.00  0.00    +0.012 C 
ATOM     24  C   UNL     1      30.557 -23.358 -15.261  0.00  0.00    +0.096 C 
ATOM     25  C   UNL     1      32.839 -22.927 -15.933  0.00  0.00    +0.028 C 
ATOM     26  C   UNL     1      30.133 -22.781 -16.476  0.00  0.00    +0.117 C 
ATOM     27  C   UNL     1      32.329 -22.382 -17.095  0.00  0.00    +0.130 C 
ATOM     28  C   UNL     1      29.615 -23.849 -14.340  0.00  0.00    -0.015 C 
ATOM     29  C   UNL     1      28.765 -22.719 -16.729  0.00  0.00    +0.028 C 
ATOM     30  C   UNL     1      28.254 -23.774 -14.619  0.00  0.00    -0.004 C 
ATOM     31  C   UNL     1      27.828 -23.207 -15.815  0.00  0.00    +0.002 C 
BRANCH  27  32
ATOM     32  C   UNL     1      33.202 -21.847 -18.111  0.00  0.00    +0.030 C 
ATOM     33  C   UNL     1      34.564 -22.152 -18.093  0.00  0.00    +0.003 C 
ATOM     34  C   UNL     1      32.687 -21.023 -19.112  0.00  0.00    +0.003 C 
ATOM     35  C   UNL     1      35.408 -21.636 -19.076  0.00  0.00    +0.000 C 
ATOM     36  C   UNL     1      33.531 -20.506 -20.094  0.00  0.00    +0.000 C 
ATOM     37  C   UNL     1      34.892 -20.812 -20.075  0.00  0.00    +0.000 C 
ENDBRANCH  27  32
ENDBRANCH  21  23
ENDBRANCH  20  21
ENDBRANCH   6  20
TORSDOF 7
ENDMDL
MODEL 5
REMARK VINA RESULT:     -11.4      1.612      4.330
REMARK  Name = 25049750
REMARK  7 active torsions:
REMARK  status: ('A' for Active; 'I' for Inactive)
REMARK    1  A    between atoms: C_1  and  C_14
REMARK    2  A    between atoms: C_6  and  O_20
REMARK    3  A    between atoms: C_10  and  C_17
REMARK    4  A    between atoms: C_17  and  O_18
REMARK    5  A    between atoms: O_20  and  C_21
REMARK    6  A    between atoms: C_21  and  C_23
REMARK    7  A    between atoms: C_27  and  C_32
REMARK                            x       y       z     vdW  Elec       q    Type
REMARK                         _______ _______ _______ _____ _____    ______ ____
ROOT
ATOM      1  C   UNL     1      35.190 -18.128 -22.099  0.00  0.00    -0.004 C 
ATOM      2  C   UNL     1      35.853 -18.419 -20.906  0.00  0.00    +0.000 C 
ATOM      3  C   UNL     1      34.047 -18.844 -22.454  0.00  0.00    +0.000 C 
ATOM      4  C   UNL     1      35.372 -19.427 -20.070  0.00  0.00    +0.037 C 
ATOM      5  C   UNL     1      33.567 -19.851 -21.617  0.00  0.00    +0.037 C 
ATOM      6  C   UNL     1      34.228 -20.142 -20.425  0.00  0.00    +0.139 C 
ENDROOT
BRANCH   1  14
ATOM      7  O   UNL     1      33.481 -15.422 -25.253  0.00  0.00    -0.275 OA
ATOM      8  N   UNL     1      34.944 -16.941 -24.236  0.00  0.00    -0.302 N 
ATOM      9  C   UNL     1      34.552 -14.971 -23.177  0.00  0.00    +0.081 C 
ATOM     10  C   UNL     1      33.453 -14.274 -22.453  0.00  0.00    +0.108 C 
ATOM     11  C   UNL     1      34.484 -13.486 -23.218  0.00  0.00    +0.021 C 
ATOM     12  C   UNL     1      35.627 -15.622 -22.387  0.00  0.00    +0.033 C 
ATOM     13  C   UNL     1      34.233 -15.762 -24.354  0.00  0.00    +0.222 C 
ATOM     14  C   UNL     1      35.711 -17.035 -23.005  0.00  0.00    +0.095 C 
ATOM     15  H   UNL     1      34.933 -17.648 -24.921  0.00  0.00    +0.150 HD
BRANCH  10  17
ATOM     16  O   UNL     1      34.290 -14.715 -20.308  0.00  0.00    -0.250 OA
ATOM     17  C   UNL     1      33.517 -14.090 -21.019  0.00  0.00    +0.314 C 
BRANCH  17  18
ATOM     18  O   UNL     1      32.637 -13.161 -20.571  0.00  0.00    -0.480 OA
ATOM     19  H   UNL     1      31.736 -13.387 -20.454  0.00  0.00    +0.295 HD
ENDBRANCH  17  18
ENDBRANCH  10  17
ENDBRANCH   1  14
BRANCH   6  20
ATOM     20  O   UNL     1      33.756 -21.132 -19.603  0.00  0.00    -0.471 OA
BRANCH  20  21
ATOM     21  C   UNL     1      34.705 -22.074 -19.124  0.00  0.00    +0.229 C 
BRANCH  21  23
ATOM     22  N   UNL     1      33.669 -23.089 -15.098  0.00  0.00    -0.406 NA
ATOM     23  C   UNL     1      34.379 -22.424 -17.706  0.00  0.00    +0.012 C 
ATOM     24  C   UNL     1      35.350 -22.431 -16.695  0.00  0.00    +0.096 C 
ATOM     25  C   UNL     1      33.062 -22.748 -17.411  0.00  0.00    +0.028 C 
ATOM     26  C   UNL     1      34.946 -22.774 -15.388  0.00  0.00    +0.117 C 
ATOM     27  C   UNL     1      32.763 -23.070 -16.102  0.00  0.00    +0.130 C 
ATOM     28  C   UNL     1      36.692 -22.108 -16.962  0.00  0.00    -0.015 C 
ATOM     29  C   UNL     1      35.911 -22.782 -14.386  0.00  0.00    +0.028 C 
ATOM     30  C   UNL     1      37.636 -22.123 -15.941  0.00  0.00    -0.004 C 
ATOM     31  C   UNL     1      37.245 -22.460 -14.650  0.00  0.00    +0.002 C 
BRANCH  27  32
ATOM     32  C   UNL     1      31.418 -23.419 -15.711  0.00  0.00    +0.030 C 
ATOM     33  C   UNL     1      30.331 -22.747 -16.273  0.00  0.00    +0.003 C 
ATOM     34  C   UNL     1      31.203 -24.428 -14.772  0.00  0.00    +0.003 C 
ATOM     35  C   UNL     1      29.031 -23.085 -15.896  0.00  0.00    +0.000 C 
ATOM     36  C   UNL     1      29.903 -24.765 -14.396  0.00  0.00    +0.000 C 
ATOM     37  C   UNL     1      28.817 -24.093 -14.957  0.00  0.00    +0.000 C 
ENDBRANCH  27  32
ENDBRANCH  21  23
ENDBRANCH  20  21
ENDBRANCH   6  20
TORSDOF 7
ENDMDL
MODEL 6
REMARK VINA RESULT:     -11.2      3.589     10.438
REMARK  Name = 25049750
REMARK  7 active torsions:
REMARK  status: ('A' for Active; 'I' for Inactive)
REMARK    1  A    between atoms: C_1  and  C_14
REMARK    2  A    between atoms: C_6  and  O_20
REMARK    3  A    between atoms: C_10  and  C_17
REMARK    4  A    between atoms: C_17  and  O_18
REMARK    5  A    between atoms: O_20  and  C_21
REMARK    6  A    between atoms: C_21  and  C_23
REMARK    7  A    between atoms: C_27  and  C_32
REMARK                            x       y       z     vdW  Elec       q    Type
REMARK                         _______ _______ _______ _____ _____    ______ ____
ROOT
ATOM      1  C   UNL     1      37.717 -24.569 -13.972  0.00  0.00    -0.004 C 
ATOM      2  C   UNL     1      38.714 -24.199 -14.875  0.00  0.00    +0.000 C 
ATOM      3  C   UNL     1      36.503 -23.883 -13.954  0.00  0.00    +0.000 C 
ATOM      4  C   UNL     1      38.496 -23.142 -15.759  0.00  0.00    +0.037 C 
ATOM      5  C   UNL     1      36.286 -22.827 -14.839  0.00  0.00    +0.037 C 
ATOM      6  C   UNL     1      37.282 -22.456 -15.742  0.00  0.00    +0.139 C 
ENDROOT
BRANCH   1  14
ATOM      7  O   UNL     1      36.577 -28.910 -13.747  0.00  0.00    -0.275 OA
ATOM      8  N   UNL     1      36.875 -26.691 -13.062  0.00  0.00    -0.302 N 
ATOM      9  C   UNL     1      38.690 -27.820 -13.828  0.00  0.00    +0.081 C 
ATOM     10  C   UNL     1      39.227 -28.368 -15.104  0.00  0.00    +0.108 C 
ATOM     11  C   UNL     1      39.557 -29.027 -13.791  0.00  0.00    +0.021 C 
ATOM     12  C   UNL     1      39.227 -26.531 -13.323  0.00  0.00    +0.033 C 
ATOM     13  C   UNL     1      37.266 -27.919 -13.559  0.00  0.00    +0.222 C 
ATOM     14  C   UNL     1      37.952 -25.716 -13.015  0.00  0.00    +0.095 C 
ATOM     15  H   UNL     1      35.956 -26.495 -12.767  0.00  0.00    +0.150 HD
BRANCH  10  17
ATOM     16  O   UNL     1      41.450 -28.297 -15.846  0.00  0.00    -0.250 OA
ATOM     17  C   UNL     1      40.362 -27.747 -15.752  0.00  0.00    +0.314 C 
BRANCH  17  18
ATOM     18  O   UNL     1      40.078 -26.512 -16.232  0.00  0.00    -0.480 OA
ATOM     19  H   UNL     1      40.507 -26.199 -17.003  0.00  0.00    +0.295 HD
ENDBRANCH  17  18
ENDBRANCH  10  17
ENDBRANCH   1  14
BRANCH   6  20
ATOM     20  O   UNL     1      37.068 -21.418 -16.610  0.00  0.00    -0.471 OA
BRANCH  20  21
ATOM     21  C   UNL     1      37.152 -21.715 -17.997  0.00  0.00    +0.229 C 
BRANCH  21  23
ATOM     22  N   UNL     1      33.604 -20.395 -19.992  0.00  0.00    -0.406 NA
ATOM     23  C   UNL     1      35.890 -21.274 -18.672  0.00  0.00    +0.012 C 
ATOM     24  C   UNL     1      34.627 -21.720 -18.258  0.00  0.00    +0.096 C 
ATOM     25  C   UNL     1      36.006 -20.394 -19.738  0.00  0.00    +0.028 C 
ATOM     26  C   UNL     1      33.496 -21.248 -18.956  0.00  0.00    +0.117 C 
ATOM     27  C   UNL     1      34.841 -19.988 -20.359  0.00  0.00    +0.130 C 
ATOM     28  C   UNL     1      34.478 -22.611 -17.181  0.00  0.00    -0.015 C 
ATOM     29  C   UNL     1      32.242 -21.692 -18.545  0.00  0.00    +0.028 C 
ATOM     30  C   UNL     1      33.212 -23.038 -16.792  0.00  0.00    -0.004 C 
ATOM     31  C   UNL     1      32.093 -22.578 -17.475  0.00  0.00    +0.002 C 
BRANCH  27  32
ATOM     32  C   UNL     1      34.873 -19.075 -21.476  0.00  0.00    +0.030 C 
ATOM     33  C   UNL     1      34.231 -19.409 -22.669  0.00  0.00    +0.003 C 
ATOM     34  C   UNL     1      35.546 -17.858 -21.364  0.00  0.00    +0.003 C 
ATOM     35  C   UNL     1      34.261 -18.526 -23.748  0.00  0.00    +0.000 C 
ATOM     36  C   UNL     1      35.576 -16.975 -22.443  0.00  0.00    +0.000 C 
ATOM     37  C   UNL     1      34.934 -17.310 -23.636  0.00  0.00    +0.000 C 
ENDBRANCH  27  32
ENDBRANCH  21  23
ENDBRANCH  20  21
ENDBRANCH   6  20
TORSDOF 7
ENDMDL
MODEL 7
REMARK VINA RESULT:     -11.1      6.461     13.525
REMARK  Name = 25049750
REMARK  7 active torsions:
REMARK  status: ('A' for Active; 'I' for Inactive)
REMARK    1  A    between atoms: C_1  and  C_14
REMARK    2  A    between atoms: C_6  and  O_20
REMARK    3  A    between atoms: C_10  and  C_17
REMARK    4  A    between atoms: C_17  and  O_18
REMARK    5  A    between atoms: O_20  and  C_21
REMARK    6  A    between atoms: C_21  and  C_23
REMARK    7  A    between atoms: C_27  and  C_32
REMARK                            x       y       z     vdW  Elec       q    Type
REMARK                         _______ _______ _______ _____ _____    ______ ____
ROOT
ATOM      1  C   UNL     1      34.803 -15.299 -21.759  0.00  0.00    -0.004 C 
ATOM      2  C   UNL     1      34.481 -14.668 -22.961  0.00  0.00    +0.000 C 
ATOM      3  C   UNL     1      34.306 -14.801 -20.555  0.00  0.00    +0.000 C 
ATOM      4  C   UNL     1      33.662 -13.540 -22.958  0.00  0.00    +0.037 C 
ATOM      5  C   UNL     1      33.486 -13.672 -20.553  0.00  0.00    +0.037 C 
ATOM      6  C   UNL     1      33.163 -13.042 -21.754  0.00  0.00    +0.139 C 
ENDROOT
BRANCH   1  14
ATOM      7  O   UNL     1      34.451 -19.579 -20.437  0.00  0.00    -0.275 OA
ATOM      8  N   UNL     1      35.359 -17.435 -20.679  0.00  0.00    -0.302 N 
ATOM      9  C   UNL     1      34.862 -18.598 -22.565  0.00  0.00    +0.081 C 
ATOM     10  C   UNL     1      33.669 -19.078 -23.318  0.00  0.00    +0.108 C 
ATOM     11  C   UNL     1      34.963 -19.849 -23.363  0.00  0.00    +0.021 C 
ATOM     12  C   UNL     1      35.564 -17.380 -23.041  0.00  0.00    +0.033 C 
ATOM     13  C   UNL     1      34.846 -18.643 -21.113  0.00  0.00    +0.222 C 
ATOM     14  C   UNL     1      35.690 -16.524 -21.762  0.00  0.00    +0.095 C 
ATOM     15  H   UNL     1      35.489 -17.214 -19.728  0.00  0.00    +0.150 HD
BRANCH  10  17
ATOM     16  O   UNL     1      33.971 -17.596 -25.109  0.00  0.00    -0.250 OA
ATOM     17  C   UNL     1      33.302 -18.471 -24.579  0.00  0.00    +0.314 C 
BRANCH  17  18
ATOM     18  O   UNL     1      32.155 -18.981 -25.090  0.00  0.00    -0.480 OA
ATOM     19  H   UNL     1      31.357 -18.917 -24.604  0.00  0.00    +0.295 HD
ENDBRANCH  17  18
ENDBRANCH  10  17
ENDBRANCH   1  14
BRANCH   6  20
ATOM     20  O   UNL     1      32.359 -11.932 -21.752  0.00  0.00    -0.471 OA
BRANCH  20  21
ATOM     21  C   UNL     1      32.418 -11.094 -22.898  0.00  0.00    +0.229 C 
BRANCH  21  23
ATOM     22  N   UNL     1      32.637  -6.980 -21.743  0.00  0.00    -0.406 NA
ATOM     23  C   UNL     1      32.485  -9.665 -22.459  0.00  0.00    +0.012 C 
ATOM     24  C   UNL     1      32.210  -9.274 -21.141  0.00  0.00    +0.096 C 
ATOM     25  C   UNL     1      32.835  -8.717 -23.410  0.00  0.00    +0.028 C 
ATOM     26  C   UNL     1      32.299  -7.902 -20.823  0.00  0.00    +0.117 C 
ATOM     27  C   UNL     1      32.896  -7.399 -23.004  0.00  0.00    +0.130 C 
ATOM     28  C   UNL     1      31.854 -10.211 -20.155  0.00  0.00    -0.015 C 
ATOM     29  C   UNL     1      32.025  -7.516 -19.515  0.00  0.00    +0.028 C 
ATOM     30  C   UNL     1      31.585  -9.795 -18.855  0.00  0.00    -0.004 C 
ATOM     31  C   UNL     1      31.671  -8.446 -18.534  0.00  0.00    +0.002 C 
BRANCH  27  32
ATOM     32  C   UNL     1      33.251  -6.351 -23.930  0.00  0.00    +0.030 C 
ATOM     33  C   UNL     1      34.593  -6.081 -24.198  0.00  0.00    +0.003 C 
ATOM     34  C   UNL     1      32.252  -5.607 -24.559  0.00  0.00    +0.003 C 
ATOM     35  C   UNL     1      34.937  -5.069 -25.094  0.00  0.00    +0.000 C 
ATOM     36  C   UNL     1      32.596  -4.594 -25.455  0.00  0.00    +0.000 C 
ATOM     37  C   UNL     1      33.938  -4.325 -25.722  0.00  0.00    +0.000 C 
ENDBRANCH  27  32
ENDBRANCH  21  23
ENDBRANCH  20  21
ENDBRANCH   6  20
TORSDOF 7
ENDMDL
MODEL 8
REMARK VINA RESULT:     -10.9      5.311     12.600
REMARK  Name = 25049750
REMARK  7 active torsions:
REMARK  status: ('A' for Active; 'I' for Inactive)
REMARK    1  A    between atoms: C_1  and  C_14
REMARK    2  A    between atoms: C_6  and  O_20
REMARK    3  A    between atoms: C_10  and  C_17
REMARK    4  A    between atoms: C_17  and  O_18
REMARK    5  A    between atoms: O_20  and  C_21
REMARK    6  A    between atoms: C_21  and  C_23
REMARK    7  A    between atoms: C_27  and  C_32
REMARK                            x       y       z     vdW  Elec       q    Type
REMARK                         _______ _______ _______ _____ _____    ______ ____
ROOT
ATOM      1  C   UNL     1      35.322 -17.076 -23.084  0.00  0.00    -0.004 C 
ATOM      2  C   UNL     1      35.295 -16.066 -22.121  0.00  0.00    +0.000 C 
ATOM      3  C   UNL     1      34.610 -16.923 -24.274  0.00  0.00    +0.000 C 
ATOM      4  C   UNL     1      34.556 -14.905 -22.349  0.00  0.00    +0.037 C 
ATOM      5  C   UNL     1      33.872 -15.762 -24.501  0.00  0.00    +0.037 C 
ATOM      6  C   UNL     1      33.845 -14.753 -23.539  0.00  0.00    +0.139 C 
ENDROOT
BRANCH   1  14
ATOM      7  O   UNL     1      37.357 -19.004 -19.572  0.00  0.00    -0.275 OA
ATOM      8  N   UNL     1      37.064 -18.170 -21.740  0.00  0.00    -0.302 N 
ATOM      9  C   UNL     1      35.603 -19.743 -21.000  0.00  0.00    +0.081 C 
ATOM     10  C   UNL     1      34.495 -19.886 -20.015  0.00  0.00    +0.108 C 
ATOM     11  C   UNL     1      35.357 -21.068 -20.372  0.00  0.00    +0.021 C 
ATOM     12  C   UNL     1      35.264 -19.551 -22.433  0.00  0.00    +0.033 C 
ATOM     13  C   UNL     1      36.771 -18.956 -20.642  0.00  0.00    +0.222 C 
ATOM     14  C   UNL     1      36.124 -18.334 -22.837  0.00  0.00    +0.095 C 
ATOM     15  H   UNL     1      37.835 -17.559 -21.776  0.00  0.00    +0.150 HD
BRANCH  10  17
ATOM     16  O   UNL     1      32.773 -19.712 -21.597  0.00  0.00    -0.250 OA
ATOM     17  C   UNL     1      33.124 -20.002 -20.462  0.00  0.00    +0.314 C 
BRANCH  17  18
ATOM     18  O   UNL     1      32.296 -20.462 -19.493  0.00  0.00    -0.480 OA
ATOM     19  H   UNL     1      31.368 -20.439 -19.619  0.00  0.00    +0.295 HD
ENDBRANCH  17  18
ENDBRANCH  10  17
ENDBRANCH   1  14
BRANCH   6  20
ATOM     20  O   UNL     1      33.119 -13.612 -23.762  0.00  0.00    -0.471 OA
BRANCH  20  21
ATOM     21  C   UNL     1      33.848 -12.450 -24.131  0.00  0.00    +0.229 C 
BRANCH  21  23
ATOM     22  N   UNL     1      32.466  -9.053 -21.927  0.00  0.00    -0.406 NA
ATOM     23  C   UNL     1      33.353 -11.284 -23.333  0.00  0.00    +0.012 C 
ATOM     24  C   UNL     1      32.751 -11.441 -22.076  0.00  0.00    +0.096 C 
ATOM     25  C   UNL     1      33.509 -10.018 -23.879  0.00  0.00    +0.028 C 
ATOM     26  C   UNL     1      32.317 -10.282 -21.399  0.00  0.00    +0.117 C 
ATOM     27  C   UNL     1      33.052  -8.945 -23.141  0.00  0.00    +0.130 C 
ATOM     28  C   UNL     1      32.580 -12.710 -21.496  0.00  0.00    -0.015 C 
ATOM     29  C   UNL     1      31.719 -10.439 -20.152  0.00  0.00    +0.028 C 
ATOM     30  C   UNL     1      31.979 -12.837 -20.248  0.00  0.00    -0.004 C 
ATOM     31  C   UNL     1      31.548 -11.700 -19.575  0.00  0.00    +0.002 C 
BRANCH  27  32
ATOM     32  C   UNL     1      33.175  -7.595 -23.638  0.00  0.00    +0.030 C 
ATOM     33  C   UNL     1      34.437  -7.054 -23.882  0.00  0.00    +0.003 C 
ATOM     34  C   UNL     1      32.032  -6.831 -23.874  0.00  0.00    +0.003 C 
ATOM     35  C   UNL     1      34.557  -5.750 -24.363  0.00  0.00    +0.000 C 
ATOM     36  C   UNL     1      32.151  -5.527 -24.355  0.00  0.00    +0.000 C 
ATOM     37  C   UNL     1      33.414  -4.986 -24.598  0.00  0.00    +0.000 C 
ENDBRANCH  27  32
ENDBRANCH  21  23
ENDBRANCH  20  21
ENDBRANCH   6  20
TORSDOF 7
ENDMDL
MODEL 9
REMARK VINA RESULT:     -10.7      6.320     13.124
REMARK  Name = 25049750
REMARK  7 active torsions:
REMARK  status: ('A' for Active; 'I' for Inactive)
REMARK    1  A    between atoms: C_1  and  C_14
REMARK    2  A    between atoms: C_6  and  O_20
REMARK    3  A    between atoms: C_10  and  C_17
REMARK    4  A    between atoms: C_17  and  O_18
REMARK    5  A    between atoms: O_20  and  C_21
REMARK    6  A    between atoms: C_21  and  C_23
REMARK    7  A    between atoms: C_27  and  C_32
REMARK                            x       y       z     vdW  Elec       q    Type
REMARK                         _______ _______ _______ _____ _____    ______ ____
ROOT
ATOM      1  C   UNL     1      34.850 -15.659 -21.402  0.00  0.00    -0.004 C 
ATOM      2  C   UNL     1      34.396 -14.966 -22.526  0.00  0.00    +0.000 C 
ATOM      3  C   UNL     1      34.477 -15.238 -20.126  0.00  0.00    +0.000 C 
ATOM      4  C   UNL     1      33.572 -13.852 -22.371  0.00  0.00    +0.037 C 
ATOM      5  C   UNL     1      33.651 -14.124 -19.973  0.00  0.00    +0.037 C 
ATOM      6  C   UNL     1      33.198 -13.431 -21.095  0.00  0.00    +0.139 C 
ENDROOT
BRANCH   1  14
ATOM      7  O   UNL     1      34.543 -20.071 -20.605  0.00  0.00    -0.275 OA
ATOM      8  N   UNL     1      35.436 -17.907 -20.600  0.00  0.00    -0.302 N 
ATOM      9  C   UNL     1      34.911 -18.835 -22.605  0.00  0.00    +0.081 C 
ATOM     10  C   UNL     1      33.709 -19.229 -23.390  0.00  0.00    +0.108 C 
ATOM     11  C   UNL     1      35.005 -19.979 -23.550  0.00  0.00    +0.021 C 
ATOM     12  C   UNL     1      35.598 -17.563 -22.941  0.00  0.00    +0.033 C 
ATOM     13  C   UNL     1      34.922 -19.056 -21.169  0.00  0.00    +0.222 C 
ATOM     14  C   UNL     1      35.743 -16.868 -21.570  0.00  0.00    +0.095 C 
ATOM     15  H   UNL     1      35.582 -17.802 -19.632  0.00  0.00    +0.150 HD
BRANCH  10  17
ATOM     16  O   UNL     1      33.956 -17.522 -24.977  0.00  0.00    -0.250 OA
ATOM     17  C   UNL     1      33.316 -18.476 -24.562  0.00  0.00    +0.314 C 
BRANCH  17  18
ATOM     18  O   UNL     1      32.179 -18.948 -25.129  0.00  0.00    -0.480 OA
ATOM     19  H   UNL     1      31.345 -18.654 -24.823  0.00  0.00    +0.295 HD
ENDBRANCH  17  18
ENDBRANCH  10  17
ENDBRANCH   1  14
BRANCH   6  20
ATOM     20  O   UNL     1      32.387 -12.337 -20.944  0.00  0.00    -0.471 OA
BRANCH  20  21
ATOM     21  C   UNL     1      31.744 -11.849 -22.113  0.00  0.00    +0.229 C 
BRANCH  21  23
ATOM     22  N   UNL     1      33.335  -7.996 -23.075  0.00  0.00    -0.406 NA
ATOM     23  C   UNL     1      32.323 -10.517 -22.475  0.00  0.00    +0.012 C 
ATOM     24  C   UNL     1      33.316 -10.375 -23.454  0.00  0.00    +0.096 C 
ATOM     25  C   UNL     1      31.842  -9.403 -21.802  0.00  0.00    +0.028 C 
ATOM     26  C   UNL     1      33.800  -9.079 -23.726  0.00  0.00    +0.117 C 
ATOM     27  C   UNL     1      32.378  -8.175 -22.137  0.00  0.00    +0.130 C 
ATOM     28  C   UNL     1      33.823 -11.484 -24.153  0.00  0.00    -0.015 C 
ATOM     29  C   UNL     1      34.786  -8.939 -24.699  0.00  0.00    +0.028 C 
ATOM     30  C   UNL     1      34.809 -11.315 -25.121  0.00  0.00    -0.004 C 
ATOM     31  C   UNL     1      35.290 -10.041 -25.394  0.00  0.00    +0.002 C 
BRANCH  27  32
ATOM     32  C   UNL     1      31.933  -6.967 -21.484  0.00  0.00    +0.030 C 
ATOM     33  C   UNL     1      32.346  -6.685 -20.182  0.00  0.00    +0.003 C 
ATOM     34  C   UNL     1      31.090  -6.082 -22.155  0.00  0.00    +0.003 C 
ATOM     35  C   UNL     1      31.917  -5.517 -19.551  0.00  0.00    +0.000 C 
ATOM     36  C   UNL     1      30.661  -4.914 -21.524  0.00  0.00    +0.000 C 
ATOM     37  C   UNL     1      31.074  -4.632 -20.222  0.00  0.00    +0.000 C 
ENDBRANCH  27  32
ENDBRANCH  21  23
ENDBRANCH  20  21
ENDBRANCH   6  20
TORSDOF 7
ENDMDL
