MODEL 1
REMARK VINA RESULT:     -11.2      0.000      0.000
REMARK  Name = 24941254
REMARK  6 active torsions:
REMARK  status: ('A' for Active; 'I' for Inactive)
REMARK    1  A    between atoms: C_1  and  S_21
REMARK    2  A    between atoms: C_4  and  C_9
REMARK    3  A    between atoms: N_8  and  C_11
REMARK    4  A    between atoms: C_12  and  C_18
REMARK    5  A    between atoms: C_18  and  O_19
REMARK    6  A    between atoms: S_21  and  N_24
REMARK                            x       y       z     vdW  Elec       q    Type
REMARK                         _______ _______ _______ _____ _____    ______ ____
ROOT
ATOM      1  C   UNL     1      36.386 -23.059 -14.232  0.00  0.00    +0.122 C 
ATOM      2  C   UNL     1      35.066 -23.310 -14.606  0.00  0.00    +0.024 C 
ATOM      3  C   UNL     1      37.256 -22.430 -15.124  0.00  0.00    +0.020 C 
ATOM      4  C   UNL     1      34.616 -22.933 -15.871  0.00  0.00    +0.055 C 
ATOM      5  C   UNL     1      36.805 -22.053 -16.389  0.00  0.00    +0.002 C 
ATOM      6  C   UNL     1      35.485 -22.304 -16.762  0.00  0.00    +0.005 C 
ENDROOT
BRANCH   4   9
ATOM      7  O   UNL     1      32.991 -23.486 -17.441  0.00  0.00    -0.270 OA
ATOM      8  N   UNL     1      32.287 -23.114 -15.235  0.00  0.00    -0.280 N 
ATOM      9  C   UNL     1      33.239 -23.194 -16.261  0.00  0.00    +0.250 C 
ATOM     10  H   UNL     1      32.634 -22.870 -14.347  0.00  0.00    +0.155 HD
BRANCH   8  11
ATOM     11  C   UNL     1      30.890 -23.339 -15.308  0.00  0.00    +0.057 C 
ATOM     12  C   UNL     1      30.255 -24.206 -14.419  0.00  0.00    +0.089 C 
ATOM     13  C   UNL     1      30.149 -22.679 -16.288  0.00  0.00    +0.015 C 
ATOM     14  C   UNL     1      28.878 -24.412 -14.510  0.00  0.00    +0.008 C 
ATOM     15  C   UNL     1      28.773 -22.886 -16.380  0.00  0.00    +0.001 C 
ATOM     16  C   UNL     1      28.138 -23.753 -15.491  0.00  0.00    +0.000 C 
BRANCH  12  18
ATOM     17  O   UNL     1      32.081 -25.480 -13.545  0.00  0.00    -0.245 OA
ATOM     18  C   UNL     1      30.999 -24.911 -13.382  0.00  0.00    +0.339 C 
BRANCH  18  19
ATOM     19  O   UNL     1      30.364 -24.882 -12.180  0.00  0.00    -0.477 OA
ATOM     20  H   UNL     1      29.565 -24.403 -12.084  0.00  0.00    +0.295 HD
ENDBRANCH  18  19
ENDBRANCH  12  18
ENDBRANCH   8  11
ENDBRANCH   4   9
BRANCH   1  21
ATOM     21  S   UNL     1      36.959 -23.538 -12.632  0.00  0.00    +0.064 S 
ATOM     22  O   UNL     1      38.095 -22.705 -12.301  0.00  0.00    -0.153 OA
ATOM     23  O   UNL     1      35.810 -23.614 -11.753  0.00  0.00    -0.153 OA
BRANCH  21  24
ATOM     24  N   UNL     1      37.506 -25.124 -12.972  0.00  0.00    -0.151 NA
ATOM     25  C   UNL     1      37.296 -26.128 -11.894  0.00  0.00    +0.101 C 
ATOM     26  C   UNL     1      38.876 -25.217 -13.562  0.00  0.00    +0.122 C 
ATOM     27  C   UNL     1      37.372 -27.524 -12.504  0.00  0.00    +0.045 C 
ATOM     28  C   UNL     1      39.330 -26.631 -13.835  0.00  0.00    -0.008 C 
ATOM     29  C   UNL     1      38.633 -27.730 -13.303  0.00  0.00    -0.023 C 
ATOM     30  C   UNL     1      40.487 -26.849 -14.596  0.00  0.00    -0.003 C 
ATOM     31  C   UNL     1      39.085 -29.029 -13.571  0.00  0.00    -0.004 C 
ATOM     32  C   UNL     1      40.935 -28.146 -14.846  0.00  0.00    -0.000 C 
ATOM     33  C   UNL     1      40.232 -29.235 -14.335  0.00  0.00    -0.000 C 
ENDBRANCH  21  24
ENDBRANCH   1  21
TORSDOF 6
ENDMDL
MODEL 2
REMARK VINA RESULT:     -11.1     13.825     17.758
REMARK  Name = 24941254
REMARK  6 active torsions:
REMARK  status: ('A' for Active; 'I' for Inactive)
REMARK    1  A    between atoms: C_1  and  S_21
REMARK    2  A    between atoms: C_4  and  C_9
REMARK    3  A    between atoms: N_8  and  C_11
REMARK    4  A    between atoms: C_12  and  C_18
REMARK    5  A    between atoms: C_18  and  O_19
REMARK    6  A    between atoms: S_21  and  N_24
REMARK                            x       y       z     vdW  Elec       q    Type
REMARK                         _______ _______ _______ _____ _____    ______ ____
ROOT
ATOM      1  C   UNL     1      32.845 -10.803 -22.686  0.00  0.00    +0.122 C 
ATOM      2  C   UNL     1      33.104 -12.003 -22.024  0.00  0.00    +0.024 C 
ATOM      3  C   UNL     1      33.244 -10.639 -24.014  0.00  0.00    +0.020 C 
ATOM      4  C   UNL     1      33.762 -13.038 -22.688  0.00  0.00    +0.055 C 
ATOM      5  C   UNL     1      33.902 -11.674 -24.677  0.00  0.00    +0.002 C 
ATOM      6  C   UNL     1      34.161 -12.874 -24.014  0.00  0.00    +0.005 C 
ENDROOT
BRANCH   4   9
ATOM      7  O   UNL     1      33.766 -14.381 -20.789  0.00  0.00    -0.270 OA
ATOM      8  N   UNL     1      34.562 -15.321 -22.785  0.00  0.00    -0.280 N 
ATOM      9  C   UNL     1      34.032 -14.289 -21.998  0.00  0.00    +0.250 C 
ATOM     10  H   UNL     1      34.721 -15.099 -23.731  0.00  0.00    +0.155 HD
BRANCH   8  11
ATOM     11  C   UNL     1      34.898 -16.642 -22.399  0.00  0.00    +0.057 C 
ATOM     12  C   UNL     1      34.561 -17.732 -23.201  0.00  0.00    +0.089 C 
ATOM     13  C   UNL     1      35.576 -16.843 -21.197  0.00  0.00    +0.015 C 
ATOM     14  C   UNL     1      34.903 -19.024 -22.800  0.00  0.00    +0.008 C 
ATOM     15  C   UNL     1      35.916 -18.135 -20.796  0.00  0.00    +0.001 C 
ATOM     16  C   UNL     1      35.579 -19.225 -21.597  0.00  0.00    +0.000 C 
BRANCH  12  18
ATOM     17  O   UNL     1      32.939 -18.276 -24.873  0.00  0.00    -0.245 OA
ATOM     18  C   UNL     1      33.853 -17.558 -24.464  0.00  0.00    +0.339 C 
BRANCH  18  19
ATOM     19  O   UNL     1      34.313 -16.490 -25.170  0.00  0.00    -0.477 OA
ATOM     20  H   UNL     1      33.708 -15.898 -25.571  0.00  0.00    +0.295 HD
ENDBRANCH  18  19
ENDBRANCH  12  18
ENDBRANCH   8  11
ENDBRANCH   4   9
BRANCH   1  21
ATOM     21  S   UNL     1      32.014  -9.491 -21.847  0.00  0.00    +0.064 S 
ATOM     22  O   UNL     1      30.595  -9.632 -22.101  0.00  0.00    -0.153 OA
ATOM     23  O   UNL     1      32.525  -9.434 -20.493  0.00  0.00    -0.153 OA
BRANCH  21  24
ATOM     24  N   UNL     1      32.610  -8.148 -22.724  0.00  0.00    -0.151 NA
ATOM     25  C   UNL     1      33.870  -7.546 -22.212  0.00  0.00    +0.101 C 
ATOM     26  C   UNL     1      31.595  -7.107 -23.073  0.00  0.00    +0.122 C 
ATOM     27  C   UNL     1      34.509  -6.725 -23.328  0.00  0.00    +0.045 C 
ATOM     28  C   UNL     1      32.160  -5.932 -23.834  0.00  0.00    -0.008 C 
ATOM     29  C   UNL     1      33.548  -5.730 -23.928  0.00  0.00    -0.023 C 
ATOM     30  C   UNL     1      31.286  -5.006 -24.420  0.00  0.00    -0.003 C 
ATOM     31  C   UNL     1      34.039  -4.626 -24.637  0.00  0.00    -0.004 C 
ATOM     32  C   UNL     1      31.786  -3.903 -25.113  0.00  0.00    -0.000 C 
ATOM     33  C   UNL     1      33.161  -3.715 -25.223  0.00  0.00    -0.000 C 
ENDBRANCH  21  24
ENDBRANCH   1  21
TORSDOF 6
ENDMDL
MODEL 3
REMARK VINA RESULT:     -10.8      3.952      7.940
REMARK  Name = 24941254
REMARK  6 active torsions:
REMARK  status: ('A' for Active; 'I' for Inactive)
REMARK    1  A    between atoms: C_1  and  S_21
REMARK    2  A    between atoms: C_4  and  C_9
REMARK    3  A    between atoms: N_8  and  C_11
REMARK    4  A    between atoms: C_12  and  C_18
REMARK    5  A    between atoms: C_18  and  O_19
REMARK    6  A    between atoms: S_21  and  N_24
REMARK                            x       y       z     vdW  Elec       q    Type
REMARK                         _______ _______ _______ _____ _____    ______ ____
ROOT
ATOM      1  C   UNL     1      36.227 -22.995 -15.374  0.00  0.00    +0.122 C 
ATOM      2  C   UNL     1      35.655 -22.772 -16.626  0.00  0.00    +0.024 C 
ATOM      3  C   UNL     1      37.315 -22.226 -14.959  0.00  0.00    +0.020 C 
ATOM      4  C   UNL     1      36.170 -21.782 -17.463  0.00  0.00    +0.055 C 
ATOM      5  C   UNL     1      37.830 -21.236 -15.795  0.00  0.00    +0.002 C 
ATOM      6  C   UNL     1      37.257 -21.014 -17.048  0.00  0.00    +0.005 C 
ENDROOT
BRANCH   4   9
ATOM      7  O   UNL     1      34.892 -22.447 -19.289  0.00  0.00    -0.270 OA
ATOM      8  N   UNL     1      35.805 -20.287 -19.332  0.00  0.00    -0.280 N 
ATOM      9  C   UNL     1      35.573 -21.549 -18.769  0.00  0.00    +0.250 C 
ATOM     10  H   UNL     1      36.367 -19.678 -18.800  0.00  0.00    +0.155 HD
BRANCH   8  11
ATOM     11  C   UNL     1      35.336 -19.771 -20.565  0.00  0.00    +0.057 C 
ATOM     12  C   UNL     1      36.128 -18.920 -21.336  0.00  0.00    +0.089 C 
ATOM     13  C   UNL     1      34.061 -20.126 -21.005  0.00  0.00    +0.015 C 
ATOM     14  C   UNL     1      35.644 -18.425 -22.547  0.00  0.00    +0.008 C 
ATOM     15  C   UNL     1      33.577 -19.629 -22.215  0.00  0.00    +0.001 C 
ATOM     16  C   UNL     1      34.369 -18.779 -22.986  0.00  0.00    +0.000 C 
BRANCH  12  18
ATOM     17  O   UNL     1      37.813 -18.347 -19.737  0.00  0.00    -0.245 OA
ATOM     18  C   UNL     1      37.465 -18.529 -20.906  0.00  0.00    +0.339 C 
BRANCH  18  19
ATOM     19  O   UNL     1      38.321 -18.380 -21.953  0.00  0.00    -0.477 OA
ATOM     20  H   UNL     1      39.052 -18.959 -22.046  0.00  0.00    +0.295 HD
ENDBRANCH  18  19
ENDBRANCH  12  18
ENDBRANCH   8  11
ENDBRANCH   4   9
BRANCH   1  21
ATOM     21  S   UNL     1      35.577 -24.249 -14.315  0.00  0.00    +0.064 S 
ATOM     22  O   UNL     1      35.608 -25.501 -15.041  0.00  0.00    -0.153 OA
ATOM     23  O   UNL     1      36.221 -24.120 -13.025  0.00  0.00    -0.153 OA
BRANCH  21  24
ATOM     24  N   UNL     1      33.955 -23.718 -14.182  0.00  0.00    -0.151 NA
ATOM     25  C   UNL     1      33.196 -24.238 -13.013  0.00  0.00    +0.101 C 
ATOM     26  C   UNL     1      33.153 -23.782 -15.442  0.00  0.00    +0.122 C 
ATOM     27  C   UNL     1      31.994 -23.330 -12.767  0.00  0.00    +0.045 C 
ATOM     28  C   UNL     1      31.725 -23.320 -15.284  0.00  0.00    -0.008 C 
ATOM     29  C   UNL     1      31.161 -23.136 -14.008  0.00  0.00    -0.023 C 
ATOM     30  C   UNL     1      30.937 -23.110 -16.423  0.00  0.00    -0.003 C 
ATOM     31  C   UNL     1      29.830 -22.712 -13.896  0.00  0.00    -0.004 C 
ATOM     32  C   UNL     1      29.610 -22.699 -16.300  0.00  0.00    -0.000 C 
ATOM     33  C   UNL     1      29.058 -22.499 -15.037  0.00  0.00    -0.000 C 
ENDBRANCH  21  24
ENDBRANCH   1  21
TORSDOF 6
ENDMDL
MODEL 4
REMARK VINA RESULT:     -10.7      6.450     10.681
REMARK  Name = 24941254
REMARK  6 active torsions:
REMARK  status: ('A' for Active; 'I' for Inactive)
REMARK    1  A    between atoms: C_1  and  S_21
REMARK    2  A    between atoms: C_4  and  C_9
REMARK    3  A    between atoms: N_8  and  C_11
REMARK    4  A    between atoms: C_12  and  C_18
REMARK    5  A    between atoms: C_18  and  O_19
REMARK    6  A    between atoms: S_21  and  N_24
REMARK                            x       y       z     vdW  Elec       q    Type
REMARK                         _______ _______ _______ _____ _____    ______ ____
ROOT
ATOM      1  C   UNL     1      34.803 -19.834 -20.420  0.00  0.00    +0.122 C 
ATOM      2  C   UNL     1      35.004 -20.827 -19.461  0.00  0.00    +0.024 C 
ATOM      3  C   UNL     1      33.521 -19.598 -20.919  0.00  0.00    +0.020 C 
ATOM      4  C   UNL     1      33.926 -21.584 -19.003  0.00  0.00    +0.055 C 
ATOM      5  C   UNL     1      32.443 -20.354 -20.461  0.00  0.00    +0.002 C 
ATOM      6  C   UNL     1      32.646 -21.348 -19.502  0.00  0.00    +0.005 C 
ENDROOT
BRANCH   4   9
ATOM      7  O   UNL     1      33.740 -23.772 -18.236  0.00  0.00    -0.270 OA
ATOM      8  N   UNL     1      34.810 -22.220 -16.840  0.00  0.00    -0.280 N 
ATOM      9  C   UNL     1      34.137 -22.619 -18.003  0.00  0.00    +0.250 C 
ATOM     10  H   UNL     1      35.063 -21.269 -16.798  0.00  0.00    +0.155 HD
BRANCH   8  11
ATOM     11  C   UNL     1      35.175 -23.004 -15.719  0.00  0.00    +0.057 C 
ATOM     12  C   UNL     1      36.498 -23.054 -15.277  0.00  0.00    +0.089 C 
ATOM     13  C   UNL     1      34.190 -23.733 -15.054  0.00  0.00    +0.015 C 
ATOM     14  C   UNL     1      36.833 -23.834 -14.170  0.00  0.00    +0.008 C 
ATOM     15  C   UNL     1      34.526 -24.514 -13.948  0.00  0.00    +0.001 C 
ATOM     16  C   UNL     1      35.847 -24.564 -13.506  0.00  0.00    +0.000 C 
BRANCH  12  18
ATOM     17  O   UNL     1      37.405 -21.218 -16.513  0.00  0.00    -0.245 OA
ATOM     18  C   UNL     1      37.552 -22.304 -15.949  0.00  0.00    +0.339 C 
BRANCH  18  19
ATOM     19  O   UNL     1      38.754 -22.938 -15.891  0.00  0.00    -0.477 OA
ATOM     20  H   UNL     1      38.791 -23.858 -15.715  0.00  0.00    +0.295 HD
ENDBRANCH  18  19
ENDBRANCH  12  18
ENDBRANCH   8  11
ENDBRANCH   4   9
BRANCH   1  21
ATOM     21  S   UNL     1      36.167 -18.877 -21.002  0.00  0.00    +0.064 S 
ATOM     22  O   UNL     1      36.758 -18.210 -19.861  0.00  0.00    -0.153 OA
ATOM     23  O   UNL     1      36.965 -19.720 -21.868  0.00  0.00    -0.153 OA
BRANCH  21  24
ATOM     24  N   UNL     1      35.338 -17.724 -21.958  0.00  0.00    -0.151 NA
ATOM     25  C   UNL     1      35.559 -17.818 -23.426  0.00  0.00    +0.101 C 
ATOM     26  C   UNL     1      35.414 -16.313 -21.472  0.00  0.00    +0.122 C 
ATOM     27  C   UNL     1      34.425 -17.089 -24.141  0.00  0.00    +0.045 C 
ATOM     28  C   UNL     1      34.684 -15.323 -22.347  0.00  0.00    -0.008 C 
ATOM     29  C   UNL     1      34.242 -15.682 -23.632  0.00  0.00    -0.023 C 
ATOM     30  C   UNL     1      34.480 -14.015 -21.887  0.00  0.00    -0.003 C 
ATOM     31  C   UNL     1      33.572 -14.737 -24.421  0.00  0.00    -0.004 C 
ATOM     32  C   UNL     1      33.823 -13.079 -22.686  0.00  0.00    -0.000 C 
ATOM     33  C   UNL     1      33.368 -13.441 -23.951  0.00  0.00    -0.000 C 
ENDBRANCH  21  24
ENDBRANCH   1  21
TORSDOF 6
ENDMDL
MODEL 5
REMARK VINA RESULT:     -10.5      6.463     10.253
REMARK  Name = 24941254
REMARK  6 active torsions:
REMARK  status: ('A' for Active; 'I' for Inactive)
REMARK    1  A    between atoms: C_1  and  S_21
REMARK    2  A    between atoms: C_4  and  C_9
REMARK    3  A    between atoms: N_8  and  C_11
REMARK    4  A    between atoms: C_12  and  C_18
REMARK    5  A    between atoms: C_18  and  O_19
REMARK    6  A    between atoms: S_21  and  N_24
REMARK                            x       y       z     vdW  Elec       q    Type
REMARK                         _______ _______ _______ _____ _____    ______ ____
ROOT
ATOM      1  C   UNL     1      34.731 -19.794 -20.500  0.00  0.00    +0.122 C 
ATOM      2  C   UNL     1      34.899 -20.641 -19.404  0.00  0.00    +0.024 C 
ATOM      3  C   UNL     1      33.479 -19.677 -21.105  0.00  0.00    +0.020 C 
ATOM      4  C   UNL     1      33.816 -21.370 -18.914  0.00  0.00    +0.055 C 
ATOM      5  C   UNL     1      32.397 -20.407 -20.615  0.00  0.00    +0.002 C 
ATOM      6  C   UNL     1      32.566 -21.254 -19.519  0.00  0.00    +0.005 C 
ENDROOT
BRANCH   4   9
ATOM      7  O   UNL     1      35.102 -22.770 -17.572  0.00  0.00    -0.270 OA
ATOM      8  N   UNL     1      32.865 -22.429 -16.955  0.00  0.00    -0.280 N 
ATOM      9  C   UNL     1      33.991 -22.253 -17.771  0.00  0.00    +0.250 C 
ATOM     10  H   UNL     1      32.051 -21.954 -17.241  0.00  0.00    +0.155 HD
BRANCH   8  11
ATOM     11  C   UNL     1      32.743 -23.200 -15.774  0.00  0.00    +0.057 C 
ATOM     12  C   UNL     1      31.490 -23.562 -15.277  0.00  0.00    +0.089 C 
ATOM     13  C   UNL     1      33.900 -23.598 -15.104  0.00  0.00    +0.015 C 
ATOM     14  C   UNL     1      31.396 -24.322 -14.111  0.00  0.00    +0.008 C 
ATOM     15  C   UNL     1      33.805 -24.357 -13.938  0.00  0.00    +0.001 C 
ATOM     16  C   UNL     1      32.553 -24.719 -13.441  0.00  0.00    +0.000 C 
BRANCH  12  18
ATOM     17  O   UNL     1      30.176 -22.288 -16.817  0.00  0.00    -0.245 OA
ATOM     18  C   UNL     1      30.262 -23.163 -15.952  0.00  0.00    +0.339 C 
BRANCH  18  19
ATOM     19  O   UNL     1      29.183 -23.871 -15.522  0.00  0.00    -0.477 OA
ATOM     20  H   UNL     1      28.610 -23.507 -14.876  0.00  0.00    +0.295 HD
ENDBRANCH  18  19
ENDBRANCH  12  18
ENDBRANCH   8  11
ENDBRANCH   4   9
BRANCH   1  21
ATOM     21  S   UNL     1      36.102 -18.871 -21.123  0.00  0.00    +0.064 S 
ATOM     22  O   UNL     1      36.759 -18.241 -19.997  0.00  0.00    -0.153 OA
ATOM     23  O   UNL     1      36.837 -19.726 -22.031  0.00  0.00    -0.153 OA
BRANCH  21  24
ATOM     24  N   UNL     1      35.273 -17.678 -22.028  0.00  0.00    -0.151 NA
ATOM     25  C   UNL     1      35.479 -17.722 -23.501  0.00  0.00    +0.101 C 
ATOM     26  C   UNL     1      35.367 -16.286 -21.493  0.00  0.00    +0.122 C 
ATOM     27  C   UNL     1      34.344 -16.959 -24.177  0.00  0.00    +0.045 C 
ATOM     28  C   UNL     1      34.636 -15.259 -22.324  0.00  0.00    -0.008 C 
ATOM     29  C   UNL     1      34.178 -15.569 -23.616  0.00  0.00    -0.023 C 
ATOM     30  C   UNL     1      34.449 -13.967 -21.816  0.00  0.00    -0.003 C 
ATOM     31  C   UNL     1      33.509 -14.591 -24.364  0.00  0.00    -0.004 C 
ATOM     32  C   UNL     1      33.792 -12.997 -22.574  0.00  0.00    -0.000 C 
ATOM     33  C   UNL     1      33.320 -13.311 -23.846  0.00  0.00    -0.000 C 
ENDBRANCH  21  24
ENDBRANCH   1  21
TORSDOF 6
ENDMDL
MODEL 6
REMARK VINA RESULT:     -10.4     11.500     14.228
REMARK  Name = 24941254
REMARK  6 active torsions:
REMARK  status: ('A' for Active; 'I' for Inactive)
REMARK    1  A    between atoms: C_1  and  S_21
REMARK    2  A    between atoms: C_4  and  C_9
REMARK    3  A    between atoms: N_8  and  C_11
REMARK    4  A    between atoms: C_12  and  C_18
REMARK    5  A    between atoms: C_18  and  O_19
REMARK    6  A    between atoms: S_21  and  N_24
REMARK                            x       y       z     vdW  Elec       q    Type
REMARK                         _______ _______ _______ _____ _____    ______ ____
ROOT
ATOM      1  C   UNL     1      34.331 -15.274 -22.839  0.00  0.00    +0.122 C 
ATOM      2  C   UNL     1      34.146 -14.072 -23.521  0.00  0.00    +0.024 C 
ATOM      3  C   UNL     1      34.411 -15.279 -21.446  0.00  0.00    +0.020 C 
ATOM      4  C   UNL     1      34.042 -12.876 -22.811  0.00  0.00    +0.055 C 
ATOM      5  C   UNL     1      34.307 -14.083 -20.736  0.00  0.00    +0.002 C 
ATOM      6  C   UNL     1      34.122 -12.881 -21.420  0.00  0.00    +0.005 C 
ENDROOT
BRANCH   4   9
ATOM      7  O   UNL     1      33.510 -11.651 -24.717  0.00  0.00    -0.270 OA
ATOM      8  N   UNL     1      34.042 -10.455 -22.771  0.00  0.00    -0.280 N 
ATOM      9  C   UNL     1      33.848 -11.622 -23.523  0.00  0.00    +0.250 C 
ATOM     10  H   UNL     1      34.309 -10.590 -21.833  0.00  0.00    +0.155 HD
BRANCH   8  11
ATOM     11  C   UNL     1      33.901  -9.107 -23.182  0.00  0.00    +0.057 C 
ATOM     12  C   UNL     1      32.853  -8.317 -22.709  0.00  0.00    +0.089 C 
ATOM     13  C   UNL     1      34.831  -8.572 -24.073  0.00  0.00    +0.015 C 
ATOM     14  C   UNL     1      32.736  -6.991 -23.128  0.00  0.00    +0.008 C 
ATOM     15  C   UNL     1      34.712  -7.247 -24.493  0.00  0.00    +0.001 C 
ATOM     16  C   UNL     1      33.665  -6.457 -24.021  0.00  0.00    +0.000 C 
BRANCH  12  18
ATOM     17  O   UNL     1      31.136  -9.816 -21.986  0.00  0.00    -0.245 OA
ATOM     18  C   UNL     1      31.865  -8.844 -21.776  0.00  0.00    +0.339 C 
BRANCH  18  19
ATOM     19  O   UNL     1      31.823  -8.138 -20.614  0.00  0.00    -0.477 OA
ATOM     20  H   UNL     1      31.599  -7.228 -20.627  0.00  0.00    +0.295 HD
ENDBRANCH  18  19
ENDBRANCH  12  18
ENDBRANCH   8  11
ENDBRANCH   4   9
BRANCH   1  21
ATOM     21  S   UNL     1      34.465 -16.788 -23.737  0.00  0.00    +0.064 S 
ATOM     22  O   UNL     1      33.134 -17.174 -24.155  0.00  0.00    -0.153 OA
ATOM     23  O   UNL     1      35.535 -16.641 -24.701  0.00  0.00    -0.153 OA
BRANCH  21  24
ATOM     24  N   UNL     1      34.985 -17.834 -22.485  0.00  0.00    -0.151 NA
ATOM     25  C   UNL     1      36.336 -18.433 -22.658  0.00  0.00    +0.101 C 
ATOM     26  C   UNL     1      33.980 -18.844 -22.034  0.00  0.00    +0.122 C 
ATOM     27  C   UNL     1      36.836 -18.913 -21.299  0.00  0.00    +0.045 C 
ATOM     28  C   UNL     1      34.478 -19.757 -20.939  0.00  0.00    -0.008 C 
ATOM     29  C   UNL     1      35.844 -19.815 -20.611  0.00  0.00    -0.023 C 
ATOM     30  C   UNL     1      33.571 -20.589 -20.269  0.00  0.00    -0.003 C 
ATOM     31  C   UNL     1      36.274 -20.678 -19.594  0.00  0.00    -0.004 C 
ATOM     32  C   UNL     1      34.011 -21.453 -19.266  0.00  0.00    -0.000 C 
ATOM     33  C   UNL     1      35.362 -21.495 -18.928  0.00  0.00    -0.000 C 
ENDBRANCH  21  24
ENDBRANCH   1  21
TORSDOF 6
ENDMDL
MODEL 7
REMARK VINA RESULT:     -10.1      2.664      4.687
REMARK  Name = 24941254
REMARK  6 active torsions:
REMARK  status: ('A' for Active; 'I' for Inactive)
REMARK    1  A    between atoms: C_1  and  S_21
REMARK    2  A    between atoms: C_4  and  C_9
REMARK    3  A    between atoms: N_8  and  C_11
REMARK    4  A    between atoms: C_12  and  C_18
REMARK    5  A    between atoms: C_18  and  O_19
REMARK    6  A    between atoms: S_21  and  N_24
REMARK                            x       y       z     vdW  Elec       q    Type
REMARK                         _______ _______ _______ _____ _____    ______ ____
ROOT
ATOM      1  C   UNL     1      35.196 -23.495 -14.081  0.00  0.00    +0.122 C 
ATOM      2  C   UNL     1      35.082 -23.170 -15.432  0.00  0.00    +0.024 C 
ATOM      3  C   UNL     1      34.080 -23.951 -13.377  0.00  0.00    +0.020 C 
ATOM      4  C   UNL     1      33.853 -23.300 -16.079  0.00  0.00    +0.055 C 
ATOM      5  C   UNL     1      32.852 -24.080 -14.024  0.00  0.00    +0.002 C 
ATOM      6  C   UNL     1      32.739 -23.754 -15.376  0.00  0.00    +0.005 C 
ENDROOT
BRANCH   4   9
ATOM      7  O   UNL     1      33.427 -23.849 -18.299  0.00  0.00    -0.270 OA
ATOM      8  N   UNL     1      33.960 -21.616 -17.817  0.00  0.00    -0.280 N 
ATOM      9  C   UNL     1      33.734 -22.961 -17.489  0.00  0.00    +0.250 C 
ATOM     10  H   UNL     1      34.197 -21.027 -17.065  0.00  0.00    +0.155 HD
BRANCH   8  11
ATOM     11  C   UNL     1      33.891 -20.995 -19.087  0.00  0.00    +0.057 C 
ATOM     12  C   UNL     1      35.046 -20.570 -19.744  0.00  0.00    +0.089 C 
ATOM     13  C   UNL     1      32.643 -20.809 -19.682  0.00  0.00    +0.015 C 
ATOM     14  C   UNL     1      34.952 -19.960 -20.995  0.00  0.00    +0.008 C 
ATOM     15  C   UNL     1      32.550 -20.198 -20.932  0.00  0.00    +0.001 C 
ATOM     16  C   UNL     1      33.704 -19.774 -21.588  0.00  0.00    +0.000 C 
BRANCH  12  18
ATOM     17  O   UNL     1      36.716 -21.715 -18.471  0.00  0.00    -0.245 OA
ATOM     18  C   UNL     1      36.366 -20.749 -19.151  0.00  0.00    +0.339 C 
BRANCH  18  19
ATOM     19  O   UNL     1      37.202 -19.713 -19.431  0.00  0.00    -0.477 OA
ATOM     20  H   UNL     1      37.153 -19.282 -20.261  0.00  0.00    +0.295 HD
ENDBRANCH  18  19
ENDBRANCH  12  18
ENDBRANCH   8  11
ENDBRANCH   4   9
BRANCH   1  21
ATOM     21  S   UNL     1      36.750 -23.330 -13.259  0.00  0.00    +0.064 S 
ATOM     22  O   UNL     1      37.586 -22.464 -14.064  0.00  0.00    -0.153 OA
ATOM     23  O   UNL     1      36.488 -23.028 -11.868  0.00  0.00    -0.153 OA
BRANCH  21  24
ATOM     24  N   UNL     1      37.327 -24.937 -13.382  0.00  0.00    -0.151 NA
ATOM     25  C   UNL     1      37.232 -25.756 -12.143  0.00  0.00    +0.101 C 
ATOM     26  C   UNL     1      38.651 -25.094 -14.055  0.00  0.00    +0.122 C 
ATOM     27  C   UNL     1      37.312 -27.232 -12.525  0.00  0.00    +0.045 C 
ATOM     28  C   UNL     1      39.134 -26.523 -14.133  0.00  0.00    -0.008 C 
ATOM     29  C   UNL     1      38.517 -27.536 -13.378  0.00  0.00    -0.023 C 
ATOM     30  C   UNL     1      40.238 -26.836 -14.937  0.00  0.00    -0.003 C 
ATOM     31  C   UNL     1      38.994 -28.851 -13.468  0.00  0.00    -0.004 C 
ATOM     32  C   UNL     1      40.712 -28.145 -15.009  0.00  0.00    -0.000 C 
ATOM     33  C   UNL     1      40.088 -29.152 -14.277  0.00  0.00    -0.000 C 
ENDBRANCH  21  24
ENDBRANCH   1  21
TORSDOF 6
ENDMDL
MODEL 8
REMARK VINA RESULT:     -10.1      2.788      5.056
REMARK  Name = 24941254
REMARK  6 active torsions:
REMARK  status: ('A' for Active; 'I' for Inactive)
REMARK    1  A    between atoms: C_1  and  S_21
REMARK    2  A    between atoms: C_4  and  C_9
REMARK    3  A    between atoms: N_8  and  C_11
REMARK    4  A    between atoms: C_12  and  C_18
REMARK    5  A    between atoms: C_18  and  O_19
REMARK    6  A    between atoms: S_21  and  N_24
REMARK                            x       y       z     vdW  Elec       q    Type
REMARK                         _______ _______ _______ _____ _____    ______ ____
ROOT
ATOM      1  C   UNL     1      35.796 -23.519 -14.069  0.00  0.00    +0.122 C 
ATOM      2  C   UNL     1      36.282 -22.732 -15.113  0.00  0.00    +0.024 C 
ATOM      3  C   UNL     1      34.535 -24.108 -14.170  0.00  0.00    +0.020 C 
ATOM      4  C   UNL     1      35.508 -22.534 -16.256  0.00  0.00    +0.055 C 
ATOM      5  C   UNL     1      33.761 -23.910 -15.313  0.00  0.00    +0.002 C 
ATOM      6  C   UNL     1      34.249 -23.122 -16.356  0.00  0.00    +0.005 C 
ENDROOT
BRANCH   4   9
ATOM      7  O   UNL     1      37.220 -21.411 -17.362  0.00  0.00    -0.270 OA
ATOM      8  N   UNL     1      35.080 -21.345 -18.322  0.00  0.00    -0.280 N 
ATOM      9  C   UNL     1      36.016 -21.714 -17.345  0.00  0.00    +0.250 C 
ATOM     10  H   UNL     1      34.159 -21.661 -18.172  0.00  0.00    +0.155 HD
BRANCH   8  11
ATOM     11  C   UNL     1      35.285 -20.581 -19.496  0.00  0.00    +0.057 C 
ATOM     12  C   UNL     1      34.212 -20.201 -20.303  0.00  0.00    +0.089 C 
ATOM     13  C   UNL     1      36.584 -20.210 -19.843  0.00  0.00    +0.015 C 
ATOM     14  C   UNL     1      34.440 -19.447 -21.455  0.00  0.00    +0.008 C 
ATOM     15  C   UNL     1      36.811 -19.458 -20.996  0.00  0.00    +0.001 C 
ATOM     16  C   UNL     1      35.739 -19.077 -21.801  0.00  0.00    +0.000 C 
BRANCH  12  18
ATOM     17  O   UNL     1      32.488 -21.123 -18.926  0.00  0.00    -0.245 OA
ATOM     18  C   UNL     1      32.843 -20.571 -19.970  0.00  0.00    +0.339 C 
BRANCH  18  19
ATOM     19  O   UNL     1      31.964 -20.240 -20.954  0.00  0.00    -0.477 OA
ATOM     20  H   UNL     1      31.257 -19.653 -20.772  0.00  0.00    +0.295 HD
ENDBRANCH  18  19
ENDBRANCH  12  18
ENDBRANCH   8  11
ENDBRANCH   4   9
BRANCH   1  21
ATOM     21  S   UNL     1      36.773 -23.769 -12.620  0.00  0.00    +0.064 S 
ATOM     22  O   UNL     1      37.860 -22.812 -12.649  0.00  0.00    -0.153 OA
ATOM     23  O   UNL     1      35.877 -23.843 -11.486  0.00  0.00    -0.153 OA
BRANCH  21  24
ATOM     24  N   UNL     1      37.393 -25.332 -12.942  0.00  0.00    -0.151 NA
ATOM     25  C   UNL     1      37.391 -26.279 -11.796  0.00  0.00    +0.101 C 
ATOM     26  C   UNL     1      38.684 -25.367 -13.694  0.00  0.00    +0.122 C 
ATOM     27  C   UNL     1      37.497 -27.702 -12.337  0.00  0.00    +0.045 C 
ATOM     28  C   UNL     1      39.207 -26.761 -13.948  0.00  0.00    -0.008 C 
ATOM     29  C   UNL     1      38.664 -27.870 -13.276  0.00  0.00    -0.023 C 
ATOM     30  C   UNL     1      40.275 -26.946 -14.836  0.00  0.00    -0.003 C 
ATOM     31  C   UNL     1      39.176 -29.150 -13.530  0.00  0.00    -0.004 C 
ATOM     32  C   UNL     1      40.786 -28.223 -15.072  0.00  0.00    -0.000 C 
ATOM     33  C   UNL     1      40.235 -29.324 -14.421  0.00  0.00    -0.000 C 
ENDBRANCH  21  24
ENDBRANCH   1  21
TORSDOF 6
ENDMDL
MODEL 9
REMARK VINA RESULT:     -10.0     12.929     16.766
REMARK  Name = 24941254
REMARK  6 active torsions:
REMARK  status: ('A' for Active; 'I' for Inactive)
REMARK    1  A    between atoms: C_1  and  S_21
REMARK    2  A    between atoms: C_4  and  C_9
REMARK    3  A    between atoms: N_8  and  C_11
REMARK    4  A    between atoms: C_12  and  C_18
REMARK    5  A    between atoms: C_18  and  O_19
REMARK    6  A    between atoms: S_21  and  N_24
REMARK                            x       y       z     vdW  Elec       q    Type
REMARK                         _______ _______ _______ _____ _____    ______ ____
ROOT
ATOM      1  C   UNL     1      32.753 -11.680 -22.516  0.00  0.00    +0.122 C 
ATOM      2  C   UNL     1      32.936 -13.021 -22.853  0.00  0.00    +0.024 C 
ATOM      3  C   UNL     1      33.333 -10.680 -23.297  0.00  0.00    +0.020 C 
ATOM      4  C   UNL     1      33.699 -13.363 -23.969  0.00  0.00    +0.055 C 
ATOM      5  C   UNL     1      34.097 -11.022 -24.414  0.00  0.00    +0.002 C 
ATOM      6  C   UNL     1      34.279 -12.363 -24.749  0.00  0.00    +0.005 C 
ENDROOT
BRANCH   4   9
ATOM      7  O   UNL     1      33.834 -15.096 -25.515  0.00  0.00    -0.270 OA
ATOM      8  N   UNL     1      34.150 -15.631 -23.253  0.00  0.00    -0.280 N 
ATOM      9  C   UNL     1      33.889 -14.761 -24.321  0.00  0.00    +0.250 C 
ATOM     10  H   UNL     1      34.162 -15.219 -22.359  0.00  0.00    +0.155 HD
BRANCH   8  11
ATOM     11  C   UNL     1      34.399 -17.024 -23.291  0.00  0.00    +0.057 C 
ATOM     12  C   UNL     1      34.962 -17.684 -22.198  0.00  0.00    +0.089 C 
ATOM     13  C   UNL     1      34.073 -17.738 -24.444  0.00  0.00    +0.015 C 
ATOM     14  C   UNL     1      35.198 -19.058 -22.259  0.00  0.00    +0.008 C 
ATOM     15  C   UNL     1      34.311 -19.112 -24.505  0.00  0.00    +0.001 C 
ATOM     16  C   UNL     1      34.873 -19.771 -23.412  0.00  0.00    +0.000 C 
BRANCH  12  18
ATOM     17  O   UNL     1      34.960 -15.821 -20.697  0.00  0.00    -0.245 OA
ATOM     18  C   UNL     1      35.314 -16.968 -20.977  0.00  0.00    +0.339 C 
BRANCH  18  19
ATOM     19  O   UNL     1      36.096 -17.712 -20.150  0.00  0.00    -0.477 OA
ATOM     20  H   UNL     1      35.884 -17.779 -19.240  0.00  0.00    +0.295 HD
ENDBRANCH  18  19
ENDBRANCH  12  18
ENDBRANCH   8  11
ENDBRANCH   4   9
BRANCH   1  21
ATOM     21  S   UNL     1      31.789 -11.247 -21.102  0.00  0.00    +0.064 S 
ATOM     22  O   UNL     1      30.400 -11.509 -21.417  0.00  0.00    -0.153 OA
ATOM     23  O   UNL     1      32.413 -11.841 -19.939  0.00  0.00    -0.153 OA
BRANCH  21  24
ATOM     24  N   UNL     1      32.047  -9.555 -21.070  0.00  0.00    -0.151 NA
ATOM     25  C   UNL     1      31.934  -8.907 -19.736  0.00  0.00    +0.101 C 
ATOM     26  C   UNL     1      31.337  -8.777 -22.131  0.00  0.00    +0.122 C 
ATOM     27  C   UNL     1      32.647  -7.559 -19.784  0.00  0.00    +0.045 C 
ATOM     28  C   UNL     1      31.578  -7.288 -22.063  0.00  0.00    -0.008 C 
ATOM     29  C   UNL     1      32.171  -6.703 -20.931  0.00  0.00    -0.023 C 
ATOM     30  C   UNL     1      31.166  -6.474 -23.126  0.00  0.00    -0.003 C 
ATOM     31  C   UNL     1      32.374  -5.317 -20.896  0.00  0.00    -0.004 C 
ATOM     32  C   UNL     1      31.362  -5.093 -23.077  0.00  0.00    -0.000 C 
ATOM     33  C   UNL     1      31.968  -4.516 -21.963  0.00  0.00    -0.000 C 
ENDBRANCH  21  24
ENDBRANCH   1  21
TORSDOF 6
ENDMDL
