MODEL 1
REMARK VINA RESULT:     -11.5      0.000      0.000
REMARK  Name = 68488178
REMARK  9 active torsions:
REMARK  status: ('A' for Active; 'I' for Inactive)
REMARK    1  A    between atoms: N_1  and  C_10
REMARK    2  A    between atoms: N_2  and  C_29
REMARK    3  A    between atoms: C_10  and  C_11
REMARK    4  A    between atoms: C_16  and  O_17
REMARK    5  A    between atoms: O_17  and  C_18
REMARK    6  A    between atoms: C_23  and  C_26
REMARK    7  A    between atoms: C_29  and  C_30
REMARK    8  A    between atoms: C_35  and  C_37
REMARK    9  A    between atoms: C_37  and  O_38
REMARK                            x       y       z     vdW  Elec       q    Type
REMARK                         _______ _______ _______ _____ _____    ______ ____
ROOT
ATOM      1  N   UNL     1      33.861 -12.103 -23.452  0.00  0.00    +0.388 N 
ATOM      2  N   UNL     1      34.657  -9.416 -23.404  0.00  0.00    +0.388 N 
ATOM      3  C   UNL     1      34.186 -11.345 -24.685  0.00  0.00    -0.081 C 
ATOM      4  C   UNL     1      33.231  -9.826 -23.433  0.00  0.00    -0.081 C 
ATOM      5  C   UNL     1      33.032 -10.371 -24.837  0.00  0.00    -0.046 C 
ATOM      6  C   UNL     1      33.137 -11.121 -22.606  0.00  0.00    -0.098 C 
ATOM      7  C   UNL     1      35.328 -10.382 -24.311  0.00  0.00    -0.098 C 
ATOM      8  H   UNL     1      34.698 -12.467 -22.997  0.00  0.00    -0.079 HD
ATOM      9  H   UNL     1      35.041  -9.438 -22.459  0.00  0.00    -0.079 HD
ENDROOT
BRANCH   1  10
ATOM     10  C   UNL     1      33.062 -13.293 -23.719  0.00  0.00    -0.050 C 
BRANCH  10  11
ATOM     11  C   UNL     1      33.836 -14.558 -23.461  0.00  0.00    -0.043 C 
ATOM     12  C   UNL     1      34.484 -14.741 -22.239  0.00  0.00    -0.003 C 
ATOM     13  C   UNL     1      33.905 -15.546 -24.443  0.00  0.00    -0.003 C 
ATOM     14  C   UNL     1      35.201 -15.913 -21.999  0.00  0.00    +0.037 C 
ATOM     15  C   UNL     1      34.622 -16.718 -24.203  0.00  0.00    +0.037 C 
ATOM     16  C   UNL     1      35.270 -16.902 -22.981  0.00  0.00    +0.145 C 
BRANCH  16  17
ATOM     17  O   UNL     1      35.971 -18.045 -22.747  0.00  0.00    -0.453 OA
BRANCH  17  18
ATOM     18  C   UNL     1      35.495 -18.904 -21.770  0.00  0.00    +0.145 C 
ATOM     19  C   UNL     1      34.152 -19.282 -21.769  0.00  0.00    +0.038 C 
ATOM     20  C   UNL     1      36.357 -19.389 -20.788  0.00  0.00    +0.038 C 
ATOM     21  C   UNL     1      33.672 -20.144 -20.783  0.00  0.00    +0.008 C 
ATOM     22  C   UNL     1      35.877 -20.251 -19.802  0.00  0.00    +0.008 C 
ATOM     23  C   UNL     1      34.534 -20.630 -19.800  0.00  0.00    +0.054 C 
BRANCH  23  26
ATOM     24  O   UNL     1      32.694 -21.463 -18.565  0.00  0.00    -0.431 OA
ATOM     25  N   UNL     1      34.692 -22.378 -18.031  0.00  0.00    -0.206 NA
ATOM     26  C   UNL     1      34.037 -21.521 -18.780  0.00  0.00    +0.230 C 
ATOM     27  C   UNL     1      32.490 -22.379 -17.578  0.00  0.00    +0.202 C 
ATOM     28  C   UNL     1      33.705 -22.932 -17.258  0.00  0.00    +0.143 C 
ENDBRANCH  23  26
ENDBRANCH  17  18
ENDBRANCH  16  17
ENDBRANCH  10  11
ENDBRANCH   1  10
BRANCH   2  29
ATOM     29  C   UNL     1      34.853  -8.036 -23.831  0.00  0.00    -0.050 C 
BRANCH  29  30
ATOM     30  C   UNL     1      33.850  -7.107 -23.201  0.00  0.00    -0.043 C 
ATOM     31  C   UNL     1      33.677  -7.102 -21.817  0.00  0.00    -0.006 C 
ATOM     32  C   UNL     1      33.092  -6.252 -24.002  0.00  0.00    -0.006 C 
ATOM     33  C   UNL     1      32.747  -6.242 -21.235  0.00  0.00    +0.006 C 
ATOM     34  C   UNL     1      32.161  -5.393 -23.419  0.00  0.00    +0.006 C 
ATOM     35  C   UNL     1      31.989  -5.386 -22.035  0.00  0.00    +0.075 C 
BRANCH  35  37
ATOM     36  O   UNL     1      30.541  -3.484 -21.961  0.00  0.00    -0.245 OA
ATOM     37  C   UNL     1      31.020  -4.490 -21.427  0.00  0.00    +0.338 C 
BRANCH  37  38
ATOM     38  O   UNL     1      30.674  -4.874 -20.168  0.00  0.00    -0.477 OA
ATOM     39  H   UNL     1      30.572  -4.231 -19.493  0.00  0.00    +0.295 HD
ENDBRANCH  37  38
ENDBRANCH  35  37
ENDBRANCH  29  30
ENDBRANCH   2  29
TORSDOF 9
ENDMDL
MODEL 2
REMARK VINA RESULT:     -11.2      2.731     12.862
REMARK  Name = 68488178
REMARK  9 active torsions:
REMARK  status: ('A' for Active; 'I' for Inactive)
REMARK    1  A    between atoms: N_1  and  C_10
REMARK    2  A    between atoms: N_2  and  C_29
REMARK    3  A    between atoms: C_10  and  C_11
REMARK    4  A    between atoms: C_16  and  O_17
REMARK    5  A    between atoms: O_17  and  C_18
REMARK    6  A    between atoms: C_23  and  C_26
REMARK    7  A    between atoms: C_29  and  C_30
REMARK    8  A    between atoms: C_35  and  C_37
REMARK    9  A    between atoms: C_37  and  O_38
REMARK                            x       y       z     vdW  Elec       q    Type
REMARK                         _______ _______ _______ _____ _____    ______ ____
ROOT
ATOM      1  N   UNL     1      34.902 -17.122 -22.236  0.00  0.00    +0.388 N 
ATOM      2  N   UNL     1      35.088 -19.476 -20.728  0.00  0.00    +0.388 N 
ATOM      3  C   UNL     1      35.570 -18.344 -22.745  0.00  0.00    -0.081 C 
ATOM      4  C   UNL     1      36.079 -18.376 -20.617  0.00  0.00    -0.081 C 
ATOM      5  C   UNL     1      36.845 -18.438 -21.926  0.00  0.00    -0.046 C 
ATOM      6  C   UNL     1      35.293 -17.066 -20.805  0.00  0.00    -0.098 C 
ATOM      7  C   UNL     1      34.778 -19.536 -22.178  0.00  0.00    -0.098 C 
ATOM      8  H   UNL     1      33.890 -17.159 -22.363  0.00  0.00    -0.079 HD
ATOM      9  H   UNL     1      34.259 -19.301 -20.159  0.00  0.00    -0.079 HD
ENDROOT
BRANCH   1  10
ATOM     10  C   UNL     1      35.301 -15.921 -22.962  0.00  0.00    -0.050 C 
BRANCH  10  11
ATOM     11  C   UNL     1      34.407 -14.752 -22.647  0.00  0.00    -0.043 C 
ATOM     12  C   UNL     1      33.715 -14.108 -23.673  0.00  0.00    -0.003 C 
ATOM     13  C   UNL     1      34.269 -14.313 -21.330  0.00  0.00    -0.003 C 
ATOM     14  C   UNL     1      32.886 -13.024 -23.382  0.00  0.00    +0.037 C 
ATOM     15  C   UNL     1      33.440 -13.230 -21.039  0.00  0.00    +0.037 C 
ATOM     16  C   UNL     1      32.749 -12.585 -22.065  0.00  0.00    +0.145 C 
BRANCH  16  17
ATOM     17  O   UNL     1      31.940 -11.528 -21.781  0.00  0.00    -0.453 OA
BRANCH  17  18
ATOM     18  C   UNL     1      32.294 -10.291 -22.295  0.00  0.00    +0.145 C 
ATOM     19  C   UNL     1      31.472  -9.185 -22.079  0.00  0.00    +0.038 C 
ATOM     20  C   UNL     1      33.473 -10.151 -23.028  0.00  0.00    +0.038 C 
ATOM     21  C   UNL     1      31.826  -7.941 -22.599  0.00  0.00    +0.008 C 
ATOM     22  C   UNL     1      33.827  -8.907 -23.548  0.00  0.00    +0.008 C 
ATOM     23  C   UNL     1      33.004  -7.800 -23.332  0.00  0.00    +0.054 C 
BRANCH  23  26
ATOM     24  O   UNL     1      34.561  -6.479 -24.530  0.00  0.00    -0.431 OA
ATOM     25  N   UNL     1      32.723  -5.371 -23.815  0.00  0.00    -0.206 NA
ATOM     26  C   UNL     1      33.371  -6.513 -23.870  0.00  0.00    +0.230 C 
ATOM     27  C   UNL     1      34.667  -5.180 -24.928  0.00  0.00    +0.202 C 
ATOM     28  C   UNL     1      33.550  -4.513 -24.492  0.00  0.00    +0.143 C 
ENDBRANCH  23  26
ENDBRANCH  17  18
ENDBRANCH  16  17
ENDBRANCH  10  11
ENDBRANCH   1  10
BRANCH   2  29
ATOM     29  C   UNL     1      35.599 -20.744 -20.222  0.00  0.00    -0.050 C 
BRANCH  29  30
ATOM     30  C   UNL     1      34.677 -21.351 -19.198  0.00  0.00    -0.043 C 
ATOM     31  C   UNL     1      35.204 -22.068 -18.123  0.00  0.00    -0.006 C 
ATOM     32  C   UNL     1      33.296 -21.198 -19.324  0.00  0.00    -0.006 C 
ATOM     33  C   UNL     1      34.350 -22.630 -17.175  0.00  0.00    +0.006 C 
ATOM     34  C   UNL     1      32.442 -21.761 -18.377  0.00  0.00    +0.006 C 
ATOM     35  C   UNL     1      32.969 -22.477 -17.300  0.00  0.00    +0.075 C 
BRANCH  35  37
ATOM     36  O   UNL     1      32.431 -23.762 -15.356  0.00  0.00    -0.245 OA
ATOM     37  C   UNL     1      32.079 -23.063 -16.312  0.00  0.00    +0.338 C 
BRANCH  37  38
ATOM     38  O   UNL     1      30.773 -22.760 -16.543  0.00  0.00    -0.477 OA
ATOM     39  H   UNL     1      30.512 -22.410 -17.373  0.00  0.00    +0.295 HD
ENDBRANCH  37  38
ENDBRANCH  35  37
ENDBRANCH  29  30
ENDBRANCH   2  29
TORSDOF 9
ENDMDL
MODEL 3
REMARK VINA RESULT:     -11.2      2.722     12.859
REMARK  Name = 68488178
REMARK  9 active torsions:
REMARK  status: ('A' for Active; 'I' for Inactive)
REMARK    1  A    between atoms: N_1  and  C_10
REMARK    2  A    between atoms: N_2  and  C_29
REMARK    3  A    between atoms: C_10  and  C_11
REMARK    4  A    between atoms: C_16  and  O_17
REMARK    5  A    between atoms: O_17  and  C_18
REMARK    6  A    between atoms: C_23  and  C_26
REMARK    7  A    between atoms: C_29  and  C_30
REMARK    8  A    between atoms: C_35  and  C_37
REMARK    9  A    between atoms: C_37  and  O_38
REMARK                            x       y       z     vdW  Elec       q    Type
REMARK                         _______ _______ _______ _____ _____    ______ ____
ROOT
ATOM      1  N   UNL     1      34.899 -17.120 -22.219  0.00  0.00    +0.388 N 
ATOM      2  N   UNL     1      35.107 -19.460 -20.691  0.00  0.00    +0.388 N 
ATOM      3  C   UNL     1      35.567 -18.345 -22.723  0.00  0.00    -0.081 C 
ATOM      4  C   UNL     1      36.094 -18.356 -20.600  0.00  0.00    -0.081 C 
ATOM      5  C   UNL     1      36.849 -18.426 -21.915  0.00  0.00    -0.046 C 
ATOM      6  C   UNL     1      35.302 -17.050 -20.792  0.00  0.00    -0.098 C 
ATOM      7  C   UNL     1      34.784 -19.535 -22.138  0.00  0.00    -0.098 C 
ATOM      8  H   UNL     1      33.886 -17.162 -22.337  0.00  0.00    -0.079 HD
ATOM      9  H   UNL     1      34.282 -19.283 -20.116  0.00  0.00    -0.079 HD
ENDROOT
BRANCH   1  10
ATOM     10  C   UNL     1      35.287 -15.925 -22.959  0.00  0.00    -0.050 C 
BRANCH  10  11
ATOM     11  C   UNL     1      34.389 -14.757 -22.649  0.00  0.00    -0.043 C 
ATOM     12  C   UNL     1      34.262 -14.305 -21.335  0.00  0.00    -0.003 C 
ATOM     13  C   UNL     1      33.684 -14.128 -23.675  0.00  0.00    -0.003 C 
ATOM     14  C   UNL     1      33.429 -13.223 -21.048  0.00  0.00    +0.037 C 
ATOM     15  C   UNL     1      32.851 -13.046 -23.388  0.00  0.00    +0.037 C 
ATOM     16  C   UNL     1      32.724 -12.594 -22.074  0.00  0.00    +0.145 C 
BRANCH  16  17
ATOM     17  O   UNL     1      31.911 -11.539 -21.794  0.00  0.00    -0.453 OA
BRANCH  17  18
ATOM     18  C   UNL     1      32.270 -10.298 -22.296  0.00  0.00    +0.145 C 
ATOM     19  C   UNL     1      31.471  -9.185 -22.037  0.00  0.00    +0.038 C 
ATOM     20  C   UNL     1      33.428 -10.164 -23.060  0.00  0.00    +0.038 C 
ATOM     21  C   UNL     1      31.830  -7.936 -22.545  0.00  0.00    +0.008 C 
ATOM     22  C   UNL     1      33.788  -8.916 -23.568  0.00  0.00    +0.008 C 
ATOM     23  C   UNL     1      32.989  -7.801 -23.310  0.00  0.00    +0.054 C 
BRANCH  23  26
ATOM     24  O   UNL     1      34.572  -6.463 -24.454  0.00  0.00    -0.431 OA
ATOM     25  N   UNL     1      32.699  -5.375 -23.804  0.00  0.00    -0.206 NA
ATOM     26  C   UNL     1      33.360  -6.510 -23.836  0.00  0.00    +0.230 C 
ATOM     27  C   UNL     1      34.679  -5.164 -24.849  0.00  0.00    +0.202 C 
ATOM     28  C   UNL     1      33.540  -4.508 -24.453  0.00  0.00    +0.143 C 
ENDBRANCH  23  26
ENDBRANCH  17  18
ENDBRANCH  16  17
ENDBRANCH  10  11
ENDBRANCH   1  10
BRANCH   2  29
ATOM     29  C   UNL     1      35.626 -20.722 -20.179  0.00  0.00    -0.050 C 
BRANCH  29  30
ATOM     30  C   UNL     1      34.700 -21.339 -19.165  0.00  0.00    -0.043 C 
ATOM     31  C   UNL     1      33.320 -21.191 -19.301  0.00  0.00    -0.006 C 
ATOM     32  C   UNL     1      35.222 -22.057 -18.088  0.00  0.00    -0.006 C 
ATOM     33  C   UNL     1      32.462 -21.762 -18.361  0.00  0.00    +0.006 C 
ATOM     34  C   UNL     1      34.365 -22.627 -17.149  0.00  0.00    +0.006 C 
ATOM     35  C   UNL     1      32.983 -22.481 -17.285  0.00  0.00    +0.075 C 
BRANCH  35  37
ATOM     36  O   UNL     1      32.436 -23.785 -15.356  0.00  0.00    -0.245 OA
ATOM     37  C   UNL     1      32.089 -23.077 -16.306  0.00  0.00    +0.338 C 
BRANCH  37  38
ATOM     38  O   UNL     1      30.784 -22.769 -16.540  0.00  0.00    -0.477 OA
ATOM     39  H   UNL     1      30.271 -22.362 -15.869  0.00  0.00    +0.295 HD
ENDBRANCH  37  38
ENDBRANCH  35  37
ENDBRANCH  29  30
ENDBRANCH   2  29
TORSDOF 9
ENDMDL
MODEL 4
REMARK VINA RESULT:     -10.8      2.587     12.935
REMARK  Name = 68488178
REMARK  9 active torsions:
REMARK  status: ('A' for Active; 'I' for Inactive)
REMARK    1  A    between atoms: N_1  and  C_10
REMARK    2  A    between atoms: N_2  and  C_29
REMARK    3  A    between atoms: C_10  and  C_11
REMARK    4  A    between atoms: C_16  and  O_17
REMARK    5  A    between atoms: O_17  and  C_18
REMARK    6  A    between atoms: C_23  and  C_26
REMARK    7  A    between atoms: C_29  and  C_30
REMARK    8  A    between atoms: C_35  and  C_37
REMARK    9  A    between atoms: C_37  and  O_38
REMARK                            x       y       z     vdW  Elec       q    Type
REMARK                         _______ _______ _______ _____ _____    ______ ____
ROOT
ATOM      1  N   UNL     1      35.562 -19.264 -20.227  0.00  0.00    +0.388 N 
ATOM      2  N   UNL     1      34.273 -21.350 -18.871  0.00  0.00    +0.388 N 
ATOM      3  C   UNL     1      34.576 -20.155 -20.887  0.00  0.00    -0.081 C 
ATOM      4  C   UNL     1      35.600 -21.514 -19.513  0.00  0.00    -0.081 C 
ATOM      5  C   UNL     1      35.298 -21.485 -21.000  0.00  0.00    -0.046 C 
ATOM      6  C   UNL     1      36.333 -20.171 -19.342  0.00  0.00    -0.098 C 
ATOM      7  C   UNL     1      33.519 -20.492 -19.820  0.00  0.00    -0.098 C 
ATOM      8  H   UNL     1      35.108 -18.508 -19.712  0.00  0.00    -0.079 HD
ATOM      9  H   UNL     1      34.347 -20.932 -17.942  0.00  0.00    -0.079 HD
ENDROOT
BRANCH   1  10
ATOM     10  C   UNL     1      36.418 -18.570 -21.182  0.00  0.00    -0.050 C 
BRANCH  10  11
ATOM     11  C   UNL     1      35.630 -17.652 -22.078  0.00  0.00    -0.043 C 
ATOM     12  C   UNL     1      35.381 -16.337 -21.683  0.00  0.00    -0.003 C 
ATOM     13  C   UNL     1      35.149 -18.115 -23.303  0.00  0.00    -0.003 C 
ATOM     14  C   UNL     1      34.652 -15.485 -22.512  0.00  0.00    +0.037 C 
ATOM     15  C   UNL     1      34.419 -17.263 -24.132  0.00  0.00    +0.037 C 
ATOM     16  C   UNL     1      34.170 -15.949 -23.737  0.00  0.00    +0.145 C 
BRANCH  16  17
ATOM     17  O   UNL     1      33.457 -15.118 -24.546  0.00  0.00    -0.453 OA
BRANCH  17  18
ATOM     18  C   UNL     1      33.506 -13.760 -24.279  0.00  0.00    +0.145 C 
ATOM     19  C   UNL     1      33.203 -13.290 -23.001  0.00  0.00    +0.038 C 
ATOM     20  C   UNL     1      33.857 -12.863 -25.287  0.00  0.00    +0.038 C 
ATOM     21  C   UNL     1      33.249 -11.923 -22.732  0.00  0.00    +0.008 C 
ATOM     22  C   UNL     1      33.903 -11.495 -25.018  0.00  0.00    +0.008 C 
ATOM     23  C   UNL     1      33.600 -11.024 -23.740  0.00  0.00    +0.054 C 
BRANCH  23  26
ATOM     24  O   UNL     1      34.897  -9.073 -23.400  0.00  0.00    -0.431 OA
ATOM     25  N   UNL     1      32.660  -8.766 -23.261  0.00  0.00    -0.206 NA
ATOM     26  C   UNL     1      33.647  -9.610 -23.462  0.00  0.00    +0.230 C 
ATOM     27  C   UNL     1      34.666  -7.758 -23.131  0.00  0.00    +0.202 C 
ATOM     28  C   UNL     1      33.308  -7.576 -23.048  0.00  0.00    +0.143 C 
ENDBRANCH  23  26
ENDBRANCH  17  18
ENDBRANCH  16  17
ENDBRANCH  10  11
ENDBRANCH   1  10
BRANCH   2  29
ATOM     29  C   UNL     1      33.603 -22.622 -18.630  0.00  0.00    -0.050 C 
BRANCH  29  30
ATOM     30  C   UNL     1      33.300 -22.828 -17.170  0.00  0.00    -0.043 C 
ATOM     31  C   UNL     1      31.977 -22.823 -16.726  0.00  0.00    -0.006 C 
ATOM     32  C   UNL     1      34.340 -23.023 -16.261  0.00  0.00    -0.006 C 
ATOM     33  C   UNL     1      31.696 -23.013 -15.374  0.00  0.00    +0.006 C 
ATOM     34  C   UNL     1      34.058 -23.212 -14.909  0.00  0.00    +0.006 C 
ATOM     35  C   UNL     1      32.736 -23.209 -14.464  0.00  0.00    +0.075 C 
BRANCH  35  37
ATOM     36  O   UNL     1      31.317 -23.579 -12.574  0.00  0.00    -0.245 OA
ATOM     37  C   UNL     1      32.442 -23.407 -13.055  0.00  0.00    +0.338 C 
BRANCH  37  38
ATOM     38  O   UNL     1      33.562 -23.387 -12.282  0.00  0.00    -0.477 OA
ATOM     39  H   UNL     1      33.495 -23.507 -11.355  0.00  0.00    +0.295 HD
ENDBRANCH  37  38
ENDBRANCH  35  37
ENDBRANCH  29  30
ENDBRANCH   2  29
TORSDOF 9
ENDMDL
MODEL 5
REMARK VINA RESULT:     -10.6      1.479      2.089
REMARK  Name = 68488178
REMARK  9 active torsions:
REMARK  status: ('A' for Active; 'I' for Inactive)
REMARK    1  A    between atoms: N_1  and  C_10
REMARK    2  A    between atoms: N_2  and  C_29
REMARK    3  A    between atoms: C_10  and  C_11
REMARK    4  A    between atoms: C_16  and  O_17
REMARK    5  A    between atoms: O_17  and  C_18
REMARK    6  A    between atoms: C_23  and  C_26
REMARK    7  A    between atoms: C_29  and  C_30
REMARK    8  A    between atoms: C_35  and  C_37
REMARK    9  A    between atoms: C_37  and  O_38
REMARK                            x       y       z     vdW  Elec       q    Type
REMARK                         _______ _______ _______ _____ _____    ______ ____
ROOT
ATOM      1  N   UNL     1      33.206 -10.675 -22.519  0.00  0.00    +0.388 N 
ATOM      2  N   UNL     1      34.245  -8.117 -22.994  0.00  0.00    +0.388 N 
ATOM      3  C   UNL     1      33.763 -10.272 -23.833  0.00  0.00    -0.081 C 
ATOM      4  C   UNL     1      32.803  -8.432 -23.141  0.00  0.00    -0.081 C 
ATOM      5  C   UNL     1      32.740  -9.298 -24.387  0.00  0.00    -0.046 C 
ATOM      6  C   UNL     1      32.474  -9.470 -22.053  0.00  0.00    -0.098 C 
ATOM      7  C   UNL     1      34.933  -9.318 -23.530  0.00  0.00    -0.098 C 
ATOM      8  H   UNL     1      33.936 -10.965 -21.867  0.00  0.00    -0.079 HD
ATOM      9  H   UNL     1      34.497  -7.924 -22.024  0.00  0.00    -0.079 HD
ENDROOT
BRANCH   1  10
ATOM     10  C   UNL     1      32.337 -11.842 -22.612  0.00  0.00    -0.050 C 
BRANCH  10  11
ATOM     11  C   UNL     1      33.115 -13.099 -22.897  0.00  0.00    -0.043 C 
ATOM     12  C   UNL     1      33.111 -13.646 -24.180  0.00  0.00    -0.003 C 
ATOM     13  C   UNL     1      33.840 -13.717 -21.877  0.00  0.00    -0.003 C 
ATOM     14  C   UNL     1      33.831 -14.811 -24.444  0.00  0.00    +0.037 C 
ATOM     15  C   UNL     1      34.561 -14.882 -22.141  0.00  0.00    +0.037 C 
ATOM     16  C   UNL     1      34.556 -15.429 -23.425  0.00  0.00    +0.145 C 
BRANCH  16  17
ATOM     17  O   UNL     1      35.259 -16.566 -23.682  0.00  0.00    -0.453 OA
BRANCH  17  18
ATOM     18  C   UNL     1      35.266 -17.552 -22.710  0.00  0.00    +0.145 C 
ATOM     19  C   UNL     1      34.429 -18.661 -22.836  0.00  0.00    +0.038 C 
ATOM     20  C   UNL     1      36.108 -17.436 -21.604  0.00  0.00    +0.038 C 
ATOM     21  C   UNL     1      34.434 -19.653 -21.856  0.00  0.00    +0.008 C 
ATOM     22  C   UNL     1      36.112 -18.428 -20.624  0.00  0.00    +0.008 C 
ATOM     23  C   UNL     1      35.275 -19.538 -20.749  0.00  0.00    +0.054 C 
BRANCH  23  26
ATOM     24  O   UNL     1      36.440 -20.679 -19.034  0.00  0.00    -0.431 OA
ATOM     25  N   UNL     1      34.327 -21.400 -19.391  0.00  0.00    -0.206 NA
ATOM     26  C   UNL     1      35.280 -20.563 -19.735  0.00  0.00    +0.230 C 
ATOM     27  C   UNL     1      36.186 -21.694 -18.162  0.00  0.00    +0.202 C 
ATOM     28  C   UNL     1      34.902 -22.127 -18.382  0.00  0.00    +0.143 C 
ENDBRANCH  23  26
ENDBRANCH  17  18
ENDBRANCH  16  17
ENDBRANCH  10  11
ENDBRANCH   1  10
BRANCH   2  29
ATOM     29  C   UNL     1      34.630  -6.902 -23.703  0.00  0.00    -0.050 C 
BRANCH  29  30
ATOM     30  C   UNL     1      33.639  -5.789 -23.486  0.00  0.00    -0.043 C 
ATOM     31  C   UNL     1      33.063  -5.604 -22.229  0.00  0.00    -0.006 C 
ATOM     32  C   UNL     1      33.296  -4.945 -24.543  0.00  0.00    -0.006 C 
ATOM     33  C   UNL     1      32.145  -4.574 -22.030  0.00  0.00    +0.006 C 
ATOM     34  C   UNL     1      32.378  -3.915 -24.342  0.00  0.00    +0.006 C 
ATOM     35  C   UNL     1      31.802  -3.728 -23.085  0.00  0.00    +0.075 C 
BRANCH  35  37
ATOM     36  O   UNL     1      30.432  -1.883 -23.747  0.00  0.00    -0.245 OA
ATOM     37  C   UNL     1      30.845  -2.654 -22.876  0.00  0.00    +0.338 C 
BRANCH  37  38
ATOM     38  O   UNL     1      30.428  -2.573 -21.582  0.00  0.00    -0.477 OA
ATOM     39  H   UNL     1      29.568  -2.862 -21.348  0.00  0.00    +0.295 HD
ENDBRANCH  37  38
ENDBRANCH  35  37
ENDBRANCH  29  30
ENDBRANCH   2  29
TORSDOF 9
ENDMDL
MODEL 6
REMARK VINA RESULT:     -10.6      2.361     12.806
REMARK  Name = 68488178
REMARK  9 active torsions:
REMARK  status: ('A' for Active; 'I' for Inactive)
REMARK    1  A    between atoms: N_1  and  C_10
REMARK    2  A    between atoms: N_2  and  C_29
REMARK    3  A    between atoms: C_10  and  C_11
REMARK    4  A    between atoms: C_16  and  O_17
REMARK    5  A    between atoms: O_17  and  C_18
REMARK    6  A    between atoms: C_23  and  C_26
REMARK    7  A    between atoms: C_29  and  C_30
REMARK    8  A    between atoms: C_35  and  C_37
REMARK    9  A    between atoms: C_37  and  O_38
REMARK                            x       y       z     vdW  Elec       q    Type
REMARK                         _______ _______ _______ _____ _____    ______ ____
ROOT
ATOM      1  N   UNL     1      33.583 -15.148 -23.634  0.00  0.00    +0.388 N 
ATOM      2  N   UNL     1      34.629 -17.479 -22.484  0.00  0.00    +0.388 N 
ATOM      3  C   UNL     1      34.241 -16.207 -24.436  0.00  0.00    -0.081 C 
ATOM      4  C   UNL     1      35.408 -16.221 -22.586  0.00  0.00    -0.081 C 
ATOM      5  C   UNL     1      35.710 -16.093 -24.069  0.00  0.00    -0.046 C 
ATOM      6  C   UNL     1      34.401 -15.072 -22.397  0.00  0.00    -0.098 C 
ATOM      7  C   UNL     1      33.881 -17.544 -23.765  0.00  0.00    -0.098 C 
ATOM      8  H   UNL     1      32.605 -15.367 -23.442  0.00  0.00    -0.079 HD
ATOM      9  H   UNL     1      34.012 -17.481 -21.671  0.00  0.00    -0.079 HD
ENDROOT
BRANCH   1  10
ATOM     10  C   UNL     1      33.525 -13.869 -24.332  0.00  0.00    -0.050 C 
BRANCH  10  11
ATOM     11  C   UNL     1      33.127 -12.745 -23.412  0.00  0.00    -0.043 C 
ATOM     12  C   UNL     1      33.613 -11.457 -23.636  0.00  0.00    -0.003 C 
ATOM     13  C   UNL     1      32.273 -12.992 -22.337  0.00  0.00    -0.003 C 
ATOM     14  C   UNL     1      33.246 -10.415 -22.784  0.00  0.00    +0.037 C 
ATOM     15  C   UNL     1      31.905 -11.951 -21.486  0.00  0.00    +0.037 C 
ATOM     16  C   UNL     1      32.391 -10.662 -21.709  0.00  0.00    +0.145 C 
BRANCH  16  17
ATOM     17  O   UNL     1      32.033  -9.646 -20.877  0.00  0.00    -0.453 OA
BRANCH  17  18
ATOM     18  C   UNL     1      31.912  -8.379 -21.423  0.00  0.00    +0.145 C 
ATOM     19  C   UNL     1      31.175  -8.191 -22.592  0.00  0.00    +0.038 C 
ATOM     20  C   UNL     1      32.529  -7.291 -20.805  0.00  0.00    +0.038 C 
ATOM     21  C   UNL     1      31.056  -6.916 -23.144  0.00  0.00    +0.008 C 
ATOM     22  C   UNL     1      32.410  -6.016 -21.357  0.00  0.00    +0.008 C 
ATOM     23  C   UNL     1      31.673  -5.828 -22.527  0.00  0.00    +0.054 C 
BRANCH  23  26
ATOM     24  O   UNL     1      31.997  -3.493 -22.310  0.00  0.00    -0.431 OA
ATOM     25  N   UNL     1      31.071  -4.148 -24.267  0.00  0.00    -0.206 NA
ATOM     26  C   UNL     1      31.550  -4.509 -23.098  0.00  0.00    +0.230 C 
ATOM     27  C   UNL     1      31.772  -2.382 -23.065  0.00  0.00    +0.202 C 
ATOM     28  C   UNL     1      31.211  -2.784 -24.251  0.00  0.00    +0.143 C 
ENDBRANCH  23  26
ENDBRANCH  17  18
ENDBRANCH  16  17
ENDBRANCH  10  11
ENDBRANCH   1  10
BRANCH   2  29
ATOM     29  C   UNL     1      35.476 -18.650 -22.283  0.00  0.00    -0.050 C 
BRANCH  29  30
ATOM     30  C   UNL     1      34.933 -19.557 -21.211  0.00  0.00    -0.043 C 
ATOM     31  C   UNL     1      35.809 -20.270 -20.392  0.00  0.00    -0.006 C 
ATOM     32  C   UNL     1      33.555 -19.686 -21.038  0.00  0.00    -0.006 C 
ATOM     33  C   UNL     1      35.306 -21.111 -19.400  0.00  0.00    +0.006 C 
ATOM     34  C   UNL     1      33.052 -20.527 -20.046  0.00  0.00    +0.006 C 
ATOM     35  C   UNL     1      33.928 -21.239 -19.226  0.00  0.00    +0.075 C 
BRANCH  35  37
ATOM     36  O   UNL     1      32.208 -22.288 -17.937  0.00  0.00    -0.245 OA
ATOM     37  C   UNL     1      33.404 -22.116 -18.191  0.00  0.00    +0.338 C 
BRANCH  37  38
ATOM     38  O   UNL     1      34.389 -22.754 -17.502  0.00  0.00    -0.477 OA
ATOM     39  H   UNL     1      34.975 -23.333 -17.950  0.00  0.00    +0.295 HD
ENDBRANCH  37  38
ENDBRANCH  35  37
ENDBRANCH  29  30
ENDBRANCH   2  29
TORSDOF 9
ENDMDL
MODEL 7
REMARK VINA RESULT:     -10.6      1.929      3.051
REMARK  Name = 68488178
REMARK  9 active torsions:
REMARK  status: ('A' for Active; 'I' for Inactive)
REMARK    1  A    between atoms: N_1  and  C_10
REMARK    2  A    between atoms: N_2  and  C_29
REMARK    3  A    between atoms: C_10  and  C_11
REMARK    4  A    between atoms: C_16  and  O_17
REMARK    5  A    between atoms: O_17  and  C_18
REMARK    6  A    between atoms: C_23  and  C_26
REMARK    7  A    between atoms: C_29  and  C_30
REMARK    8  A    between atoms: C_35  and  C_37
REMARK    9  A    between atoms: C_37  and  O_38
REMARK                            x       y       z     vdW  Elec       q    Type
REMARK                         _______ _______ _______ _____ _____    ______ ____
ROOT
ATOM      1  N   UNL     1      33.067 -14.111 -23.035  0.00  0.00    +0.388 N 
ATOM      2  N   UNL     1      31.940 -12.251 -21.268  0.00  0.00    +0.388 N 
ATOM      3  C   UNL     1      33.601 -13.883 -21.670  0.00  0.00    -0.081 C 
ATOM      4  C   UNL     1      32.966 -11.878 -22.272  0.00  0.00    -0.081 C 
ATOM      5  C   UNL     1      34.243 -12.510 -21.748  0.00  0.00    -0.046 C 
ATOM      6  C   UNL     1      32.698 -12.754 -23.510  0.00  0.00    -0.098 C 
ATOM      7  C   UNL     1      32.384 -13.580 -20.777  0.00  0.00    -0.098 C 
ATOM      8  H   UNL     1      32.273 -14.752 -23.032  0.00  0.00    -0.079 HD
ATOM      9  H   UNL     1      31.003 -12.278 -21.672  0.00  0.00    -0.079 HD
ENDROOT
BRANCH   1  10
ATOM     10  C   UNL     1      34.034 -14.756 -23.915  0.00  0.00    -0.050 C 
BRANCH  10  11
ATOM     11  C   UNL     1      34.554 -16.042 -23.330  0.00  0.00    -0.043 C 
ATOM     12  C   UNL     1      34.409 -17.237 -24.036  0.00  0.00    -0.003 C 
ATOM     13  C   UNL     1      35.179 -16.040 -22.083  0.00  0.00    -0.003 C 
ATOM     14  C   UNL     1      34.890 -18.430 -23.495  0.00  0.00    +0.037 C 
ATOM     15  C   UNL     1      35.660 -17.232 -21.542  0.00  0.00    +0.037 C 
ATOM     16  C   UNL     1      35.516 -18.427 -22.247  0.00  0.00    +0.145 C 
BRANCH  16  17
ATOM     17  O   UNL     1      35.985 -19.590 -21.718  0.00  0.00    -0.453 OA
BRANCH  17  18
ATOM     18  C   UNL     1      35.218 -20.210 -20.745  0.00  0.00    +0.145 C 
ATOM     19  C   UNL     1      35.830 -21.014 -19.784  0.00  0.00    +0.038 C 
ATOM     20  C   UNL     1      33.835 -20.029 -20.726  0.00  0.00    +0.038 C 
ATOM     21  C   UNL     1      35.058 -21.641 -18.806  0.00  0.00    +0.008 C 
ATOM     22  C   UNL     1      33.064 -20.656 -19.748  0.00  0.00    +0.008 C 
ATOM     23  C   UNL     1      33.675 -21.462 -18.787  0.00  0.00    +0.054 C 
BRANCH  23  26
ATOM     24  O   UNL     1      33.571 -22.889 -16.901  0.00  0.00    -0.431 OA
ATOM     25  N   UNL     1      31.579 -22.056 -17.576  0.00  0.00    -0.206 NA
ATOM     26  C   UNL     1      32.877 -22.110 -17.775  0.00  0.00    +0.230 C 
ATOM     27  C   UNL     1      32.606 -23.374 -16.071  0.00  0.00    +0.202 C 
ATOM     28  C   UNL     1      31.400 -22.865 -16.483  0.00  0.00    +0.143 C 
ENDBRANCH  23  26
ENDBRANCH  17  18
ENDBRANCH  16  17
ENDBRANCH  10  11
ENDBRANCH   1  10
BRANCH   2  29
ATOM     29  C   UNL     1      31.828 -11.276 -20.189  0.00  0.00    -0.050 C 
BRANCH  29  30
ATOM     30  C   UNL     1      31.782  -9.865 -20.712  0.00  0.00    -0.043 C 
ATOM     31  C   UNL     1      31.292  -9.612 -21.994  0.00  0.00    -0.006 C 
ATOM     32  C   UNL     1      32.229  -8.811 -19.915  0.00  0.00    -0.006 C 
ATOM     33  C   UNL     1      31.250  -8.306 -22.478  0.00  0.00    +0.006 C 
ATOM     34  C   UNL     1      32.187  -7.504 -20.400  0.00  0.00    +0.006 C 
ATOM     35  C   UNL     1      31.696  -7.250 -21.681  0.00  0.00    +0.075 C 
BRANCH  35  37
ATOM     36  O   UNL     1      32.537  -5.340 -22.850  0.00  0.00    -0.245 OA
ATOM     37  C   UNL     1      31.651  -5.888 -22.186  0.00  0.00    +0.338 C 
BRANCH  37  38
ATOM     38  O   UNL     1      30.498  -5.246 -21.850  0.00  0.00    -0.477 OA
ATOM     39  H   UNL     1      30.274  -4.436 -22.266  0.00  0.00    +0.295 HD
ENDBRANCH  37  38
ENDBRANCH  35  37
ENDBRANCH  29  30
ENDBRANCH   2  29
TORSDOF 9
ENDMDL
MODEL 8
REMARK VINA RESULT:     -10.5      4.983      9.094
REMARK  Name = 68488178
REMARK  9 active torsions:
REMARK  status: ('A' for Active; 'I' for Inactive)
REMARK    1  A    between atoms: N_1  and  C_10
REMARK    2  A    between atoms: N_2  and  C_29
REMARK    3  A    between atoms: C_10  and  C_11
REMARK    4  A    between atoms: C_16  and  O_17
REMARK    5  A    between atoms: O_17  and  C_18
REMARK    6  A    between atoms: C_23  and  C_26
REMARK    7  A    between atoms: C_29  and  C_30
REMARK    8  A    between atoms: C_35  and  C_37
REMARK    9  A    between atoms: C_37  and  O_38
REMARK                            x       y       z     vdW  Elec       q    Type
REMARK                         _______ _______ _______ _____ _____    ______ ____
ROOT
ATOM      1  N   UNL     1      35.197 -20.083 -19.851  0.00  0.00    +0.388 N 
ATOM      2  N   UNL     1      35.198 -17.723 -21.362  0.00  0.00    +0.388 N 
ATOM      3  C   UNL     1      36.319 -19.710 -20.746  0.00  0.00    -0.081 C 
ATOM      4  C   UNL     1      34.573 -18.979 -21.844  0.00  0.00    -0.081 C 
ATOM      5  C   UNL     1      35.753 -19.887 -22.143  0.00  0.00    -0.046 C 
ATOM      6  C   UNL     1      33.984 -19.673 -20.602  0.00  0.00    -0.098 C 
ATOM      7  C   UNL     1      36.435 -18.176 -20.676  0.00  0.00    -0.098 C 
ATOM      8  H   UNL     1      35.265 -19.624 -18.941  0.00  0.00    -0.079 HD
ATOM      9  H   UNL     1      34.578 -17.201 -20.742  0.00  0.00    -0.079 HD
ENDROOT
BRANCH   1  10
ATOM     10  C   UNL     1      35.187 -21.504 -19.525  0.00  0.00    -0.050 C 
BRANCH  10  11
ATOM     11  C   UNL     1      35.712 -21.766 -18.139  0.00  0.00    -0.043 C 
ATOM     12  C   UNL     1      34.959 -22.521 -17.239  0.00  0.00    -0.003 C 
ATOM     13  C   UNL     1      36.951 -21.253 -17.754  0.00  0.00    -0.003 C 
ATOM     14  C   UNL     1      35.445 -22.764 -15.954  0.00  0.00    +0.037 C 
ATOM     15  C   UNL     1      37.437 -21.496 -16.469  0.00  0.00    +0.037 C 
ATOM     16  C   UNL     1      36.684 -22.251 -15.569  0.00  0.00    +0.145 C 
BRANCH  16  17
ATOM     17  O   UNL     1      37.158 -22.487 -14.315  0.00  0.00    -0.453 OA
BRANCH  17  18
ATOM     18  C   UNL     1      37.378 -23.804 -13.948  0.00  0.00    +0.145 C 
ATOM     19  C   UNL     1      38.428 -24.522 -14.521  0.00  0.00    +0.038 C 
ATOM     20  C   UNL     1      36.550 -24.413 -13.005  0.00  0.00    +0.038 C 
ATOM     21  C   UNL     1      38.647 -25.849 -14.153  0.00  0.00    +0.008 C 
ATOM     22  C   UNL     1      36.769 -25.740 -12.637  0.00  0.00    +0.008 C 
ATOM     23  C   UNL     1      37.819 -26.459 -13.211  0.00  0.00    +0.054 C 
BRANCH  23  26
ATOM     24  O   UNL     1      37.370 -28.245 -11.724  0.00  0.00    -0.431 OA
ATOM     25  N   UNL     1      38.809 -28.739 -13.398  0.00  0.00    -0.206 NA
ATOM     26  C   UNL     1      38.046 -27.832 -12.831  0.00  0.00    +0.230 C 
ATOM     27  C   UNL     1      37.752 -29.545 -11.585  0.00  0.00    +0.202 C 
ATOM     28  C   UNL     1      38.624 -29.840 -12.603  0.00  0.00    +0.143 C 
ENDBRANCH  23  26
ENDBRANCH  17  18
ENDBRANCH  16  17
ENDBRANCH  10  11
ENDBRANCH   1  10
BRANCH   2  29
ATOM     29  C   UNL     1      35.482 -16.786 -22.443  0.00  0.00    -0.050 C 
BRANCH  29  30
ATOM     30  C   UNL     1      34.672 -15.523 -22.316  0.00  0.00    -0.043 C 
ATOM     31  C   UNL     1      34.459 -14.954 -21.060  0.00  0.00    -0.006 C 
ATOM     32  C   UNL     1      34.135 -14.922 -23.455  0.00  0.00    -0.006 C 
ATOM     33  C   UNL     1      33.709 -13.785 -20.943  0.00  0.00    +0.006 C 
ATOM     34  C   UNL     1      33.384 -13.753 -23.337  0.00  0.00    +0.006 C 
ATOM     35  C   UNL     1      33.172 -13.183 -22.081  0.00  0.00    +0.075 C 
BRANCH  35  37
ATOM     36  O   UNL     1      32.670 -10.878 -22.477  0.00  0.00    -0.245 OA
ATOM     37  C   UNL     1      32.390 -11.964 -21.959  0.00  0.00    +0.338 C 
BRANCH  37  38
ATOM     38  O   UNL     1      31.278 -12.133 -21.193  0.00  0.00    -0.477 OA
ATOM     39  H   UNL     1      30.898 -11.400 -20.748  0.00  0.00    +0.295 HD
ENDBRANCH  37  38
ENDBRANCH  35  37
ENDBRANCH  29  30
ENDBRANCH   2  29
TORSDOF 9
ENDMDL
MODEL 9
REMARK VINA RESULT:     -10.3      3.801      7.588
REMARK  Name = 68488178
REMARK  9 active torsions:
REMARK  status: ('A' for Active; 'I' for Inactive)
REMARK    1  A    between atoms: N_1  and  C_10
REMARK    2  A    between atoms: N_2  and  C_29
REMARK    3  A    between atoms: C_10  and  C_11
REMARK    4  A    between atoms: C_16  and  O_17
REMARK    5  A    between atoms: O_17  and  C_18
REMARK    6  A    between atoms: C_23  and  C_26
REMARK    7  A    between atoms: C_29  and  C_30
REMARK    8  A    between atoms: C_35  and  C_37
REMARK    9  A    between atoms: C_37  and  O_38
REMARK                            x       y       z     vdW  Elec       q    Type
REMARK                         _______ _______ _______ _____ _____    ______ ____
ROOT
ATOM      1  N   UNL     1      34.873 -19.151 -21.113  0.00  0.00    +0.388 N 
ATOM      2  N   UNL     1      34.726 -16.589 -22.238  0.00  0.00    +0.388 N 
ATOM      3  C   UNL     1      35.991 -18.180 -21.034  0.00  0.00    -0.081 C 
ATOM      4  C   UNL     1      35.154 -17.779 -23.015  0.00  0.00    -0.081 C 
ATOM      5  C   UNL     1      36.525 -18.113 -22.453  0.00  0.00    -0.046 C 
ATOM      6  C   UNL     1      34.328 -18.964 -22.481  0.00  0.00    -0.098 C 
ATOM      7  C   UNL     1      35.346 -16.789 -20.904  0.00  0.00    -0.098 C 
ATOM      8  H   UNL     1      34.173 -18.987 -20.388  0.00  0.00    -0.079 HD
ATOM      9  H   UNL     1      33.710 -16.512 -22.188  0.00  0.00    -0.079 HD
ENDROOT
BRANCH   1  10
ATOM     10  C   UNL     1      35.304 -20.524 -20.877  0.00  0.00    -0.050 C 
BRANCH  10  11
ATOM     11  C   UNL     1      34.539 -21.167 -19.751  0.00  0.00    -0.043 C 
ATOM     12  C   UNL     1      33.179 -20.901 -19.592  0.00  0.00    -0.003 C 
ATOM     13  C   UNL     1      35.190 -22.028 -18.868  0.00  0.00    -0.003 C 
ATOM     14  C   UNL     1      32.469 -21.496 -18.549  0.00  0.00    +0.037 C 
ATOM     15  C   UNL     1      34.481 -22.624 -17.824  0.00  0.00    +0.037 C 
ATOM     16  C   UNL     1      33.120 -22.358 -17.665  0.00  0.00    +0.145 C 
BRANCH  16  17
ATOM     17  O   UNL     1      32.428 -22.938 -16.646  0.00  0.00    -0.453 OA
BRANCH  17  18
ATOM     18  C   UNL     1      33.109 -23.189 -15.467  0.00  0.00    +0.145 C 
ATOM     19  C   UNL     1      32.403 -23.533 -14.314  0.00  0.00    +0.038 C 
ATOM     20  C   UNL     1      34.500 -23.097 -15.431  0.00  0.00    +0.038 C 
ATOM     21  C   UNL     1      33.088 -23.782 -13.125  0.00  0.00    +0.008 C 
ATOM     22  C   UNL     1      35.185 -23.346 -14.242  0.00  0.00    +0.008 C 
ATOM     23  C   UNL     1      34.479 -23.690 -13.088  0.00  0.00    +0.054 C 
BRANCH  23  26
ATOM     24  O   UNL     1      36.283 -23.168 -11.648  0.00  0.00    -0.431 OA
ATOM     25  N   UNL     1      34.928 -24.824 -10.915  0.00  0.00    -0.206 NA
ATOM     26  C   UNL     1      35.187 -23.947 -11.858  0.00  0.00    +0.230 C 
ATOM     27  C   UNL     1      36.758 -23.604 -10.447  0.00  0.00    +0.202 C 
ATOM     28  C   UNL     1      35.932 -24.608 -10.006  0.00  0.00    +0.143 C 
ENDBRANCH  23  26
ENDBRANCH  17  18
ENDBRANCH  16  17
ENDBRANCH  10  11
ENDBRANCH   1  10
BRANCH   2  29
ATOM     29  C   UNL     1      35.144 -15.336 -22.856  0.00  0.00    -0.050 C 
BRANCH  29  30
ATOM     30  C   UNL     1      34.234 -14.197 -22.481  0.00  0.00    -0.043 C 
ATOM     31  C   UNL     1      33.641 -14.164 -21.218  0.00  0.00    -0.006 C 
ATOM     32  C   UNL     1      33.984 -13.174 -23.396  0.00  0.00    -0.006 C 
ATOM     33  C   UNL     1      32.799 -13.109 -20.872  0.00  0.00    +0.006 C 
ATOM     34  C   UNL     1      33.140 -12.119 -23.049  0.00  0.00    +0.006 C 
ATOM     35  C   UNL     1      32.548 -12.085 -21.786  0.00  0.00    +0.075 C 
BRANCH  35  37
ATOM     36  O   UNL     1      32.014  -9.806 -21.297  0.00  0.00    -0.245 OA
ATOM     37  C   UNL     1      31.670 -10.985 -21.424  0.00  0.00    +0.338 C 
BRANCH  37  38
ATOM     38  O   UNL     1      30.384 -11.388 -21.231  0.00  0.00    -0.477 OA
ATOM     39  H   UNL     1      29.675 -10.821 -21.465  0.00  0.00    +0.295 HD
ENDBRANCH  37  38
ENDBRANCH  35  37
ENDBRANCH  29  30
ENDBRANCH   2  29
TORSDOF 9
ENDMDL
