MODEL 1
REMARK VINA RESULT:     -10.3      0.000      0.000
REMARK  Name = 24941243
REMARK  5 active torsions:
REMARK  status: ('A' for Active; 'I' for Inactive)
REMARK    1  A    between atoms: N_1  and  C_14
REMARK    2  A    between atoms: N_2  and  C_22
REMARK    3  A    between atoms: C_25  and  O_28
REMARK    4  A    between atoms: C_26  and  O_30
REMARK    5  A    between atoms: C_27  and  O_32
REMARK                            x       y       z     vdW  Elec       q    Type
REMARK                         _______ _______ _______ _____ _____    ______ ____
ROOT
ATOM      1  N   UNL     1      36.289 -18.650 -21.380  0.00  0.00    -0.260 N 
ATOM      2  N   UNL     1      36.816 -21.476 -17.625  0.00  0.00    -0.247 N 
ATOM      3  N   UNL     1      36.576 -20.069 -19.487  0.00  0.00    -0.322 NA
ATOM      4  N   UNL     1      34.678 -21.233 -18.563  0.00  0.00    -0.170 NA
ATOM      5  C   UNL     1      35.750 -19.535 -20.411  0.00  0.00    +0.201 C 
ATOM      6  C   UNL     1      37.741 -18.662 -21.585  0.00  0.00    +0.120 C 
ATOM      7  C   UNL     1      34.397 -19.798 -20.475  0.00  0.00    +0.070 C 
ATOM      8  C   UNL     1      35.983 -20.897 -18.607  0.00  0.00    +0.150 C 
ATOM      9  C   UNL     1      33.912 -20.663 -19.516  0.00  0.00    +0.116 C 
ATOM     10  H   UNL     1      37.760 -21.202 -17.696  0.00  0.00    +0.165 HD
ENDROOT
BRANCH   1  14
ATOM     11  N   UNL     1      33.533 -15.144 -25.051  0.00  0.00    -0.280 N 
ATOM     12  N   UNL     1      34.068 -16.378 -25.116  0.00  0.00    -0.173 NA
ATOM     13  C   UNL     1      34.307 -15.447 -23.059  0.00  0.00    +0.032 A 
ATOM     14  C   UNL     1      35.603 -17.576 -22.007  0.00  0.00    +0.055 C 
ATOM     15  C   UNL     1      34.562 -16.602 -23.886  0.00  0.00    +0.103 A 
ATOM     16  C   UNL     1      33.649 -14.535 -23.835  0.00  0.00    +0.053 A 
ATOM     17  C   UNL     1      35.234 -17.722 -23.362  0.00  0.00    +0.036 C 
ATOM     18  C   UNL     1      34.656 -15.273 -21.725  0.00  0.00    +0.004 C 
ATOM     19  C   UNL     1      35.326 -16.409 -21.228  0.00  0.00    +0.015 C 
ATOM     20  C   UNL     1      33.122 -13.184 -23.585  0.00  0.00    +0.051 C 
ATOM     21  H   UNL     1      33.093 -14.714 -25.819  0.00  0.00    +0.189 HD
ENDBRANCH   1  14
BRANCH   2  22
ATOM     22  C   UNL     1      36.563 -22.367 -16.565  0.00  0.00    +0.064 C 
ATOM     23  C   UNL     1      37.610 -22.797 -15.752  0.00  0.00    +0.055 C 
ATOM     24  C   UNL     1      35.264 -22.818 -16.328  0.00  0.00    +0.055 C 
ATOM     25  C   UNL     1      35.014 -23.698 -15.276  0.00  0.00    +0.177 C 
ATOM     26  C   UNL     1      37.359 -23.678 -14.700  0.00  0.00    +0.177 C 
ATOM     27  C   UNL     1      36.061 -24.129 -14.461  0.00  0.00    +0.206 C 
BRANCH  25  28
ATOM     28  O   UNL     1      33.741 -24.131 -15.054  0.00  0.00    -0.468 OA
ATOM     29  C   UNL     1      32.804 -23.169 -14.575  0.00  0.00    +0.253 C 
ENDBRANCH  25  28
BRANCH  26  30
ATOM     30  O   UNL     1      38.392 -24.091 -13.912  0.00  0.00    -0.468 OA
ATOM     31  C   UNL     1      39.251 -25.096 -14.444  0.00  0.00    +0.253 C 
ENDBRANCH  26  30
BRANCH  27  32
ATOM     32  O   UNL     1      35.816 -24.991 -13.434  0.00  0.00    -0.465 OA
ATOM     33  C   UNL     1      35.497 -24.416 -12.169  0.00  0.00    +0.253 C 
ENDBRANCH  27  32
ENDBRANCH   2  22
TORSDOF 5
ENDMDL
MODEL 2
REMARK VINA RESULT:     -10.3      0.018      2.274
REMARK  Name = 24941243
REMARK  5 active torsions:
REMARK  status: ('A' for Active; 'I' for Inactive)
REMARK    1  A    between atoms: N_1  and  C_14
REMARK    2  A    between atoms: N_2  and  C_22
REMARK    3  A    between atoms: C_25  and  O_28
REMARK    4  A    between atoms: C_26  and  O_30
REMARK    5  A    between atoms: C_27  and  O_32
REMARK                            x       y       z     vdW  Elec       q    Type
REMARK                         _______ _______ _______ _____ _____    ______ ____
ROOT
ATOM      1  N   UNL     1      36.290 -18.653 -21.381  0.00  0.00    -0.260 N 
ATOM      2  N   UNL     1      36.819 -21.478 -17.626  0.00  0.00    -0.247 N 
ATOM      3  N   UNL     1      36.578 -20.071 -19.488  0.00  0.00    -0.322 NA
ATOM      4  N   UNL     1      34.681 -21.234 -18.562  0.00  0.00    -0.170 NA
ATOM      5  C   UNL     1      35.752 -19.537 -20.411  0.00  0.00    +0.201 C 
ATOM      6  C   UNL     1      37.742 -18.664 -21.587  0.00  0.00    +0.120 C 
ATOM      7  C   UNL     1      34.398 -19.799 -20.474  0.00  0.00    +0.070 C 
ATOM      8  C   UNL     1      35.985 -20.899 -18.607  0.00  0.00    +0.150 C 
ATOM      9  C   UNL     1      33.913 -20.664 -19.514  0.00  0.00    +0.116 C 
ATOM     10  H   UNL     1      37.763 -21.204 -17.697  0.00  0.00    +0.165 HD
ENDROOT
BRANCH   1  14
ATOM     11  N   UNL     1      33.528 -15.148 -25.049  0.00  0.00    -0.280 N 
ATOM     12  N   UNL     1      34.062 -16.383 -25.114  0.00  0.00    -0.173 NA
ATOM     13  C   UNL     1      34.308 -15.449 -23.059  0.00  0.00    +0.032 A 
ATOM     14  C   UNL     1      35.603 -17.579 -22.008  0.00  0.00    +0.055 C 
ATOM     15  C   UNL     1      34.559 -16.605 -23.885  0.00  0.00    +0.103 A 
ATOM     16  C   UNL     1      33.649 -14.537 -23.835  0.00  0.00    +0.053 A 
ATOM     17  C   UNL     1      35.230 -17.726 -23.362  0.00  0.00    +0.036 C 
ATOM     18  C   UNL     1      34.661 -15.273 -21.727  0.00  0.00    +0.004 C 
ATOM     19  C   UNL     1      35.330 -16.409 -21.230  0.00  0.00    +0.015 C 
ATOM     20  C   UNL     1      33.125 -13.184 -23.586  0.00  0.00    +0.051 C 
ATOM     21  H   UNL     1      33.087 -14.718 -25.817  0.00  0.00    +0.189 HD
ENDBRANCH   1  14
BRANCH   2  22
ATOM     22  C   UNL     1      36.567 -22.368 -16.566  0.00  0.00    +0.064 C 
ATOM     23  C   UNL     1      35.269 -22.816 -16.326  0.00  0.00    +0.055 C 
ATOM     24  C   UNL     1      37.616 -22.805 -15.756  0.00  0.00    +0.055 C 
ATOM     25  C   UNL     1      37.366 -23.690 -14.709  0.00  0.00    +0.177 C 
ATOM     26  C   UNL     1      35.019 -23.701 -15.277  0.00  0.00    +0.177 C 
ATOM     27  C   UNL     1      36.068 -24.138 -14.468  0.00  0.00    +0.206 C 
BRANCH  25  28
ATOM     28  O   UNL     1      38.400 -24.110 -13.926  0.00  0.00    -0.468 OA
ATOM     29  C   UNL     1      39.303 -25.054 -14.496  0.00  0.00    +0.253 C 
ENDBRANCH  25  28
BRANCH  26  30
ATOM     30  O   UNL     1      33.745 -24.130 -15.053  0.00  0.00    -0.468 OA
ATOM     31  C   UNL     1      32.809 -23.164 -14.579  0.00  0.00    +0.253 C 
ENDBRANCH  26  30
BRANCH  27  32
ATOM     32  O   UNL     1      35.823 -25.002 -13.442  0.00  0.00    -0.465 OA
ATOM     33  C   UNL     1      35.521 -24.429 -12.172  0.00  0.00    +0.253 C 
ENDBRANCH  27  32
ENDBRANCH   2  22
TORSDOF 5
ENDMDL
MODEL 3
REMARK VINA RESULT:     -10.2      0.929      2.639
REMARK  Name = 24941243
REMARK  5 active torsions:
REMARK  status: ('A' for Active; 'I' for Inactive)
REMARK    1  A    between atoms: N_1  and  C_14
REMARK    2  A    between atoms: N_2  and  C_22
REMARK    3  A    between atoms: C_25  and  O_28
REMARK    4  A    between atoms: C_26  and  O_30
REMARK    5  A    between atoms: C_27  and  O_32
REMARK                            x       y       z     vdW  Elec       q    Type
REMARK                         _______ _______ _______ _____ _____    ______ ____
ROOT
ATOM      1  N   UNL     1      36.219 -18.606 -21.573  0.00  0.00    -0.260 N 
ATOM      2  N   UNL     1      36.598 -21.390 -17.769  0.00  0.00    -0.247 N 
ATOM      3  N   UNL     1      36.432 -20.005 -19.655  0.00  0.00    -0.322 NA
ATOM      4  N   UNL     1      34.485 -21.102 -18.750  0.00  0.00    -0.170 NA
ATOM      5  C   UNL     1      35.638 -19.461 -20.602  0.00  0.00    +0.201 C 
ATOM      6  C   UNL     1      37.674 -18.661 -21.751  0.00  0.00    +0.120 C 
ATOM      7  C   UNL     1      34.279 -19.687 -20.687  0.00  0.00    +0.070 C 
ATOM      8  C   UNL     1      35.799 -20.803 -18.775  0.00  0.00    +0.150 C 
ATOM      9  C   UNL     1      33.752 -20.524 -19.725  0.00  0.00    +0.116 C 
ATOM     10  H   UNL     1      37.550 -21.144 -17.826  0.00  0.00    +0.165 HD
ENDROOT
BRANCH   1  14
ATOM     11  N   UNL     1      33.736 -13.583 -22.974  0.00  0.00    -0.280 N 
ATOM     12  N   UNL     1      34.292 -14.106 -21.865  0.00  0.00    -0.173 NA
ATOM     13  C   UNL     1      34.342 -15.553 -23.613  0.00  0.00    +0.032 A 
ATOM     14  C   UNL     1      35.575 -17.523 -22.228  0.00  0.00    +0.055 C 
ATOM     15  C   UNL     1      34.684 -15.339 -22.228  0.00  0.00    +0.103 A 
ATOM     16  C   UNL     1      33.737 -14.412 -24.058  0.00  0.00    +0.053 A 
ATOM     17  C   UNL     1      35.326 -16.348 -21.486  0.00  0.00    +0.036 C 
ATOM     18  C   UNL     1      34.573 -16.695 -24.371  0.00  0.00    +0.004 C 
ATOM     19  C   UNL     1      35.216 -17.686 -23.603  0.00  0.00    +0.015 C 
ATOM     20  C   UNL     1      33.168 -14.004 -25.353  0.00  0.00    +0.051 C 
ATOM     21  H   UNL     1      33.357 -12.674 -23.001  0.00  0.00    +0.189 HD
ENDBRANCH   1  14
BRANCH   2  22
ATOM     22  C   UNL     1      36.301 -22.258 -16.702  0.00  0.00    +0.064 C 
ATOM     23  C   UNL     1      34.996 -22.710 -16.514  0.00  0.00    +0.055 C 
ATOM     24  C   UNL     1      37.313 -22.669 -15.833  0.00  0.00    +0.055 C 
ATOM     25  C   UNL     1      37.019 -23.531 -14.778  0.00  0.00    +0.177 C 
ATOM     26  C   UNL     1      34.701 -23.572 -15.458  0.00  0.00    +0.177 C 
ATOM     27  C   UNL     1      35.713 -23.983 -14.590  0.00  0.00    +0.206 C 
BRANCH  25  28
ATOM     28  O   UNL     1      38.016 -23.925 -13.937  0.00  0.00    -0.468 OA
ATOM     29  C   UNL     1      38.740 -25.100 -14.296  0.00  0.00    +0.253 C 
ENDBRANCH  25  28
BRANCH  26  30
ATOM     30  O   UNL     1      33.421 -24.006 -15.285  0.00  0.00    -0.468 OA
ATOM     31  C   UNL     1      32.387 -23.225 -15.879  0.00  0.00    +0.253 C 
ENDBRANCH  26  30
BRANCH  27  32
ATOM     32  O   UNL     1      35.425 -24.825 -13.557  0.00  0.00    -0.465 OA
ATOM     33  C   UNL     1      35.093 -24.226 -12.307  0.00  0.00    +0.253 C 
ENDBRANCH  27  32
ENDBRANCH   2  22
TORSDOF 5
ENDMDL
MODEL 4
REMARK VINA RESULT:      -9.8      1.679      2.280
REMARK  Name = 24941243
REMARK  5 active torsions:
REMARK  status: ('A' for Active; 'I' for Inactive)
REMARK    1  A    between atoms: N_1  and  C_14
REMARK    2  A    between atoms: N_2  and  C_22
REMARK    3  A    between atoms: C_25  and  O_28
REMARK    4  A    between atoms: C_26  and  O_30
REMARK    5  A    between atoms: C_27  and  O_32
REMARK                            x       y       z     vdW  Elec       q    Type
REMARK                         _______ _______ _______ _____ _____    ______ ____
ROOT
ATOM      1  N   UNL     1      35.502 -19.162 -21.078  0.00  0.00    -0.260 N 
ATOM      2  N   UNL     1      34.700 -22.060 -17.428  0.00  0.00    -0.247 N 
ATOM      3  N   UNL     1      35.119 -20.622 -19.234  0.00  0.00    -0.322 NA
ATOM      4  N   UNL     1      32.886 -21.396 -18.762  0.00  0.00    -0.170 NA
ATOM      5  C   UNL     1      34.618 -19.930 -20.278  0.00  0.00    +0.201 C 
ATOM      6  C   UNL     1      36.936 -19.457 -20.990  0.00  0.00    +0.120 C 
ATOM      7  C   UNL     1      33.281 -19.921 -20.622  0.00  0.00    +0.070 C 
ATOM      8  C   UNL     1      34.211 -21.323 -18.529  0.00  0.00    +0.150 C 
ATOM      9  C   UNL     1      32.454 -20.680 -19.820  0.00  0.00    +0.116 C 
ATOM     10  H   UNL     1      35.672 -21.977 -17.297  0.00  0.00    +0.165 HD
ENDROOT
BRANCH   1  14
ATOM     11  N   UNL     1      34.075 -15.196 -25.028  0.00  0.00    -0.280 N 
ATOM     12  N   UNL     1      34.268 -16.529 -25.028  0.00  0.00    -0.173 NA
ATOM     13  C   UNL     1      34.580 -15.616 -22.972  0.00  0.00    +0.032 A 
ATOM     14  C   UNL     1      35.177 -17.970 -21.779  0.00  0.00    +0.055 C 
ATOM     15  C   UNL     1      34.585 -16.828 -23.756  0.00  0.00    +0.103 A 
ATOM     16  C   UNL     1      34.250 -14.594 -23.816  0.00  0.00    +0.053 A 
ATOM     17  C   UNL     1      34.892 -18.065 -23.159  0.00  0.00    +0.036 C 
ATOM     18  C   UNL     1      34.854 -15.490 -21.615  0.00  0.00    +0.004 C 
ATOM     19  C   UNL     1      35.157 -16.742 -21.045  0.00  0.00    +0.015 C 
ATOM     20  C   UNL     1      34.082 -13.143 -23.634  0.00  0.00    +0.051 C 
ATOM     21  H   UNL     1      33.827 -14.695 -25.839  0.00  0.00    +0.189 HD
ENDBRANCH   1  14
BRANCH   2  22
ATOM     22  C   UNL     1      34.070 -22.891 -16.483  0.00  0.00    +0.064 C 
ATOM     23  C   UNL     1      34.817 -23.477 -15.463  0.00  0.00    +0.055 C 
ATOM     24  C   UNL     1      32.697 -23.126 -16.566  0.00  0.00    +0.055 C 
ATOM     25  C   UNL     1      32.072 -23.946 -15.627  0.00  0.00    +0.177 C 
ATOM     26  C   UNL     1      34.192 -24.299 -14.524  0.00  0.00    +0.177 C 
ATOM     27  C   UNL     1      32.820 -24.532 -14.606  0.00  0.00    +0.206 C 
BRANCH  25  28
ATOM     28  O   UNL     1      30.731 -24.167 -15.718  0.00  0.00    -0.468 OA
ATOM     29  C   UNL     1      29.893 -23.021 -15.851  0.00  0.00    +0.253 C 
ENDBRANCH  25  28
BRANCH  26  30
ATOM     30  O   UNL     1      34.935 -24.866 -13.532  0.00  0.00    -0.468 OA
ATOM     31  C   UNL     1      35.178 -24.075 -12.371  0.00  0.00    +0.253 C 
ENDBRANCH  26  30
BRANCH  27  32
ATOM     32  O   UNL     1      32.209 -25.336 -13.689  0.00  0.00    -0.465 OA
ATOM     33  C   UNL     1      31.324 -24.708 -12.765  0.00  0.00    +0.253 C 
ENDBRANCH  27  32
ENDBRANCH   2  22
TORSDOF 5
ENDMDL
MODEL 5
REMARK VINA RESULT:      -9.5      5.970     11.740
REMARK  Name = 24941243
REMARK  5 active torsions:
REMARK  status: ('A' for Active; 'I' for Inactive)
REMARK    1  A    between atoms: N_1  and  C_14
REMARK    2  A    between atoms: N_2  and  C_22
REMARK    3  A    between atoms: C_25  and  O_28
REMARK    4  A    between atoms: C_26  and  O_30
REMARK    5  A    between atoms: C_27  and  O_32
REMARK                            x       y       z     vdW  Elec       q    Type
REMARK                         _______ _______ _______ _____ _____    ______ ____
ROOT
ATOM      1  N   UNL     1      35.173 -18.004 -21.782  0.00  0.00    -0.260 N 
ATOM      2  N   UNL     1      33.979 -13.664 -23.231  0.00  0.00    -0.247 N 
ATOM      3  N   UNL     1      34.570 -15.824 -22.533  0.00  0.00    -0.322 NA
ATOM      4  N   UNL     1      34.338 -14.030 -20.940  0.00  0.00    -0.170 NA
ATOM      5  C   UNL     1      34.885 -16.643 -21.507  0.00  0.00    +0.201 C 
ATOM      6  C   UNL     1      35.501 -18.369 -23.164  0.00  0.00    +0.120 C 
ATOM      7  C   UNL     1      34.946 -16.235 -20.190  0.00  0.00    +0.070 C 
ATOM      8  C   UNL     1      34.313 -14.550 -22.183  0.00  0.00    +0.150 C 
ATOM      9  C   UNL     1      34.660 -14.904 -19.964  0.00  0.00    +0.116 C 
ATOM     10  H   UNL     1      33.973 -14.087 -24.120  0.00  0.00    +0.165 HD
ENDROOT
BRANCH   1  14
ATOM     11  N   UNL     1      35.627 -22.358 -18.013  0.00  0.00    -0.280 N 
ATOM     12  N   UNL     1      36.476 -21.470 -18.565  0.00  0.00    -0.173 NA
ATOM     13  C   UNL     1      34.344 -21.187 -19.294  0.00  0.00    +0.032 A 
ATOM     14  C   UNL     1      34.943 -19.102 -20.910  0.00  0.00    +0.055 C 
ATOM     15  C   UNL     1      35.707 -20.719 -19.373  0.00  0.00    +0.103 A 
ATOM     16  C   UNL     1      34.330 -22.235 -18.418  0.00  0.00    +0.053 A 
ATOM     17  C   UNL     1      36.044 -19.636 -20.205  0.00  0.00    +0.036 C 
ATOM     18  C   UNL     1      33.240 -20.684 -19.973  0.00  0.00    +0.004 C 
ATOM     19  C   UNL     1      33.607 -19.602 -20.797  0.00  0.00    +0.015 C 
ATOM     20  C   UNL     1      33.269 -23.124 -17.917  0.00  0.00    +0.051 C 
ATOM     21  H   UNL     1      35.919 -23.043 -17.369  0.00  0.00    +0.189 HD
ENDBRANCH   1  14
BRANCH   2  22
ATOM     22  C   UNL     1      33.655 -12.295 -23.254  0.00  0.00    +0.064 C 
ATOM     23  C   UNL     1      32.610 -11.813 -22.467  0.00  0.00    +0.055 C 
ATOM     24  C   UNL     1      34.382 -11.419 -24.062  0.00  0.00    +0.055 C 
ATOM     25  C   UNL     1      34.062 -10.062 -24.081  0.00  0.00    +0.177 C 
ATOM     26  C   UNL     1      32.290 -10.455 -22.488  0.00  0.00    +0.177 C 
ATOM     27  C   UNL     1      33.016  -9.580 -23.294  0.00  0.00    +0.206 C 
BRANCH  25  28
ATOM     28  O   UNL     1      34.780  -9.217 -24.874  0.00  0.00    -0.468 OA
ATOM     29  C   UNL     1      35.767  -9.803 -25.718  0.00  0.00    +0.253 C 
ENDBRANCH  25  28
BRANCH  26  30
ATOM     30  O   UNL     1      31.265  -9.998 -21.715  0.00  0.00    -0.468 OA
ATOM     31  C   UNL     1      31.440 -10.064 -20.302  0.00  0.00    +0.253 C 
ENDBRANCH  26  30
BRANCH  27  32
ATOM     32  O   UNL     1      32.703  -8.253 -23.315  0.00  0.00    -0.465 OA
ATOM     33  C   UNL     1      33.354  -7.419 -22.360  0.00  0.00    +0.253 C 
ENDBRANCH  27  32
ENDBRANCH   2  22
TORSDOF 5
ENDMDL
MODEL 6
REMARK VINA RESULT:      -9.5      5.974     11.615
REMARK  Name = 24941243
REMARK  5 active torsions:
REMARK  status: ('A' for Active; 'I' for Inactive)
REMARK    1  A    between atoms: N_1  and  C_14
REMARK    2  A    between atoms: N_2  and  C_22
REMARK    3  A    between atoms: C_25  and  O_28
REMARK    4  A    between atoms: C_26  and  O_30
REMARK    5  A    between atoms: C_27  and  O_32
REMARK                            x       y       z     vdW  Elec       q    Type
REMARK                         _______ _______ _______ _____ _____    ______ ____
ROOT
ATOM      1  N   UNL     1      35.163 -18.006 -21.782  0.00  0.00    -0.260 N 
ATOM      2  N   UNL     1      33.976 -13.662 -23.225  0.00  0.00    -0.247 N 
ATOM      3  N   UNL     1      34.564 -15.825 -22.530  0.00  0.00    -0.322 NA
ATOM      4  N   UNL     1      34.340 -14.031 -20.935  0.00  0.00    -0.170 NA
ATOM      5  C   UNL     1      34.879 -16.645 -21.506  0.00  0.00    +0.201 C 
ATOM      6  C   UNL     1      35.486 -18.371 -23.166  0.00  0.00    +0.120 C 
ATOM      7  C   UNL     1      34.945 -16.238 -20.189  0.00  0.00    +0.070 C 
ATOM      8  C   UNL     1      34.310 -14.550 -22.178  0.00  0.00    +0.150 C 
ATOM      9  C   UNL     1      34.662 -14.907 -19.961  0.00  0.00    +0.116 C 
ATOM     10  H   UNL     1      33.966 -14.085 -24.114  0.00  0.00    +0.165 HD
ENDROOT
BRANCH   1  14
ATOM     11  N   UNL     1      35.616 -22.364 -18.017  0.00  0.00    -0.280 N 
ATOM     12  N   UNL     1      36.465 -21.477 -18.570  0.00  0.00    -0.173 NA
ATOM     13  C   UNL     1      34.332 -21.190 -19.296  0.00  0.00    +0.032 A 
ATOM     14  C   UNL     1      34.932 -19.104 -20.911  0.00  0.00    +0.055 C 
ATOM     15  C   UNL     1      35.696 -20.724 -19.376  0.00  0.00    +0.103 A 
ATOM     16  C   UNL     1      34.318 -22.238 -18.420  0.00  0.00    +0.053 A 
ATOM     17  C   UNL     1      36.033 -19.641 -20.208  0.00  0.00    +0.036 C 
ATOM     18  C   UNL     1      33.229 -20.684 -19.972  0.00  0.00    +0.004 C 
ATOM     19  C   UNL     1      33.596 -19.603 -20.795  0.00  0.00    +0.015 C 
ATOM     20  C   UNL     1      33.256 -23.126 -17.918  0.00  0.00    +0.051 C 
ATOM     21  H   UNL     1      35.908 -23.050 -17.374  0.00  0.00    +0.189 HD
ENDBRANCH   1  14
BRANCH   2  22
ATOM     22  C   UNL     1      33.656 -12.292 -23.245  0.00  0.00    +0.064 C 
ATOM     23  C   UNL     1      34.384 -11.418 -24.051  0.00  0.00    +0.055 C 
ATOM     24  C   UNL     1      32.607 -11.809 -22.462  0.00  0.00    +0.055 C 
ATOM     25  C   UNL     1      32.287 -10.452 -22.485  0.00  0.00    +0.177 C 
ATOM     26  C   UNL     1      34.064 -10.060 -24.073  0.00  0.00    +0.177 C 
ATOM     27  C   UNL     1      33.016  -9.577 -23.291  0.00  0.00    +0.206 C 
BRANCH  25  28
ATOM     28  O   UNL     1      31.260  -9.993 -21.716  0.00  0.00    -0.468 OA
ATOM     29  C   UNL     1      31.456 -10.000 -20.304  0.00  0.00    +0.253 C 
ENDBRANCH  25  28
BRANCH  26  30
ATOM     30  O   UNL     1      34.785  -9.216 -24.864  0.00  0.00    -0.468 OA
ATOM     31  C   UNL     1      35.767  -9.805 -25.714  0.00  0.00    +0.253 C 
ENDBRANCH  26  30
BRANCH  27  32
ATOM     32  O   UNL     1      32.704  -8.250 -23.312  0.00  0.00    -0.465 OA
ATOM     33  C   UNL     1      33.368  -7.414 -22.367  0.00  0.00    +0.253 C 
ENDBRANCH  27  32
ENDBRANCH   2  22
TORSDOF 5
ENDMDL
MODEL 7
REMARK VINA RESULT:      -9.1      5.811      9.940
REMARK  Name = 24941243
REMARK  5 active torsions:
REMARK  status: ('A' for Active; 'I' for Inactive)
REMARK    1  A    between atoms: N_1  and  C_14
REMARK    2  A    between atoms: N_2  and  C_22
REMARK    3  A    between atoms: C_25  and  O_28
REMARK    4  A    between atoms: C_26  and  O_30
REMARK    5  A    between atoms: C_27  and  O_32
REMARK                            x       y       z     vdW  Elec       q    Type
REMARK                         _______ _______ _______ _____ _____    ______ ____
ROOT
ATOM      1  N   UNL     1      33.451  -9.703 -23.532  0.00  0.00    -0.260 N 
ATOM      2  N   UNL     1      34.831 -14.219 -23.276  0.00  0.00    -0.247 N 
ATOM      3  N   UNL     1      34.165 -11.973 -23.413  0.00  0.00    -0.322 NA
ATOM      4  N   UNL     1      32.753 -13.620 -22.364  0.00  0.00    -0.170 NA
ATOM      5  C   UNL     1      33.224 -11.046 -23.138  0.00  0.00    +0.201 C 
ATOM      6  C   UNL     1      34.481  -9.452 -24.546  0.00  0.00    +0.120 C 
ATOM      7  C   UNL     1      32.039 -11.325 -22.488  0.00  0.00    +0.070 C 
ATOM      8  C   UNL     1      33.869 -13.221 -23.004  0.00  0.00    +0.150 C 
ATOM      9  C   UNL     1      31.855 -12.642 -22.121  0.00  0.00    +0.116 C 
ATOM     10  H   UNL     1      35.629 -13.882 -23.744  0.00  0.00    +0.165 HD
ENDROOT
BRANCH   1  14
ATOM     11  N   UNL     1      32.151  -5.517 -19.770  0.00  0.00    -0.280 N 
ATOM     12  N   UNL     1      32.869  -6.656 -19.733  0.00  0.00    -0.173 NA
ATOM     13  C   UNL     1      31.942  -6.291 -21.773  0.00  0.00    +0.032 A 
ATOM     14  C   UNL     1      32.958  -8.543 -22.878  0.00  0.00    +0.055 C 
ATOM     15  C   UNL     1      32.761  -7.168 -20.971  0.00  0.00    +0.103 A 
ATOM     16  C   UNL     1      31.569  -5.248 -20.974  0.00  0.00    +0.053 A 
ATOM     17  C   UNL     1      33.302  -8.344 -21.523  0.00  0.00    +0.036 C 
ATOM     18  C   UNL     1      31.587  -6.457 -23.107  0.00  0.00    +0.004 C 
ATOM     19  C   UNL     1      32.141  -7.641 -23.631  0.00  0.00    +0.015 C 
ATOM     20  C   UNL     1      30.747  -4.047 -21.192  0.00  0.00    +0.051 C 
ATOM     21  H   UNL     1      32.053  -4.926 -18.989  0.00  0.00    +0.189 HD
ENDBRANCH   1  14
BRANCH   2  22
ATOM     22  C   UNL     1      34.872 -15.600 -23.009  0.00  0.00    +0.064 C 
ATOM     23  C   UNL     1      34.429 -16.509 -23.968  0.00  0.00    +0.055 C 
ATOM     24  C   UNL     1      35.360 -16.059 -21.784  0.00  0.00    +0.055 C 
ATOM     25  C   UNL     1      35.404 -17.427 -21.521  0.00  0.00    +0.177 C 
ATOM     26  C   UNL     1      34.473 -17.878 -23.704  0.00  0.00    +0.177 C 
ATOM     27  C   UNL     1      34.961 -18.337 -22.481  0.00  0.00    +0.206 C 
BRANCH  25  28
ATOM     28  O   UNL     1      35.883 -17.863 -20.322  0.00  0.00    -0.468 OA
ATOM     29  C   UNL     1      37.181 -18.452 -20.318  0.00  0.00    +0.253 C 
ENDBRANCH  25  28
BRANCH  26  30
ATOM     30  O   UNL     1      34.036 -18.756 -24.650  0.00  0.00    -0.468 OA
ATOM     31  C   UNL     1      32.626 -18.878 -24.819  0.00  0.00    +0.253 C 
ENDBRANCH  26  30
BRANCH  27  32
ATOM     32  O   UNL     1      35.003 -19.676 -22.222  0.00  0.00    -0.465 OA
ATOM     33  C   UNL     1      34.124 -20.168 -21.213  0.00  0.00    +0.253 C 
ENDBRANCH  27  32
ENDBRANCH   2  22
TORSDOF 5
ENDMDL
MODEL 8
REMARK VINA RESULT:      -9.1      5.815      9.780
REMARK  Name = 24941243
REMARK  5 active torsions:
REMARK  status: ('A' for Active; 'I' for Inactive)
REMARK    1  A    between atoms: N_1  and  C_14
REMARK    2  A    between atoms: N_2  and  C_22
REMARK    3  A    between atoms: C_25  and  O_28
REMARK    4  A    between atoms: C_26  and  O_30
REMARK    5  A    between atoms: C_27  and  O_32
REMARK                            x       y       z     vdW  Elec       q    Type
REMARK                         _______ _______ _______ _____ _____    ______ ____
ROOT
ATOM      1  N   UNL     1      33.435  -9.702 -23.536  0.00  0.00    -0.260 N 
ATOM      2  N   UNL     1      34.828 -14.214 -23.282  0.00  0.00    -0.247 N 
ATOM      3  N   UNL     1      34.156 -11.970 -23.418  0.00  0.00    -0.322 NA
ATOM      4  N   UNL     1      32.757 -13.618 -22.352  0.00  0.00    -0.170 NA
ATOM      5  C   UNL     1      33.215 -11.044 -23.137  0.00  0.00    +0.201 C 
ATOM      6  C   UNL     1      34.455  -9.451 -24.560  0.00  0.00    +0.120 C 
ATOM      7  C   UNL     1      32.037 -11.324 -22.475  0.00  0.00    +0.070 C 
ATOM      8  C   UNL     1      33.866 -13.218 -23.004  0.00  0.00    +0.150 C 
ATOM      9  C   UNL     1      31.860 -12.641 -22.103  0.00  0.00    +0.116 C 
ATOM     10  H   UNL     1      35.621 -13.876 -23.758  0.00  0.00    +0.165 HD
ENDROOT
BRANCH   1  14
ATOM     11  N   UNL     1      32.156  -5.512 -19.771  0.00  0.00    -0.280 N 
ATOM     12  N   UNL     1      32.875  -6.651 -19.737  0.00  0.00    -0.173 NA
ATOM     13  C   UNL     1      31.935  -6.289 -21.773  0.00  0.00    +0.032 A 
ATOM     14  C   UNL     1      32.946  -8.541 -22.881  0.00  0.00    +0.055 C 
ATOM     15  C   UNL     1      32.760  -7.164 -20.974  0.00  0.00    +0.103 A 
ATOM     16  C   UNL     1      31.566  -5.245 -20.972  0.00  0.00    +0.053 A 
ATOM     17  C   UNL     1      33.298  -8.341 -21.528  0.00  0.00    +0.036 C 
ATOM     18  C   UNL     1      31.571  -6.457 -23.103  0.00  0.00    +0.004 C 
ATOM     19  C   UNL     1      32.123  -7.641 -23.630  0.00  0.00    +0.015 C 
ATOM     20  C   UNL     1      30.742  -4.045 -21.187  0.00  0.00    +0.051 C 
ATOM     21  H   UNL     1      32.062  -4.920 -18.990  0.00  0.00    +0.189 HD
ENDBRANCH   1  14
BRANCH   2  22
ATOM     22  C   UNL     1      34.876 -15.594 -23.011  0.00  0.00    +0.064 C 
ATOM     23  C   UNL     1      35.369 -16.048 -21.789  0.00  0.00    +0.055 C 
ATOM     24  C   UNL     1      34.426 -16.508 -23.965  0.00  0.00    +0.055 C 
ATOM     25  C   UNL     1      34.471 -17.875 -23.695  0.00  0.00    +0.177 C 
ATOM     26  C   UNL     1      35.414 -17.416 -21.520  0.00  0.00    +0.177 C 
ATOM     27  C   UNL     1      34.964 -18.330 -22.473  0.00  0.00    +0.206 C 
BRANCH  25  28
ATOM     28  O   UNL     1      34.029 -18.757 -24.635  0.00  0.00    -0.468 OA
ATOM     29  C   UNL     1      32.618 -18.864 -24.811  0.00  0.00    +0.253 C 
ENDBRANCH  25  28
BRANCH  26  30
ATOM     30  O   UNL     1      35.899 -17.846 -20.321  0.00  0.00    -0.468 OA
ATOM     31  C   UNL     1      37.187 -18.458 -20.325  0.00  0.00    +0.253 C 
ENDBRANCH  26  30
BRANCH  27  32
ATOM     32  O   UNL     1      35.009 -19.667 -22.210  0.00  0.00    -0.465 OA
ATOM     33  C   UNL     1      34.120 -20.160 -21.211  0.00  0.00    +0.253 C 
ENDBRANCH  27  32
ENDBRANCH   2  22
TORSDOF 5
ENDMDL
MODEL 9
REMARK VINA RESULT:      -8.5      8.886     15.093
REMARK  Name = 24941243
REMARK  5 active torsions:
REMARK  status: ('A' for Active; 'I' for Inactive)
REMARK    1  A    between atoms: N_1  and  C_14
REMARK    2  A    between atoms: N_2  and  C_22
REMARK    3  A    between atoms: C_25  and  O_28
REMARK    4  A    between atoms: C_26  and  O_30
REMARK    5  A    between atoms: C_27  and  O_32
REMARK                            x       y       z     vdW  Elec       q    Type
REMARK                         _______ _______ _______ _____ _____    ______ ____
ROOT
ATOM      1  N   UNL     1      32.769 -12.571 -22.108  0.00  0.00    -0.260 N 
ATOM      2  N   UNL     1      32.679  -7.891 -22.786  0.00  0.00    -0.247 N 
ATOM      3  N   UNL     1      32.713 -10.210 -22.430  0.00  0.00    -0.322 NA
ATOM      4  N   UNL     1      33.724  -9.245 -24.394  0.00  0.00    -0.170 NA
ATOM      5  C   UNL     1      33.090 -11.425 -22.881  0.00  0.00    +0.201 C 
ATOM      6  C   UNL     1      31.726 -12.437 -21.086  0.00  0.00    +0.120 C 
ATOM      7  C   UNL     1      33.776 -11.628 -24.060  0.00  0.00    +0.070 C 
ATOM      8  C   UNL     1      33.057  -9.180 -23.225  0.00  0.00    +0.150 C 
ATOM      9  C   UNL     1      34.069 -10.490 -24.783  0.00  0.00    +0.116 C 
ATOM     10  H   UNL     1      32.196  -7.892 -21.928  0.00  0.00    +0.165 HD
ENDROOT
BRANCH   1  14
ATOM     11  N   UNL     1      35.630 -17.454 -23.262  0.00  0.00    -0.280 N 
ATOM     12  N   UNL     1      34.977 -16.526 -23.988  0.00  0.00    -0.173 NA
ATOM     13  C   UNL     1      34.946 -16.057 -21.766  0.00  0.00    +0.032 A 
ATOM     14  C   UNL     1      33.517 -13.777 -22.047  0.00  0.00    +0.055 C 
ATOM     15  C   UNL     1      34.536 -15.635 -23.084  0.00  0.00    +0.103 A 
ATOM     16  C   UNL     1      35.642 -17.222 -21.917  0.00  0.00    +0.053 A 
ATOM     17  C   UNL     1      33.792 -14.452 -23.256  0.00  0.00    +0.036 C 
ATOM     18  C   UNL     1      34.693 -15.415 -20.560  0.00  0.00    +0.004 C 
ATOM     19  C   UNL     1      33.948 -14.237 -20.763  0.00  0.00    +0.015 C 
ATOM     20  C   UNL     1      36.309 -18.135 -20.974  0.00  0.00    +0.051 C 
ATOM     21  H   UNL     1      36.064 -18.239 -23.669  0.00  0.00    +0.189 HD
ENDBRANCH   1  14
BRANCH   2  22
ATOM     22  C   UNL     1      32.858  -6.608 -23.334  0.00  0.00    +0.064 C 
ATOM     23  C   UNL     1      34.028  -6.303 -24.028  0.00  0.00    +0.055 C 
ATOM     24  C   UNL     1      31.863  -5.640 -23.184  0.00  0.00    +0.055 C 
ATOM     25  C   UNL     1      32.040  -4.370 -23.730  0.00  0.00    +0.177 C 
ATOM     26  C   UNL     1      34.204  -5.031 -24.573  0.00  0.00    +0.177 C 
ATOM     27  C   UNL     1      33.210  -4.065 -24.425  0.00  0.00    +0.206 C 
BRANCH  25  28
ATOM     28  O   UNL     1      31.061  -3.434 -23.578  0.00  0.00    -0.468 OA
ATOM     29  C   UNL     1      31.221  -2.496 -22.516  0.00  0.00    +0.253 C 
ENDBRANCH  25  28
BRANCH  26  30
ATOM     30  O   UNL     1      35.353  -4.747 -25.249  0.00  0.00    -0.468 OA
ATOM     31  C   UNL     1      35.300  -4.810 -26.672  0.00  0.00    +0.253 C 
ENDBRANCH  26  30
BRANCH  27  32
ATOM     32  O   UNL     1      33.383  -2.821 -24.957  0.00  0.00    -0.465 OA
ATOM     33  C   UNL     1      32.705  -2.540 -26.179  0.00  0.00    +0.253 C 
ENDBRANCH  27  32
ENDBRANCH   2  22
TORSDOF 5
ENDMDL
