MODEL 1
REMARK VINA RESULT:     -12.0      0.000      0.000
REMARK  Name = 11314340
REMARK  7 active torsions:
REMARK  status: ('A' for Active; 'I' for Inactive)
REMARK    1  A    between atoms: C_2  and  C_10
REMARK    2  A    between atoms: C_3  and  O_18
REMARK    3  A    between atoms: O_18  and  C_19
REMARK    4  A    between atoms: C_19  and  C_20
REMARK    5  A    between atoms: C_20  and  N_21
REMARK    6  A    between atoms: C_20  and  C_25
REMARK    7  A    between atoms: C_25  and  C_26
REMARK                            x       y       z     vdW  Elec       q    Type
REMARK                         _______ _______ _______ _____ _____    ______ ____
ROOT
ATOM      1  N   UNL     1      33.823 -15.251 -25.189  0.00  0.00    -0.239 NA
ATOM      2  C   UNL     1      33.679 -13.703 -23.345  0.00  0.00    +0.022 C 
ATOM      3  C   UNL     1      34.931 -15.734 -23.096  0.00  0.00    +0.158 C 
ATOM      4  C   UNL     1      34.463 -14.537 -22.563  0.00  0.00    +0.040 C 
ATOM      5  C   UNL     1      33.387 -14.096 -24.638  0.00  0.00    +0.099 C 
ATOM      6  C   UNL     1      34.585 -16.042 -24.401  0.00  0.00    +0.136 C 
ENDROOT
BRANCH   2  10
ATOM      7  N   UNL     1      32.635  -8.127 -22.139  0.00  0.00    -0.280 N 
ATOM      8  N   UNL     1      31.807  -8.875 -21.382  0.00  0.00    -0.173 NA
ATOM      9  C   UNL     1      33.148 -10.147 -22.705  0.00  0.00    +0.032 A 
ATOM     10  C   UNL     1      33.175 -12.449 -22.818  0.00  0.00    +0.002 C 
ATOM     11  C   UNL     1      32.101 -10.146 -21.711  0.00  0.00    +0.102 A 
ATOM     12  C   UNL     1      33.737 -11.252 -23.305  0.00  0.00    +0.003 C 
ATOM     13  C   UNL     1      33.464  -8.841 -22.954  0.00  0.00    +0.053 A 
ATOM     14  C   UNL     1      32.136 -12.501 -21.835  0.00  0.00    +0.002 C 
ATOM     15  C   UNL     1      31.558 -11.356 -21.243  0.00  0.00    +0.021 C 
ATOM     16  C   UNL     1      34.433  -8.186 -23.849  0.00  0.00    +0.051 C 
ATOM     17  H   UNL     1      32.640  -7.143 -22.106  0.00  0.00    +0.189 HD
ENDBRANCH   2  10
BRANCH   3  18
ATOM     18  O   UNL     1      35.701 -16.572 -22.359  0.00  0.00    -0.476 OA
BRANCH  18  19
ATOM     19  C   UNL     1      35.665 -17.960 -22.694  0.00  0.00    +0.184 C 
BRANCH  19  20
ATOM     20  C   UNL     1      35.621 -18.814 -21.421  0.00  0.00    -0.017 C 
BRANCH  20  21
ATOM     21  N   UNL     1      35.848 -17.937 -20.269  0.00  0.00    +0.384 N 
ATOM     22  H   UNL     1      34.998 -17.883 -19.708  0.00  0.00    -0.089 HD
ATOM     23  H   UNL     1      36.100 -17.004 -20.596  0.00  0.00    -0.089 HD
ATOM     24  H   UNL     1      36.608 -18.313 -19.700  0.00  0.00    -0.089 HD
ENDBRANCH  20  21
BRANCH  20  25
ATOM     25  C   UNL     1      34.271 -19.535 -21.220  0.00  0.00    +0.008 C 
BRANCH  25  26
ATOM     26  C   UNL     1      34.241 -20.502 -20.061  0.00  0.00    -0.024 C 
ATOM     27  C   UNL     1      33.020 -20.883 -19.525  0.00  0.00    -0.004 C 
ATOM     28  C   UNL     1      35.434 -20.991 -19.552  0.00  0.00    -0.004 C 
ATOM     29  C   UNL     1      32.991 -21.776 -18.455  0.00  0.00    -0.000 C 
ATOM     30  C   UNL     1      35.405 -21.884 -18.481  0.00  0.00    -0.000 C 
ATOM     31  C   UNL     1      34.184 -22.276 -17.932  0.00  0.00    -0.000 C 
ENDBRANCH  25  26
ENDBRANCH  20  25
ENDBRANCH  19  20
ENDBRANCH  18  19
ENDBRANCH   3  18
TORSDOF 7
ENDMDL
MODEL 2
REMARK VINA RESULT:     -11.7      0.766      1.998
REMARK  Name = 11314340
REMARK  7 active torsions:
REMARK  status: ('A' for Active; 'I' for Inactive)
REMARK    1  A    between atoms: C_2  and  C_10
REMARK    2  A    between atoms: C_3  and  O_18
REMARK    3  A    between atoms: O_18  and  C_19
REMARK    4  A    between atoms: C_19  and  C_20
REMARK    5  A    between atoms: C_20  and  N_21
REMARK    6  A    between atoms: C_20  and  C_25
REMARK    7  A    between atoms: C_25  and  C_26
REMARK                            x       y       z     vdW  Elec       q    Type
REMARK                         _______ _______ _______ _____ _____    ______ ____
ROOT
ATOM      1  N   UNL     1      33.648 -14.734 -25.340  0.00  0.00    -0.239 NA
ATOM      2  C   UNL     1      33.711 -13.026 -23.639  0.00  0.00    +0.022 C 
ATOM      3  C   UNL     1      34.513 -15.230 -23.138  0.00  0.00    +0.158 C 
ATOM      4  C   UNL     1      34.265 -13.921 -22.737  0.00  0.00    +0.040 C 
ATOM      5  C   UNL     1      33.421 -13.470 -24.915  0.00  0.00    +0.099 C 
ATOM      6  C   UNL     1      34.188 -15.583 -24.438  0.00  0.00    +0.136 C 
ENDROOT
BRANCH   2  10
ATOM      7  N   UNL     1      31.968  -8.175 -20.979  0.00  0.00    -0.280 N 
ATOM      8  N   UNL     1      32.638  -7.817 -22.093  0.00  0.00    -0.173 NA
ATOM      9  C   UNL     1      32.539 -10.073 -21.836  0.00  0.00    +0.032 A 
ATOM     10  C   UNL     1      33.439 -11.654 -23.251  0.00  0.00    +0.002 C 
ATOM     11  C   UNL     1      33.010  -8.981 -22.655  0.00  0.00    +0.102 A 
ATOM     12  C   UNL     1      32.711 -11.431 -22.066  0.00  0.00    +0.003 C 
ATOM     13  C   UNL     1      31.878  -9.521 -20.776  0.00  0.00    +0.053 A 
ATOM     14  C   UNL     1      33.929 -10.607 -24.095  0.00  0.00    +0.002 C 
ATOM     15  C   UNL     1      33.735  -9.233 -23.834  0.00  0.00    +0.021 C 
ATOM     16  C   UNL     1      31.182 -10.089 -19.609  0.00  0.00    +0.051 C 
ATOM     17  H   UNL     1      31.576  -7.516 -20.362  0.00  0.00    +0.189 HD
ENDBRANCH   2  10
BRANCH   3  18
ATOM     18  O   UNL     1      35.056 -16.131 -22.282  0.00  0.00    -0.476 OA
BRANCH  18  19
ATOM     19  C   UNL     1      35.341 -17.433 -22.796  0.00  0.00    +0.184 C 
BRANCH  19  20
ATOM     20  C   UNL     1      35.483 -18.438 -21.647  0.00  0.00    -0.017 C 
BRANCH  20  21
ATOM     21  N   UNL     1      35.616 -17.691 -20.393  0.00  0.00    +0.384 N 
ATOM     22  H   UNL     1      34.998 -18.094 -19.690  0.00  0.00    -0.089 HD
ATOM     23  H   UNL     1      35.363 -16.715 -20.551  0.00  0.00    -0.089 HD
ATOM     24  H   UNL     1      36.582 -17.743 -20.067  0.00  0.00    -0.089 HD
ENDBRANCH  20  21
BRANCH  20  25
ATOM     25  C   UNL     1      34.274 -19.389 -21.517  0.00  0.00    +0.008 C 
BRANCH  25  26
ATOM     26  C   UNL     1      34.339 -20.332 -20.341  0.00  0.00    -0.024 C 
ATOM     27  C   UNL     1      35.576 -20.754 -19.875  0.00  0.00    -0.004 C 
ATOM     28  C   UNL     1      33.162 -20.761 -19.747  0.00  0.00    -0.004 C 
ATOM     29  C   UNL     1      35.636 -21.626 -18.789  0.00  0.00    -0.000 C 
ATOM     30  C   UNL     1      33.224 -21.633 -18.659  0.00  0.00    -0.000 C 
ATOM     31  C   UNL     1      34.460 -22.066 -18.181  0.00  0.00    -0.000 C 
ENDBRANCH  25  26
ENDBRANCH  20  25
ENDBRANCH  19  20
ENDBRANCH  18  19
ENDBRANCH   3  18
TORSDOF 7
ENDMDL
MODEL 3
REMARK VINA RESULT:     -11.0      3.563      7.036
REMARK  Name = 11314340
REMARK  7 active torsions:
REMARK  status: ('A' for Active; 'I' for Inactive)
REMARK    1  A    between atoms: C_2  and  C_10
REMARK    2  A    between atoms: C_3  and  O_18
REMARK    3  A    between atoms: O_18  and  C_19
REMARK    4  A    between atoms: C_19  and  C_20
REMARK    5  A    between atoms: C_20  and  N_21
REMARK    6  A    between atoms: C_20  and  C_25
REMARK    7  A    between atoms: C_25  and  C_26
REMARK                            x       y       z     vdW  Elec       q    Type
REMARK                         _______ _______ _______ _____ _____    ______ ____
ROOT
ATOM      1  N   UNL     1      37.280 -19.983 -19.145  0.00  0.00    -0.239 NA
ATOM      2  C   UNL     1      35.603 -19.530 -20.817  0.00  0.00    +0.022 C 
ATOM      3  C   UNL     1      35.296 -21.355 -19.292  0.00  0.00    +0.158 C 
ATOM      4  C   UNL     1      34.839 -20.593 -20.362  0.00  0.00    +0.040 C 
ATOM      5  C   UNL     1      36.804 -19.264 -20.186  0.00  0.00    +0.099 C 
ATOM      6  C   UNL     1      36.512 -21.013 -18.724  0.00  0.00    +0.136 C 
ENDROOT
BRANCH   2  10
ATOM      7  N   UNL     1      34.032 -15.203 -24.345  0.00  0.00    -0.280 N 
ATOM      8  N   UNL     1      33.900 -16.359 -25.026  0.00  0.00    -0.173 NA
ATOM      9  C   UNL     1      34.649 -16.689 -22.906  0.00  0.00    +0.032 A 
ATOM     10  C   UNL     1      35.154 -18.716 -21.932  0.00  0.00    +0.002 C 
ATOM     11  C   UNL     1      34.278 -17.312 -24.155  0.00  0.00    +0.102 A 
ATOM     12  C   UNL     1      35.095 -17.321 -21.752  0.00  0.00    +0.003 C 
ATOM     13  C   UNL     1      34.480 -15.343 -23.064  0.00  0.00    +0.053 A 
ATOM     14  C   UNL     1      34.798 -19.380 -23.148  0.00  0.00    +0.002 C 
ATOM     15  C   UNL     1      34.347 -18.708 -24.306  0.00  0.00    +0.021 C 
ATOM     16  C   UNL     1      34.683 -14.185 -22.177  0.00  0.00    +0.051 C 
ATOM     17  H   UNL     1      33.822 -14.327 -24.742  0.00  0.00    +0.189 HD
ENDBRANCH   2  10
BRANCH   3  18
ATOM     18  O   UNL     1      34.573 -22.402 -18.821  0.00  0.00    -0.476 OA
BRANCH  18  19
ATOM     19  C   UNL     1      33.225 -22.140 -18.424  0.00  0.00    +0.184 C 
BRANCH  19  20
ATOM     20  C   UNL     1      32.828 -23.055 -17.260  0.00  0.00    -0.017 C 
BRANCH  20  21
ATOM     21  N   UNL     1      33.926 -23.073 -16.289  0.00  0.00    +0.384 N 
ATOM     22  H   UNL     1      33.567 -22.844 -15.363  0.00  0.00    -0.089 HD
ATOM     23  H   UNL     1      34.631 -22.385 -16.561  0.00  0.00    -0.089 HD
ATOM     24  H   UNL     1      34.349 -24.002 -16.271  0.00  0.00    -0.089 HD
ENDBRANCH  20  21
BRANCH  20  25
ATOM     25  C   UNL     1      31.549 -22.591 -16.531  0.00  0.00    +0.008 C 
BRANCH  25  26
ATOM     26  C   UNL     1      31.264 -23.314 -15.237  0.00  0.00    -0.024 C 
ATOM     27  C   UNL     1      31.668 -22.746 -14.038  0.00  0.00    -0.004 C 
ATOM     28  C   UNL     1      30.603 -24.532 -15.269  0.00  0.00    -0.004 C 
ATOM     29  C   UNL     1      31.405 -23.413 -12.842  0.00  0.00    -0.000 C 
ATOM     30  C   UNL     1      30.341 -25.199 -14.072  0.00  0.00    -0.000 C 
ATOM     31  C   UNL     1      30.741 -24.640 -12.859  0.00  0.00    -0.000 C 
ENDBRANCH  25  26
ENDBRANCH  20  25
ENDBRANCH  19  20
ENDBRANCH  18  19
ENDBRANCH   3  18
TORSDOF 7
ENDMDL
MODEL 4
REMARK VINA RESULT:     -10.8      5.808     12.595
REMARK  Name = 11314340
REMARK  7 active torsions:
REMARK  status: ('A' for Active; 'I' for Inactive)
REMARK    1  A    between atoms: C_2  and  C_10
REMARK    2  A    between atoms: C_3  and  O_18
REMARK    3  A    between atoms: O_18  and  C_19
REMARK    4  A    between atoms: C_19  and  C_20
REMARK    5  A    between atoms: C_20  and  N_21
REMARK    6  A    between atoms: C_20  and  C_25
REMARK    7  A    between atoms: C_25  and  C_26
REMARK                            x       y       z     vdW  Elec       q    Type
REMARK                         _______ _______ _______ _____ _____    ______ ____
ROOT
ATOM      1  N   UNL     1      31.471 -23.332 -14.896  0.00  0.00    -0.239 NA
ATOM      2  C   UNL     1      33.880 -23.393 -14.980  0.00  0.00    +0.022 C 
ATOM      3  C   UNL     1      32.637 -22.870 -16.963  0.00  0.00    +0.158 C 
ATOM      4  C   UNL     1      33.858 -23.066 -16.327  0.00  0.00    +0.040 C 
ATOM      5  C   UNL     1      32.676 -23.514 -14.312  0.00  0.00    +0.099 C 
ATOM      6  C   UNL     1      31.483 -23.014 -16.210  0.00  0.00    +0.136 C 
ENDROOT
BRANCH   2  10
ATOM      7  N   UNL     1      38.050 -24.369 -11.070  0.00  0.00    -0.280 N 
ATOM      8  N   UNL     1      38.641 -24.210 -12.271  0.00  0.00    -0.173 NA
ATOM      9  C   UNL     1      36.379 -24.020 -12.391  0.00  0.00    +0.032 A 
ATOM     10  C   UNL     1      35.138 -23.604 -14.288  0.00  0.00    +0.002 C 
ATOM     11  C   UNL     1      37.623 -23.989 -13.123  0.00  0.00    +0.102 A 
ATOM     12  C   UNL     1      35.100 -23.836 -12.899  0.00  0.00    +0.003 C 
ATOM     13  C   UNL     1      36.690 -24.264 -11.083  0.00  0.00    +0.053 A 
ATOM     14  C   UNL     1      36.343 -23.566 -15.058  0.00  0.00    +0.002 C 
ATOM     15  C   UNL     1      37.632 -23.756 -14.510  0.00  0.00    +0.021 C 
ATOM     16  C   UNL     1      35.884 -24.411  -9.860  0.00  0.00    +0.051 C 
ATOM     17  H   UNL     1      38.561 -24.547 -10.247  0.00  0.00    +0.189 HD
ENDBRANCH   2  10
BRANCH   3  18
ATOM     18  O   UNL     1      32.579 -22.548 -18.279  0.00  0.00    -0.476 OA
BRANCH  18  19
ATOM     19  C   UNL     1      33.819 -22.339 -18.957  0.00  0.00    +0.184 C 
BRANCH  19  20
ATOM     20  C   UNL     1      33.687 -21.191 -19.964  0.00  0.00    -0.017 C 
BRANCH  20  21
ATOM     21  N   UNL     1      32.494 -20.410 -19.622  0.00  0.00    +0.384 N 
ATOM     22  H   UNL     1      32.763 -19.447 -19.423  0.00  0.00    -0.089 HD
ATOM     23  H   UNL     1      32.047 -20.816 -18.799  0.00  0.00    -0.089 HD
ATOM     24  H   UNL     1      31.841 -20.427 -20.406  0.00  0.00    -0.089 HD
ENDBRANCH  20  21
BRANCH  20  25
ATOM     25  C   UNL     1      34.902 -20.239 -19.964  0.00  0.00    +0.008 C 
BRANCH  25  26
ATOM     26  C   UNL     1      34.942 -19.268 -21.119  0.00  0.00    -0.024 C 
ATOM     27  C   UNL     1      35.474 -18.002 -20.925  0.00  0.00    -0.004 C 
ATOM     28  C   UNL     1      34.447 -19.659 -22.353  0.00  0.00    -0.004 C 
ATOM     29  C   UNL     1      35.511 -17.105 -21.991  0.00  0.00    -0.000 C 
ATOM     30  C   UNL     1      34.484 -18.760 -23.420  0.00  0.00    -0.000 C 
ATOM     31  C   UNL     1      35.015 -17.484 -23.239  0.00  0.00    -0.000 C 
ENDBRANCH  25  26
ENDBRANCH  20  25
ENDBRANCH  19  20
ENDBRANCH  18  19
ENDBRANCH   3  18
TORSDOF 7
ENDMDL
MODEL 5
REMARK VINA RESULT:     -10.7      3.347     10.641
REMARK  Name = 11314340
REMARK  7 active torsions:
REMARK  status: ('A' for Active; 'I' for Inactive)
REMARK    1  A    between atoms: C_2  and  C_10
REMARK    2  A    between atoms: C_3  and  O_18
REMARK    3  A    between atoms: O_18  and  C_19
REMARK    4  A    between atoms: C_19  and  C_20
REMARK    5  A    between atoms: C_20  and  N_21
REMARK    6  A    between atoms: C_20  and  C_25
REMARK    7  A    between atoms: C_25  and  C_26
REMARK                            x       y       z     vdW  Elec       q    Type
REMARK                         _______ _______ _______ _____ _____    ______ ____
ROOT
ATOM      1  N   UNL     1      31.619 -11.476 -19.951  0.00  0.00    -0.239 NA
ATOM      2  C   UNL     1      32.689 -12.259 -21.965  0.00  0.00    +0.022 C 
ATOM      3  C   UNL     1      32.071  -9.950 -21.770  0.00  0.00    +0.158 C 
ATOM      4  C   UNL     1      32.635 -10.985 -22.509  0.00  0.00    +0.040 C 
ATOM      5  C   UNL     1      32.175 -12.457 -20.698  0.00  0.00    +0.099 C 
ATOM      6  C   UNL     1      31.581 -10.245 -20.509  0.00  0.00    +0.136 C 
ENDROOT
BRANCH   2  10
ATOM      7  N   UNL     1      35.380 -17.119 -23.632  0.00  0.00    -0.280 N 
ATOM      8  N   UNL     1      34.931 -16.495 -24.740  0.00  0.00    -0.173 NA
ATOM      9  C   UNL     1      34.417 -15.355 -22.842  0.00  0.00    +0.032 A 
ATOM     10  C   UNL     1      33.271 -13.361 -22.710  0.00  0.00    +0.002 C 
ATOM     11  C   UNL     1      34.323 -15.386 -24.282  0.00  0.00    +0.102 A 
ATOM     12  C   UNL     1      33.919 -14.381 -21.988  0.00  0.00    +0.003 C 
ATOM     13  C   UNL     1      35.098 -16.477 -22.462  0.00  0.00    +0.053 A 
ATOM     14  C   UNL     1      33.149 -13.345 -24.136  0.00  0.00    +0.002 C 
ATOM     15  C   UNL     1      33.669 -14.353 -24.979  0.00  0.00    +0.021 C 
ATOM     16  C   UNL     1      35.513 -17.017 -21.156  0.00  0.00    +0.051 C 
ATOM     17  H   UNL     1      35.872 -17.971 -23.666  0.00  0.00    +0.189 HD
ENDBRANCH   2  10
BRANCH   3  18
ATOM     18  O   UNL     1      32.004  -8.691 -22.272  0.00  0.00    -0.476 OA
BRANCH  18  19
ATOM     19  C   UNL     1      31.614  -7.650 -21.376  0.00  0.00    +0.184 C 
BRANCH  19  20
ATOM     20  C   UNL     1      32.818  -6.764 -21.034  0.00  0.00    -0.017 C 
BRANCH  20  21
ATOM     21  N   UNL     1      33.328  -7.165 -19.720  0.00  0.00    +0.384 N 
ATOM     22  H   UNL     1      34.265  -6.785 -19.587  0.00  0.00    -0.089 HD
ATOM     23  H   UNL     1      33.363  -8.183 -19.665  0.00  0.00    -0.089 HD
ATOM     24  H   UNL     1      32.709  -6.807 -18.991  0.00  0.00    -0.089 HD
ENDBRANCH  20  21
BRANCH  20  25
ATOM     25  C   UNL     1      33.969  -6.882 -22.055  0.00  0.00    +0.008 C 
BRANCH  25  26
ATOM     26  C   UNL     1      33.894  -5.906 -23.204  0.00  0.00    -0.024 C 
ATOM     27  C   UNL     1      32.885  -4.954 -23.222  0.00  0.00    -0.004 C 
ATOM     28  C   UNL     1      34.834  -5.978 -24.220  0.00  0.00    -0.004 C 
ATOM     29  C   UNL     1      32.815  -4.052 -24.283  0.00  0.00    -0.000 C 
ATOM     30  C   UNL     1      34.763  -5.075 -25.282  0.00  0.00    -0.000 C 
ATOM     31  C   UNL     1      33.754  -4.112 -25.313  0.00  0.00    -0.000 C 
ENDBRANCH  25  26
ENDBRANCH  20  25
ENDBRANCH  19  20
ENDBRANCH  18  19
ENDBRANCH   3  18
TORSDOF 7
ENDMDL
MODEL 6
REMARK VINA RESULT:     -10.6      4.309     11.287
REMARK  Name = 11314340
REMARK  7 active torsions:
REMARK  status: ('A' for Active; 'I' for Inactive)
REMARK    1  A    between atoms: C_2  and  C_10
REMARK    2  A    between atoms: C_3  and  O_18
REMARK    3  A    between atoms: O_18  and  C_19
REMARK    4  A    between atoms: C_19  and  C_20
REMARK    5  A    between atoms: C_20  and  N_21
REMARK    6  A    between atoms: C_20  and  C_25
REMARK    7  A    between atoms: C_25  and  C_26
REMARK                            x       y       z     vdW  Elec       q    Type
REMARK                         _______ _______ _______ _____ _____    ______ ____
ROOT
ATOM      1  N   UNL     1      32.581 -22.103 -18.637  0.00  0.00    -0.239 NA
ATOM      2  C   UNL     1      34.744 -22.065 -17.573  0.00  0.00    +0.022 C 
ATOM      3  C   UNL     1      34.428 -20.927 -19.660  0.00  0.00    +0.158 C 
ATOM      4  C   UNL     1      35.257 -21.295 -18.606  0.00  0.00    +0.040 C 
ATOM      5  C   UNL     1      33.416 -22.441 -17.629  0.00  0.00    +0.099 C 
ATOM      6  C   UNL     1      33.111 -21.353 -19.629  0.00  0.00    +0.136 C 
ENDROOT
BRANCH   2  10
ATOM      7  N   UNL     1      36.842 -24.068 -12.550  0.00  0.00    -0.280 N 
ATOM      8  N   UNL     1      37.882 -23.623 -13.283  0.00  0.00    -0.173 NA
ATOM      9  C   UNL     1      35.898 -23.368 -14.361  0.00  0.00    +0.032 A 
ATOM     10  C   UNL     1      35.583 -22.466 -16.459  0.00  0.00    +0.002 C 
ATOM     11  C   UNL     1      37.327 -23.176 -14.425  0.00  0.00    +0.102 A 
ATOM     12  C   UNL     1      34.961 -23.039 -15.333  0.00  0.00    +0.003 C 
ATOM     13  C   UNL     1      35.624 -23.939 -13.151  0.00  0.00    +0.053 A 
ATOM     14  C   UNL     1      36.995 -22.256 -16.571  0.00  0.00    +0.002 C 
ATOM     15  C   UNL     1      37.922 -22.601 -15.562  0.00  0.00    +0.021 C 
ATOM     16  C   UNL     1      34.380 -24.375 -12.494  0.00  0.00    +0.051 C 
ATOM     17  H   UNL     1      36.954 -24.457 -11.653  0.00  0.00    +0.189 HD
ENDBRANCH   2  10
BRANCH   3  18
ATOM     18  O   UNL     1      34.897 -20.174 -20.686  0.00  0.00    -0.476 OA
BRANCH  18  19
ATOM     19  C   UNL     1      36.266 -19.767 -20.628  0.00  0.00    +0.184 C 
BRANCH  19  20
ATOM     20  C   UNL     1      36.465 -18.461 -21.406  0.00  0.00    -0.017 C 
BRANCH  20  21
ATOM     21  N   UNL     1      37.880 -18.355 -21.776  0.00  0.00    +0.384 N 
ATOM     22  H   UNL     1      38.126 -17.374 -21.902  0.00  0.00    -0.089 HD
ATOM     23  H   UNL     1      38.042 -18.862 -22.647  0.00  0.00    -0.089 HD
ATOM     24  H   UNL     1      38.456 -18.758 -21.036  0.00  0.00    -0.089 HD
ENDBRANCH  20  21
BRANCH  20  25
ATOM     25  C   UNL     1      35.622 -18.386 -22.696  0.00  0.00    +0.008 C 
BRANCH  25  26
ATOM     26  C   UNL     1      35.044 -17.024 -22.992  0.00  0.00    -0.024 C 
ATOM     27  C   UNL     1      35.054 -16.052 -22.003  0.00  0.00    -0.004 C 
ATOM     28  C   UNL     1      34.514 -16.768 -24.247  0.00  0.00    -0.004 C 
ATOM     29  C   UNL     1      34.520 -14.793 -22.276  0.00  0.00    -0.000 C 
ATOM     30  C   UNL     1      33.980 -15.508 -24.520  0.00  0.00    -0.000 C 
ATOM     31  C   UNL     1      33.983 -14.521 -23.535  0.00  0.00    -0.000 C 
ENDBRANCH  25  26
ENDBRANCH  20  25
ENDBRANCH  19  20
ENDBRANCH  18  19
ENDBRANCH   3  18
TORSDOF 7
ENDMDL
MODEL 7
REMARK VINA RESULT:     -10.6      4.872     11.424
REMARK  Name = 11314340
REMARK  7 active torsions:
REMARK  status: ('A' for Active; 'I' for Inactive)
REMARK    1  A    between atoms: C_2  and  C_10
REMARK    2  A    between atoms: C_3  and  O_18
REMARK    3  A    between atoms: O_18  and  C_19
REMARK    4  A    between atoms: C_19  and  C_20
REMARK    5  A    between atoms: C_20  and  N_21
REMARK    6  A    between atoms: C_20  and  C_25
REMARK    7  A    between atoms: C_25  and  C_26
REMARK                            x       y       z     vdW  Elec       q    Type
REMARK                         _______ _______ _______ _____ _____    ______ ____
ROOT
ATOM      1  N   UNL     1      36.877 -22.072 -16.384  0.00  0.00    -0.239 NA
ATOM      2  C   UNL     1      34.561 -22.739 -16.320  0.00  0.00    +0.022 C 
ATOM      3  C   UNL     1      35.488 -21.863 -18.351  0.00  0.00    +0.158 C 
ATOM      4  C   UNL     1      34.403 -22.379 -17.649  0.00  0.00    +0.040 C 
ATOM      5  C   UNL     1      35.801 -22.570 -15.735  0.00  0.00    +0.099 C 
ATOM      6  C   UNL     1      36.691 -21.730 -17.679  0.00  0.00    +0.136 C 
ENDROOT
BRANCH   2  10
ATOM      7  N   UNL     1      29.339 -24.277 -14.320  0.00  0.00    -0.280 N 
ATOM      8  N   UNL     1      30.266 -24.772 -13.475  0.00  0.00    -0.173 NA
ATOM      9  C   UNL     1      31.198 -23.623 -15.200  0.00  0.00    +0.032 A 
ATOM     10  C   UNL     1      33.449 -23.280 -15.560  0.00  0.00    +0.002 C 
ATOM     11  C   UNL     1      31.443 -24.381 -13.996  0.00  0.00    +0.102 A 
ATOM     12  C   UNL     1      32.144 -23.041 -16.034  0.00  0.00    +0.003 C 
ATOM     13  C   UNL     1      29.844 -23.577 -15.376  0.00  0.00    +0.053 A 
ATOM     14  C   UNL     1      33.744 -24.025 -14.375  0.00  0.00    +0.002 C 
ATOM     15  C   UNL     1      32.757 -24.604 -13.546  0.00  0.00    +0.021 C 
ATOM     16  C   UNL     1      28.975 -22.968 -16.397  0.00  0.00    +0.051 C 
ATOM     17  H   UNL     1      28.373 -24.412 -14.185  0.00  0.00    +0.189 HD
ENDBRANCH   2  10
BRANCH   3  18
ATOM     18  O   UNL     1      35.369 -21.502 -19.653  0.00  0.00    -0.476 OA
BRANCH  18  19
ATOM     19  C   UNL     1      34.463 -20.441 -19.958  0.00  0.00    +0.184 C 
BRANCH  19  20
ATOM     20  C   UNL     1      35.210 -19.279 -20.623  0.00  0.00    -0.017 C 
BRANCH  20  21
ATOM     21  N   UNL     1      36.612 -19.327 -20.198  0.00  0.00    +0.384 N 
ATOM     22  H   UNL     1      36.664 -19.650 -19.232  0.00  0.00    -0.089 HD
ATOM     23  H   UNL     1      37.021 -18.395 -20.268  0.00  0.00    -0.089 HD
ATOM     24  H   UNL     1      37.128 -19.970 -20.800  0.00  0.00    -0.089 HD
ENDBRANCH  20  21
BRANCH  20  25
ATOM     25  C   UNL     1      35.171 -19.333 -22.165  0.00  0.00    +0.008 C 
BRANCH  25  26
ATOM     26  C   UNL     1      34.884 -18.011 -22.834  0.00  0.00    -0.024 C 
ATOM     27  C   UNL     1      35.269 -16.835 -22.209  0.00  0.00    -0.004 C 
ATOM     28  C   UNL     1      34.242 -17.996 -24.063  0.00  0.00    -0.004 C 
ATOM     29  C   UNL     1      35.004 -15.614 -22.827  0.00  0.00    -0.000 C 
ATOM     30  C   UNL     1      33.978 -16.774 -24.681  0.00  0.00    -0.000 C 
ATOM     31  C   UNL     1      34.358 -15.583 -24.063  0.00  0.00    -0.000 C 
ENDBRANCH  25  26
ENDBRANCH  20  25
ENDBRANCH  19  20
ENDBRANCH  18  19
ENDBRANCH   3  18
TORSDOF 7
ENDMDL
MODEL 8
REMARK VINA RESULT:     -10.5      6.135      9.366
REMARK  Name = 11314340
REMARK  7 active torsions:
REMARK  status: ('A' for Active; 'I' for Inactive)
REMARK    1  A    between atoms: C_2  and  C_10
REMARK    2  A    between atoms: C_3  and  O_18
REMARK    3  A    between atoms: O_18  and  C_19
REMARK    4  A    between atoms: C_19  and  C_20
REMARK    5  A    between atoms: C_20  and  N_21
REMARK    6  A    between atoms: C_20  and  C_25
REMARK    7  A    between atoms: C_25  and  C_26
REMARK                            x       y       z     vdW  Elec       q    Type
REMARK                         _______ _______ _______ _____ _____    ______ ____
ROOT
ATOM      1  N   UNL     1      32.066 -22.372 -17.919  0.00  0.00    -0.239 NA
ATOM      2  C   UNL     1      34.243 -21.582 -18.591  0.00  0.00    +0.022 C 
ATOM      3  C   UNL     1      34.055 -23.147 -16.784  0.00  0.00    +0.158 C 
ATOM      4  C   UNL     1      34.845 -22.358 -17.613  0.00  0.00    +0.040 C 
ATOM      5  C   UNL     1      32.866 -21.619 -18.706  0.00  0.00    +0.099 C 
ATOM      6  C   UNL     1      32.683 -23.118 -16.975  0.00  0.00    +0.136 C 
ENDROOT
BRANCH   2  10
ATOM      7  N   UNL     1      36.219 -18.223 -22.887  0.00  0.00    -0.280 N 
ATOM      8  N   UNL     1      37.220 -18.392 -22.001  0.00  0.00    -0.173 NA
ATOM      9  C   UNL     1      35.326 -19.478 -21.374  0.00  0.00    +0.032 A 
ATOM     10  C   UNL     1      35.040 -20.748 -19.472  0.00  0.00    +0.002 C 
ATOM     11  C   UNL     1      36.696 -19.174 -21.040  0.00  0.00    +0.102 A 
ATOM     12  C   UNL     1      34.435 -20.255 -20.645  0.00  0.00    +0.003 C 
ATOM     13  C   UNL     1      35.054 -18.855 -22.559  0.00  0.00    +0.053 A 
ATOM     14  C   UNL     1      36.393 -20.474 -19.096  0.00  0.00    +0.002 C 
ATOM     15  C   UNL     1      37.275 -19.679 -19.861  0.00  0.00    +0.021 C 
ATOM     16  C   UNL     1      33.857 -18.777 -23.413  0.00  0.00    +0.051 C 
ATOM     17  H   UNL     1      36.319 -17.685 -23.705  0.00  0.00    +0.189 HD
ENDBRANCH   2  10
BRANCH   3  18
ATOM     18  O   UNL     1      34.611 -23.919 -15.818  0.00  0.00    -0.476 OA
BRANCH  18  19
ATOM     19  C   UNL     1      34.650 -23.385 -14.493  0.00  0.00    +0.184 C 
BRANCH  19  20
ATOM     20  C   UNL     1      33.741 -24.199 -13.565  0.00  0.00    -0.017 C 
BRANCH  20  21
ATOM     21  N   UNL     1      34.521 -24.604 -12.392  0.00  0.00    +0.384 N 
ATOM     22  H   UNL     1      34.614 -25.619 -12.379  0.00  0.00    -0.089 HD
ATOM     23  H   UNL     1      34.044 -24.295 -11.544  0.00  0.00    -0.089 HD
ATOM     24  H   UNL     1      35.447 -24.178 -12.436  0.00  0.00    -0.089 HD
ENDBRANCH  20  21
BRANCH  20  25
ATOM     25  C   UNL     1      32.508 -23.409 -13.076  0.00  0.00    +0.008 C 
BRANCH  25  26
ATOM     26  C   UNL     1      31.216 -23.767 -13.768  0.00  0.00    -0.024 C 
ATOM     27  C   UNL     1      30.437 -22.760 -14.318  0.00  0.00    -0.004 C 
ATOM     28  C   UNL     1      30.829 -25.096 -13.842  0.00  0.00    -0.004 C 
ATOM     29  C   UNL     1      29.243 -23.090 -14.957  0.00  0.00    -0.000 C 
ATOM     30  C   UNL     1      29.634 -25.426 -14.482  0.00  0.00    -0.000 C 
ATOM     31  C   UNL     1      28.841 -24.423 -15.039  0.00  0.00    -0.000 C 
ENDBRANCH  25  26
ENDBRANCH  20  25
ENDBRANCH  19  20
ENDBRANCH  18  19
ENDBRANCH   3  18
TORSDOF 7
ENDMDL
MODEL 9
REMARK VINA RESULT:     -10.5      1.361      2.000
REMARK  Name = 11314340
REMARK  7 active torsions:
REMARK  status: ('A' for Active; 'I' for Inactive)
REMARK    1  A    between atoms: C_2  and  C_10
REMARK    2  A    between atoms: C_3  and  O_18
REMARK    3  A    between atoms: O_18  and  C_19
REMARK    4  A    between atoms: C_19  and  C_20
REMARK    5  A    between atoms: C_20  and  N_21
REMARK    6  A    between atoms: C_20  and  C_25
REMARK    7  A    between atoms: C_25  and  C_26
REMARK                            x       y       z     vdW  Elec       q    Type
REMARK                         _______ _______ _______ _____ _____    ______ ____
ROOT
ATOM      1  N   UNL     1      33.716 -13.357 -25.561  0.00  0.00    -0.239 NA
ATOM      2  C   UNL     1      33.372 -12.158 -23.498  0.00  0.00    +0.022 C 
ATOM      3  C   UNL     1      33.979 -14.477 -23.435  0.00  0.00    +0.158 C 
ATOM      4  C   UNL     1      33.661 -13.300 -22.767  0.00  0.00    +0.040 C 
ATOM      5  C   UNL     1      33.411 -12.231 -24.877  0.00  0.00    +0.099 C 
ATOM      6  C   UNL     1      33.992 -14.454 -24.820  0.00  0.00    +0.136 C 
ENDROOT
BRANCH   2  10
ATOM      7  N   UNL     1      32.960  -6.637 -21.770  0.00  0.00    -0.280 N 
ATOM      8  N   UNL     1      32.136  -7.373 -20.998  0.00  0.00    -0.173 NA
ATOM      9  C   UNL     1      33.232  -8.636 -22.536  0.00  0.00    +0.032 A 
ATOM     10  C   UNL     1      33.035 -10.914 -22.830  0.00  0.00    +0.002 C 
ATOM     11  C   UNL     1      32.281  -8.631 -21.451  0.00  0.00    +0.102 A 
ATOM     12  C   UNL     1      33.661  -9.733 -23.273  0.00  0.00    +0.003 C 
ATOM     13  C   UNL     1      33.645  -7.346 -22.713  0.00  0.00    +0.053 A 
ATOM     14  C   UNL     1      32.086 -10.962 -21.760  0.00  0.00    +0.002 C 
ATOM     15  C   UNL     1      31.671  -9.826 -21.028  0.00  0.00    +0.021 C 
ATOM     16  C   UNL     1      34.588  -6.702 -23.642  0.00  0.00    +0.051 C 
ATOM     17  H   UNL     1      33.059  -5.663 -21.662  0.00  0.00    +0.189 HD
ENDBRANCH   2  10
BRANCH   3  18
ATOM     18  O   UNL     1      34.268 -15.612 -22.751  0.00  0.00    -0.476 OA
BRANCH  18  19
ATOM     19  C   UNL     1      35.043 -16.604 -23.426  0.00  0.00    +0.184 C 
BRANCH  19  20
ATOM     20  C   UNL     1      34.728 -17.996 -22.865  0.00  0.00    -0.017 C 
BRANCH  20  21
ATOM     21  N   UNL     1      34.606 -18.930 -23.988  0.00  0.00    +0.384 N 
ATOM     22  H   UNL     1      35.524 -19.089 -24.401  0.00  0.00    -0.089 HD
ATOM     23  H   UNL     1      33.980 -18.535 -24.691  0.00  0.00    -0.089 HD
ATOM     24  H   UNL     1      34.224 -19.816 -23.654  0.00  0.00    -0.089 HD
ENDBRANCH  20  21
BRANCH  20  25
ATOM     25  C   UNL     1      35.819 -18.529 -21.912  0.00  0.00    +0.008 C 
BRANCH  25  26
ATOM     26  C   UNL     1      35.334 -19.541 -20.903  0.00  0.00    -0.024 C 
ATOM     27  C   UNL     1      36.260 -20.242 -20.144  0.00  0.00    -0.004 C 
ATOM     28  C   UNL     1      33.972 -19.751 -20.751  0.00  0.00    -0.004 C 
ATOM     29  C   UNL     1      35.812 -21.177 -19.212  0.00  0.00    -0.000 C 
ATOM     30  C   UNL     1      33.525 -20.687 -19.818  0.00  0.00    -0.000 C 
ATOM     31  C   UNL     1      34.444 -21.400 -19.049  0.00  0.00    -0.000 C 
ENDBRANCH  25  26
ENDBRANCH  20  25
ENDBRANCH  19  20
ENDBRANCH  18  19
ENDBRANCH   3  18
TORSDOF 7
ENDMDL
