MODEL 1
REMARK VINA RESULT:     -11.9      0.000      0.000
REMARK  Name = 24752833
REMARK  4 active torsions:
REMARK  status: ('A' for Active; 'I' for Inactive)
REMARK    1  A    between atoms: C_1  and  N_8
REMARK    2  A    between atoms: C_2  and  N_23
REMARK    3  A    between atoms: C_9  and  C_14
REMARK    4  A    between atoms: C_24  and  C_28
REMARK                            x       y       z     vdW  Elec       q    Type
REMARK                         _______ _______ _______ _____ _____    ______ ____
ROOT
ATOM      1  C   UNL     1      31.778 -23.388 -14.626  0.00  0.00    +0.090 C 
ATOM      2  C   UNL     1      31.216 -23.400 -16.059  0.00  0.00    +0.090 C 
ATOM      3  C   UNL     1      30.889 -24.192 -13.672  0.00  0.00    +0.021 C 
ATOM      4  C   UNL     1      29.750 -22.957 -16.094  0.00  0.00    +0.021 C 
ATOM      5  C   UNL     1      29.436 -23.733 -13.718  0.00  0.00    +0.002 C 
ATOM      6  C   UNL     1      28.885 -23.774 -15.139  0.00  0.00    +0.002 C 
ENDROOT
BRANCH   1   8
ATOM      7  O   UNL     1      33.457 -23.650 -12.311  0.00  0.00    -0.267 OA
ATOM      8  N   UNL     1      33.129 -23.906 -14.592  0.00  0.00    -0.298 N 
ATOM      9  C   UNL     1      33.861 -23.993 -13.419  0.00  0.00    +0.282 C 
ATOM     10  H   UNL     1      33.543 -24.209 -15.433  0.00  0.00    +0.150 HD
BRANCH   9  14
ATOM     11  S   UNL     1      35.644 -25.583 -14.851  0.00  0.00    -0.074 S 
ATOM     12  N   UNL     1      39.462 -26.587 -13.902  0.00  0.00    +0.387 N 
ATOM     13  N   UNL     1      36.212 -24.224 -12.715  0.00  0.00    -0.399 NA
ATOM     14  C   UNL     1      35.242 -24.523 -13.555  0.00  0.00    +0.210 C 
ATOM     15  C   UNL     1      37.355 -24.874 -13.124  0.00  0.00    +0.093 C 
ATOM     16  C   UNL     1      37.231 -25.656 -14.252  0.00  0.00    +0.082 C 
ATOM     17  C   UNL     1      38.641 -24.770 -12.386  0.00  0.00    +0.032 C 
ATOM     18  C   UNL     1      38.352 -26.422 -14.871  0.00  0.00    -0.059 C 
ATOM     19  C   UNL     1      39.811 -25.307 -13.244  0.00  0.00    -0.070 C 
ATOM     20  C   UNL     1      40.632 -27.163 -14.563  0.00  0.00    -0.101 C 
ATOM     21  H   UNL     1      39.147 -27.226 -13.171  0.00  0.00    -0.080 HD
ENDBRANCH   9  14
ENDBRANCH   1   8
BRANCH   2  23
ATOM     22  O   UNL     1      33.400 -24.226 -17.730  0.00  0.00    -0.269 OA
ATOM     23  N   UNL     1      32.003 -22.557 -16.933  0.00  0.00    -0.300 N 
ATOM     24  C   UNL     1      33.042 -23.051 -17.703  0.00  0.00    +0.259 C 
ATOM     25  H   UNL     1      31.791 -21.597 -16.981  0.00  0.00    +0.150 HD
BRANCH  24  28
ATOM     26 CL   UNL     1      35.841 -17.575 -22.375  0.00  0.00    -0.082 Cl
ATOM     27  N   UNL     1      35.127 -21.883 -18.494  0.00  0.00    -0.309 N 
ATOM     28  C   UNL     1      33.769 -22.052 -18.528  0.00  0.00    +0.102 C 
ATOM     29  C   UNL     1      33.251 -21.152 -19.431  0.00  0.00    +0.020 C 
ATOM     30  C   UNL     1      35.502 -20.885 -19.365  0.00  0.00    +0.048 C 
ATOM     31  C   UNL     1      34.337 -20.406 -19.969  0.00  0.00    +0.016 C 
ATOM     32  C   UNL     1      36.771 -20.373 -19.660  0.00  0.00    +0.015 C 
ATOM     33  C   UNL     1      34.441 -19.367 -20.914  0.00  0.00    +0.013 C 
ATOM     34  C   UNL     1      35.704 -18.846 -21.221  0.00  0.00    +0.058 C 
ATOM     35  C   UNL     1      36.850 -19.343 -20.602  0.00  0.00    +0.013 C 
ATOM     36  H   UNL     1      35.745 -22.401 -17.931  0.00  0.00    +0.152 HD
ENDBRANCH  24  28
ENDBRANCH   2  23
TORSDOF 4
ENDMDL
MODEL 2
REMARK VINA RESULT:     -11.3      1.598      2.164
REMARK  Name = 24752833
REMARK  4 active torsions:
REMARK  status: ('A' for Active; 'I' for Inactive)
REMARK    1  A    between atoms: C_1  and  N_8
REMARK    2  A    between atoms: C_2  and  N_23
REMARK    3  A    between atoms: C_9  and  C_14
REMARK    4  A    between atoms: C_24  and  C_28
REMARK                            x       y       z     vdW  Elec       q    Type
REMARK                         _______ _______ _______ _____ _____    ______ ____
ROOT
ATOM      1  C   UNL     1      32.987 -24.196 -13.881  0.00  0.00    +0.090 C 
ATOM      2  C   UNL     1      32.119 -23.897 -15.117  0.00  0.00    +0.090 C 
ATOM      3  C   UNL     1      32.175 -24.895 -12.786  0.00  0.00    +0.021 C 
ATOM      4  C   UNL     1      30.844 -23.135 -14.740  0.00  0.00    +0.021 C 
ATOM      5  C   UNL     1      30.913 -24.119 -12.423  0.00  0.00    +0.002 C 
ATOM      6  C   UNL     1      30.052 -23.852 -13.652  0.00  0.00    +0.002 C 
ENDROOT
BRANCH   1   8
ATOM      7  O   UNL     1      35.738 -23.611 -13.305  0.00  0.00    -0.267 OA
ATOM      8  N   UNL     1      34.134 -25.004 -14.233  0.00  0.00    -0.298 N 
ATOM      9  C   UNL     1      35.429 -24.635 -13.909  0.00  0.00    +0.282 C 
ATOM     10  H   UNL     1      33.989 -25.848 -14.720  0.00  0.00    +0.150 HD
BRANCH   9  14
ATOM     11  S   UNL     1      38.138 -25.285 -13.912  0.00  0.00    -0.074 S 
ATOM     12  N   UNL     1      40.042 -28.176 -16.034  0.00  0.00    +0.387 N 
ATOM     13  N   UNL     1      36.264 -26.615 -15.117  0.00  0.00    -0.399 NA
ATOM     14  C   UNL     1      36.499 -25.560 -14.363  0.00  0.00    +0.210 C 
ATOM     15  C   UNL     1      37.461 -27.254 -15.353  0.00  0.00    +0.093 C 
ATOM     16  C   UNL     1      38.575 -26.673 -14.788  0.00  0.00    +0.082 C 
ATOM     17  C   UNL     1      37.561 -28.478 -16.191  0.00  0.00    +0.032 C 
ATOM     18  C   UNL     1      39.959 -27.218 -14.905  0.00  0.00    -0.059 C 
ATOM     19  C   UNL     1      38.937 -29.160 -16.002  0.00  0.00    -0.070 C 
ATOM     20  C   UNL     1      41.338 -28.854 -16.029  0.00  0.00    -0.101 C 
ATOM     21  H   UNL     1      39.950 -27.645 -16.901  0.00  0.00    -0.080 HD
ENDBRANCH   9  14
ENDBRANCH   1   8
BRANCH   2  23
ATOM     22  O   UNL     1      31.055 -22.602 -17.448  0.00  0.00    -0.269 OA
ATOM     23  N   UNL     1      32.864 -23.148 -16.105  0.00  0.00    -0.300 N 
ATOM     24  C   UNL     1      32.258 -22.557 -17.201  0.00  0.00    +0.259 C 
ATOM     25  H   UNL     1      33.837 -23.053 -15.993  0.00  0.00    +0.150 HD
BRANCH  24  28
ATOM     26 CL   UNL     1      36.069 -18.459 -22.524  0.00  0.00    -0.082 Cl
ATOM     27  N   UNL     1      34.531 -21.926 -18.080  0.00  0.00    -0.309 N 
ATOM     28  C   UNL     1      33.165 -21.845 -18.137  0.00  0.00    +0.102 C 
ATOM     29  C   UNL     1      32.832 -21.012 -19.180  0.00  0.00    +0.020 C 
ATOM     30  C   UNL     1      35.093 -21.157 -19.074  0.00  0.00    +0.048 C 
ATOM     31  C   UNL     1      34.043 -20.569 -19.783  0.00  0.00    +0.016 C 
ATOM     32  C   UNL     1      36.437 -20.938 -19.396  0.00  0.00    +0.015 C 
ATOM     33  C   UNL     1      34.347 -19.721 -20.867  0.00  0.00    +0.013 C 
ATOM     34  C   UNL     1      35.687 -19.494 -21.201  0.00  0.00    +0.058 C 
ATOM     35  C   UNL     1      36.715 -20.093 -20.475  0.00  0.00    +0.013 C 
ATOM     36  H   UNL     1      35.037 -22.457 -17.425  0.00  0.00    +0.152 HD
ENDBRANCH  24  28
ENDBRANCH   2  23
TORSDOF 4
ENDMDL
MODEL 3
REMARK VINA RESULT:     -11.3      2.789      7.462
REMARK  Name = 24752833
REMARK  4 active torsions:
REMARK  status: ('A' for Active; 'I' for Inactive)
REMARK    1  A    between atoms: C_1  and  N_8
REMARK    2  A    between atoms: C_2  and  N_23
REMARK    3  A    between atoms: C_9  and  C_14
REMARK    4  A    between atoms: C_24  and  C_28
REMARK                            x       y       z     vdW  Elec       q    Type
REMARK                         _______ _______ _______ _____ _____    ______ ____
ROOT
ATOM      1  C   UNL     1      31.204 -23.307 -16.131  0.00  0.00    +0.090 C 
ATOM      2  C   UNL     1      31.775 -23.294 -14.701  0.00  0.00    +0.090 C 
ATOM      3  C   UNL     1      29.742 -22.852 -16.152  0.00  0.00    +0.021 C 
ATOM      4  C   UNL     1      30.889 -24.086 -13.733  0.00  0.00    +0.021 C 
ATOM      5  C   UNL     1      28.877 -23.655 -15.185  0.00  0.00    +0.002 C 
ATOM      6  C   UNL     1      29.440 -23.612 -13.769  0.00  0.00    +0.002 C 
ENDROOT
BRANCH   1   8
ATOM      7  O   UNL     1      33.420 -24.139 -17.756  0.00  0.00    -0.267 OA
ATOM      8  N   UNL     1      31.990 -22.472 -17.013  0.00  0.00    -0.298 N 
ATOM      9  C   UNL     1      33.046 -22.970 -17.760  0.00  0.00    +0.282 C 
ATOM     10  H   UNL     1      31.767 -21.516 -17.086  0.00  0.00    +0.150 HD
BRANCH   9  14
ATOM     11  S   UNL     1      32.901 -20.927 -19.649  0.00  0.00    -0.074 S 
ATOM     12  N   UNL     1      35.938 -19.059 -21.592  0.00  0.00    +0.387 N 
ATOM     13  N   UNL     1      35.081 -21.851 -18.588  0.00  0.00    -0.399 NA
ATOM     14  C   UNL     1      33.770 -21.979 -18.598  0.00  0.00    +0.210 C 
ATOM     15  C   UNL     1      35.425 -20.851 -19.469  0.00  0.00    +0.093 C 
ATOM     16  C   UNL     1      34.380 -20.249 -20.134  0.00  0.00    +0.082 C 
ATOM     17  C   UNL     1      36.838 -20.457 -19.719  0.00  0.00    +0.032 C 
ATOM     18  C   UNL     1      34.537 -19.132 -21.112  0.00  0.00    -0.059 C 
ATOM     19  C   UNL     1      36.905 -19.108 -20.472  0.00  0.00    -0.070 C 
ATOM     20  C   UNL     1      36.137 -17.853 -22.394  0.00  0.00    -0.101 C 
ATOM     21  H   UNL     1      36.111 -19.878 -22.177  0.00  0.00    -0.080 HD
ENDBRANCH   9  14
ENDBRANCH   1   8
BRANCH   2  23
ATOM     22  O   UNL     1      33.375 -23.796 -12.371  0.00  0.00    -0.269 OA
ATOM     23  N   UNL     1      33.122 -23.820 -14.674  0.00  0.00    -0.300 N 
ATOM     24  C   UNL     1      33.815 -24.028 -13.494  0.00  0.00    +0.259 C 
ATOM     25  H   UNL     1      33.562 -24.039 -15.528  0.00  0.00    +0.150 HD
BRANCH  24  28
ATOM     26 CL   UNL     1      40.611 -27.347 -15.058  0.00  0.00    -0.082 Cl
ATOM     27  N   UNL     1      36.248 -24.143 -12.860  0.00  0.00    -0.309 N 
ATOM     28  C   UNL     1      35.198 -24.549 -13.639  0.00  0.00    +0.102 C 
ATOM     29  C   UNL     1      35.669 -25.485 -14.531  0.00  0.00    +0.020 C 
ATOM     30  C   UNL     1      37.398 -24.802 -13.232  0.00  0.00    +0.048 C 
ATOM     31  C   UNL     1      37.060 -25.656 -14.286  0.00  0.00    +0.016 C 
ATOM     32  C   UNL     1      38.698 -24.709 -12.724  0.00  0.00    +0.015 C 
ATOM     33  C   UNL     1      38.067 -26.455 -14.860  0.00  0.00    +0.013 C 
ATOM     34  C   UNL     1      39.373 -26.373 -14.361  0.00  0.00    +0.058 C 
ATOM     35  C   UNL     1      39.681 -25.512 -13.309  0.00  0.00    +0.013 C 
ATOM     36  H   UNL     1      36.190 -23.477 -12.138  0.00  0.00    +0.152 HD
ENDBRANCH  24  28
ENDBRANCH   2  23
TORSDOF 4
ENDMDL
