MODEL 1
REMARK VINA RESULT:     -11.3      0.000      0.000
REMARK  Name = 6914614
REMARK  7 active torsions:
REMARK  status: ('A' for Active; 'I' for Inactive)
REMARK    1  A    between atoms: O_1  and  C_4
REMARK    2  A    between atoms: O_1  and  C_18
REMARK    3  A    between atoms: C_9  and  C_13
REMARK    4  A    between atoms: C_18  and  C_19
REMARK    5  A    between atoms: C_19  and  N_20
REMARK    6  A    between atoms: C_19  and  C_24
REMARK    7  A    between atoms: C_24  and  C_26
REMARK                            x       y       z     vdW  Elec       q    Type
REMARK                         _______ _______ _______ _____ _____    ______ ____
ROOT
ATOM      1  O   UNL     1      35.628 -17.566 -21.164  0.00  0.00    -0.476 OA
ENDROOT
BRANCH   1   4
ATOM      2  N   UNL     1      33.557 -13.802 -23.369  0.00  0.00    -0.404 NA
ATOM      3  N   UNL     1      34.731 -17.018 -24.635  0.00  0.00    -0.258 NA
ATOM      4  C   UNL     1      35.141 -16.930 -22.263  0.00  0.00    +0.159 C 
ATOM      5  C   UNL     1      34.586 -15.645 -22.204  0.00  0.00    +0.063 C 
ATOM      6  C   UNL     1      34.098 -15.036 -23.372  0.00  0.00    +0.136 C 
ATOM      7  C   UNL     1      34.499 -14.930 -21.002  0.00  0.00    +0.008 C 
ATOM      8  C   UNL     1      35.188 -17.566 -23.491  0.00  0.00    +0.130 C 
ATOM      9  C   UNL     1      33.490 -13.144 -22.188  0.00  0.00    +0.131 C 
ATOM     10  C   UNL     1      33.942 -13.658 -20.989  0.00  0.00    +0.032 C 
ATOM     11  C   UNL     1      34.203 -15.775 -24.539  0.00  0.00    +0.184 C 
BRANCH   9  13
ATOM     12  N   UNL     1      31.754  -9.279 -22.396  0.00  0.00    -0.242 NA
ATOM     13  C   UNL     1      32.899 -11.829 -22.259  0.00  0.00    +0.033 C 
ATOM     14  C   UNL     1      33.374 -10.896 -23.176  0.00  0.00    +0.023 C 
ATOM     15  C   UNL     1      31.850 -11.485 -21.411  0.00  0.00    +0.023 C 
ATOM     16  C   UNL     1      32.773  -9.647 -23.205  0.00  0.00    +0.099 C 
ATOM     17  C   UNL     1      31.318 -10.210 -21.519  0.00  0.00    +0.099 C 
ENDBRANCH   9  13
ENDBRANCH   1   4
BRANCH   1  18
ATOM     18  C   UNL     1      35.905 -18.961 -21.287  0.00  0.00    +0.184 C 
BRANCH  18  19
ATOM     19  C   UNL     1      35.165 -19.784 -20.226  0.00  0.00    -0.017 C 
BRANCH  19  20
ATOM     20  N   UNL     1      33.754 -19.893 -20.617  0.00  0.00    +0.384 N 
ATOM     21  H   UNL     1      33.691 -20.286 -21.557  0.00  0.00    -0.089 HD
ATOM     22  H   UNL     1      33.326 -18.968 -20.605  0.00  0.00    -0.089 HD
ATOM     23  H   UNL     1      33.265 -20.503 -19.961  0.00  0.00    -0.089 HD
ENDBRANCH  19  20
BRANCH  19  24
ATOM     24  C   UNL     1      35.729 -21.204 -20.027  0.00  0.00    +0.009 C 
BRANCH  24  26
ATOM     25  N   UNL     1      36.591 -22.007 -16.571  0.00  0.00    -0.312 N 
ATOM     26  C   UNL     1      35.809 -21.623 -18.586  0.00  0.00    -0.008 C 
ATOM     27  C   UNL     1      34.758 -22.175 -17.831  0.00  0.00    +0.011 C 
ATOM     28  C   UNL     1      35.274 -22.411 -16.555  0.00  0.00    +0.048 C 
ATOM     29  C   UNL     1      36.922 -21.525 -17.809  0.00  0.00    +0.058 C 
ATOM     30  C   UNL     1      33.411 -22.503 -18.088  0.00  0.00    +0.001 C 
ATOM     31  C   UNL     1      34.510 -22.961 -15.520  0.00  0.00    +0.015 C 
ATOM     32  C   UNL     1      32.634 -23.054 -17.063  0.00  0.00    +0.000 C 
ATOM     33  C   UNL     1      33.177 -23.279 -15.798  0.00  0.00    +0.001 C 
ATOM     34  H   UNL     1      37.204 -22.057 -15.803  0.00  0.00    +0.152 HD
ENDBRANCH  24  26
ENDBRANCH  19  24
ENDBRANCH  18  19
ENDBRANCH   1  18
TORSDOF 7
ENDMDL
MODEL 2
REMARK VINA RESULT:     -11.2      4.989      8.382
REMARK  Name = 6914614
REMARK  7 active torsions:
REMARK  status: ('A' for Active; 'I' for Inactive)
REMARK    1  A    between atoms: O_1  and  C_4
REMARK    2  A    between atoms: O_1  and  C_18
REMARK    3  A    between atoms: C_9  and  C_13
REMARK    4  A    between atoms: C_18  and  C_19
REMARK    5  A    between atoms: C_19  and  N_20
REMARK    6  A    between atoms: C_19  and  C_24
REMARK    7  A    between atoms: C_24  and  C_26
REMARK                            x       y       z     vdW  Elec       q    Type
REMARK                         _______ _______ _______ _____ _____    ______ ____
ROOT
ATOM      1  O   UNL     1      34.674 -23.970 -15.356  0.00  0.00    -0.476 OA
ENDROOT
BRANCH   1   4
ATOM      2  N   UNL     1      36.562 -20.807 -18.479  0.00  0.00    -0.404 NA
ATOM      3  N   UNL     1      37.892 -22.299 -15.424  0.00  0.00    -0.258 NA
ATOM      4  C   UNL     1      35.672 -23.157 -15.794  0.00  0.00    +0.159 C 
ATOM      5  C   UNL     1      35.558 -22.389 -16.960  0.00  0.00    +0.063 C 
ATOM      6  C   UNL     1      36.621 -21.565 -17.366  0.00  0.00    +0.136 C 
ATOM      7  C   UNL     1      34.402 -22.411 -17.752  0.00  0.00    +0.008 C 
ATOM      8  C   UNL     1      36.848 -23.076 -15.070  0.00  0.00    +0.130 C 
ATOM      9  C   UNL     1      35.429 -20.856 -19.217  0.00  0.00    +0.131 C 
ATOM     10  C   UNL     1      34.332 -21.634 -18.901  0.00  0.00    +0.032 C 
ATOM     11  C   UNL     1      37.745 -21.571 -16.556  0.00  0.00    +0.184 C 
BRANCH   9  13
ATOM     12  N   UNL     1      35.447 -18.398 -22.674  0.00  0.00    -0.242 NA
ATOM     13  C   UNL     1      35.435 -20.020 -20.394  0.00  0.00    +0.033 C 
ATOM     14  C   UNL     1      36.550 -19.244 -20.695  0.00  0.00    +0.023 C 
ATOM     15  C   UNL     1      34.326 -19.984 -21.234  0.00  0.00    +0.023 C 
ATOM     16  C   UNL     1      36.507 -18.458 -21.836  0.00  0.00    +0.099 C 
ATOM     17  C   UNL     1      34.382 -19.164 -22.350  0.00  0.00    +0.099 C 
ENDBRANCH   9  13
ENDBRANCH   1   4
BRANCH   1  18
ATOM     18  C   UNL     1      34.906 -24.693 -14.147  0.00  0.00    +0.184 C 
BRANCH  18  19
ATOM     19  C   UNL     1      34.004 -24.201 -13.007  0.00  0.00    -0.017 C 
BRANCH  19  20
ATOM     20  N   UNL     1      34.833 -23.487 -12.029  0.00  0.00    +0.384 N 
ATOM     21  H   UNL     1      35.452 -24.148 -11.560  0.00  0.00    -0.089 HD
ATOM     22  H   UNL     1      34.232 -23.036 -11.340  0.00  0.00    -0.089 HD
ATOM     23  H   UNL     1      35.391 -22.780 -12.508  0.00  0.00    -0.089 HD
ENDBRANCH  19  20
BRANCH  19  24
ATOM     24  C   UNL     1      32.869 -23.264 -13.465  0.00  0.00    +0.009 C 
BRANCH  24  26
ATOM     25  N   UNL     1      29.892 -25.378 -13.446  0.00  0.00    -0.312 N 
ATOM     26  C   UNL     1      31.558 -23.967 -13.677  0.00  0.00    -0.008 C 
ATOM     27  C   UNL     1      30.597 -23.639 -14.651  0.00  0.00    +0.011 C 
ATOM     28  C   UNL     1      29.548 -24.546 -14.487  0.00  0.00    +0.048 C 
ATOM     29  C   UNL     1      31.118 -25.029 -12.947  0.00  0.00    +0.058 C 
ATOM     30  C   UNL     1      30.499 -22.664 -15.665  0.00  0.00    +0.001 C 
ATOM     31  C   UNL     1      28.400 -24.527 -15.288  0.00  0.00    +0.015 C 
ATOM     32  C   UNL     1      29.357 -22.633 -16.473  0.00  0.00    +0.000 C 
ATOM     33  C   UNL     1      28.325 -23.552 -16.287  0.00  0.00    +0.001 C 
ATOM     34  H   UNL     1      29.336 -26.117 -13.108  0.00  0.00    +0.152 HD
ENDBRANCH  24  26
ENDBRANCH  19  24
ENDBRANCH  18  19
ENDBRANCH   1  18
TORSDOF 7
ENDMDL
MODEL 3
REMARK VINA RESULT:     -11.2      2.326     10.777
REMARK  Name = 6914614
REMARK  7 active torsions:
REMARK  status: ('A' for Active; 'I' for Inactive)
REMARK    1  A    between atoms: O_1  and  C_4
REMARK    2  A    between atoms: O_1  and  C_18
REMARK    3  A    between atoms: C_9  and  C_13
REMARK    4  A    between atoms: C_18  and  C_19
REMARK    5  A    between atoms: C_19  and  N_20
REMARK    6  A    between atoms: C_19  and  C_24
REMARK    7  A    between atoms: C_24  and  C_26
REMARK                            x       y       z     vdW  Elec       q    Type
REMARK                         _______ _______ _______ _____ _____    ______ ____
ROOT
ATOM      1  O   UNL     1      35.501 -20.613 -20.005  0.00  0.00    -0.476 OA
ENDROOT
BRANCH   1   4
ATOM      2  N   UNL     1      35.224 -23.109 -15.881  0.00  0.00    -0.404 NA
ATOM      3  N   UNL     1      32.752 -22.421 -18.478  0.00  0.00    -0.258 NA
ATOM      4  C   UNL     1      34.829 -21.368 -19.095  0.00  0.00    +0.159 C 
ATOM      5  C   UNL     1      35.433 -21.848 -17.926  0.00  0.00    +0.063 C 
ATOM      6  C   UNL     1      34.691 -22.624 -17.019  0.00  0.00    +0.136 C 
ATOM      7  C   UNL     1      36.773 -21.579 -17.619  0.00  0.00    +0.008 C 
ATOM      8  C   UNL     1      33.501 -21.680 -19.320  0.00  0.00    +0.130 C 
ATOM      9  C   UNL     1      36.522 -22.828 -15.620  0.00  0.00    +0.131 C 
ATOM     10  C   UNL     1      37.332 -22.076 -16.448  0.00  0.00    +0.032 C 
ATOM     11  C   UNL     1      33.370 -22.867 -17.358  0.00  0.00    +0.184 C 
BRANCH   9  13
ATOM     12  N   UNL     1      38.005 -24.446 -11.991  0.00  0.00    -0.242 NA
ATOM     13  C   UNL     1      37.027 -23.379 -14.385  0.00  0.00    +0.033 C 
ATOM     14  C   UNL     1      36.554 -22.908 -13.164  0.00  0.00    +0.023 C 
ATOM     15  C   UNL     1      37.989 -24.384 -14.408  0.00  0.00    +0.023 C 
ATOM     16  C   UNL     1      37.069 -23.470 -12.007  0.00  0.00    +0.099 C 
ATOM     17  C   UNL     1      38.441 -24.879 -13.195  0.00  0.00    +0.099 C 
ENDBRANCH   9  13
ENDBRANCH   1   4
BRANCH   1  18
ATOM     18  C   UNL     1      34.732 -19.697 -20.786  0.00  0.00    +0.184 C 
BRANCH  18  19
ATOM     19  C   UNL     1      35.459 -18.360 -20.975  0.00  0.00    -0.017 C 
BRANCH  19  20
ATOM     20  N   UNL     1      36.665 -18.360 -20.138  0.00  0.00    +0.384 N 
ATOM     21  H   UNL     1      37.126 -19.268 -20.206  0.00  0.00    -0.089 HD
ATOM     22  H   UNL     1      36.406 -18.182 -19.169  0.00  0.00    -0.089 HD
ATOM     23  H   UNL     1      37.302 -17.631 -20.460  0.00  0.00    -0.089 HD
ENDBRANCH  19  20
BRANCH  19  24
ATOM     24  C   UNL     1      35.874 -18.072 -22.431  0.00  0.00    +0.009 C 
BRANCH  24  26
ATOM     25  N   UNL     1      34.115 -15.661 -24.534  0.00  0.00    -0.312 N 
ATOM     26  C   UNL     1      35.127 -16.926 -23.053  0.00  0.00    -0.008 C 
ATOM     27  C   UNL     1      34.686 -15.771 -22.381  0.00  0.00    +0.011 C 
ATOM     28  C   UNL     1      34.046 -14.981 -23.339  0.00  0.00    +0.048 C 
ATOM     29  C   UNL     1      34.774 -16.849 -24.365  0.00  0.00    +0.058 C 
ATOM     30  C   UNL     1      34.758 -15.301 -21.054  0.00  0.00    +0.001 C 
ATOM     31  C   UNL     1      33.472 -13.742 -23.035  0.00  0.00    +0.015 C 
ATOM     32  C   UNL     1      34.189 -14.064 -20.735  0.00  0.00    +0.000 C 
ATOM     33  C   UNL     1      33.556 -13.297 -21.713  0.00  0.00    +0.001 C 
ATOM     34  H   UNL     1      33.744 -15.339 -25.387  0.00  0.00    +0.152 HD
ENDBRANCH  24  26
ENDBRANCH  19  24
ENDBRANCH  18  19
ENDBRANCH   1  18
TORSDOF 7
ENDMDL
MODEL 4
REMARK VINA RESULT:     -11.2      3.375      6.194
REMARK  Name = 6914614
REMARK  7 active torsions:
REMARK  status: ('A' for Active; 'I' for Inactive)
REMARK    1  A    between atoms: O_1  and  C_4
REMARK    2  A    between atoms: O_1  and  C_18
REMARK    3  A    between atoms: C_9  and  C_13
REMARK    4  A    between atoms: C_18  and  C_19
REMARK    5  A    between atoms: C_19  and  N_20
REMARK    6  A    between atoms: C_19  and  C_24
REMARK    7  A    between atoms: C_24  and  C_26
REMARK                            x       y       z     vdW  Elec       q    Type
REMARK                         _______ _______ _______ _____ _____    ______ ____
ROOT
ATOM      1  O   UNL     1      36.234 -22.295 -17.843  0.00  0.00    -0.476 OA
ENDROOT
BRANCH   1   4
ATOM      2  N   UNL     1      33.847 -19.623 -21.080  0.00  0.00    -0.404 NA
ATOM      3  N   UNL     1      32.704 -22.097 -18.652  0.00  0.00    -0.258 NA
ATOM      4  C   UNL     1      35.096 -21.888 -18.467  0.00  0.00    +0.159 C 
ATOM      5  C   UNL     1      35.101 -20.926 -19.485  0.00  0.00    +0.063 C 
ATOM      6  C   UNL     1      33.896 -20.543 -20.097  0.00  0.00    +0.136 C 
ATOM      7  C   UNL     1      36.285 -20.320 -19.927  0.00  0.00    +0.008 C 
ATOM      8  C   UNL     1      33.883 -22.436 -18.093  0.00  0.00    +0.130 C 
ATOM      9  C   UNL     1      35.012 -19.060 -21.478  0.00  0.00    +0.131 C 
ATOM     10  C   UNL     1      36.244 -19.370 -20.939  0.00  0.00    +0.032 C 
ATOM     11  C   UNL     1      32.749 -21.165 -19.633  0.00  0.00    +0.184 C 
BRANCH   9  13
ATOM     12  N   UNL     1      34.636 -16.192 -24.580  0.00  0.00    -0.242 NA
ATOM     13  C   UNL     1      34.884 -18.084 -22.534  0.00  0.00    +0.033 C 
ATOM     14  C   UNL     1      35.311 -16.775 -22.333  0.00  0.00    +0.023 C 
ATOM     15  C   UNL     1      34.333 -18.446 -23.760  0.00  0.00    +0.023 C 
ATOM     16  C   UNL     1      35.167 -15.876 -23.378  0.00  0.00    +0.099 C 
ATOM     17  C   UNL     1      34.233 -17.471 -24.741  0.00  0.00    +0.099 C 
ENDBRANCH   9  13
ENDBRANCH   1   4
BRANCH   1  18
ATOM     18  C   UNL     1      36.352 -22.005 -16.451  0.00  0.00    +0.184 C 
BRANCH  18  19
ATOM     19  C   UNL     1      35.702 -23.091 -15.585  0.00  0.00    -0.017 C 
BRANCH  19  20
ATOM     20  N   UNL     1      36.761 -23.935 -15.018  0.00  0.00    +0.384 N 
ATOM     21  H   UNL     1      36.710 -24.867 -15.429  0.00  0.00    -0.089 HD
ATOM     22  H   UNL     1      36.639 -24.002 -14.008  0.00  0.00    -0.089 HD
ATOM     23  H   UNL     1      37.672 -23.523 -15.225  0.00  0.00    -0.089 HD
ENDBRANCH  19  20
BRANCH  19  24
ATOM     24  C   UNL     1      34.843 -22.542 -14.429  0.00  0.00    +0.009 C 
BRANCH  24  26
ATOM     25  N   UNL     1      32.726 -25.084 -12.886  0.00  0.00    -0.312 N 
ATOM     26  C   UNL     1      33.769 -23.489 -13.975  0.00  0.00    -0.008 C 
ATOM     27  C   UNL     1      32.457 -23.548 -14.481  0.00  0.00    +0.011 C 
ATOM     28  C   UNL     1      31.812 -24.566 -13.776  0.00  0.00    +0.048 C 
ATOM     29  C   UNL     1      33.922 -24.430 -13.003  0.00  0.00    +0.058 C 
ATOM     30  C   UNL     1      31.737 -22.844 -15.467  0.00  0.00    +0.001 C 
ATOM     31  C   UNL     1      30.477 -24.917 -14.008  0.00  0.00    +0.015 C 
ATOM     32  C   UNL     1      30.402 -23.184 -15.710  0.00  0.00    +0.000 C 
ATOM     33  C   UNL     1      29.783 -24.206 -14.991  0.00  0.00    +0.001 C 
ATOM     34  H   UNL     1      32.544 -25.818 -12.256  0.00  0.00    +0.152 HD
ENDBRANCH  24  26
ENDBRANCH  19  24
ENDBRANCH  18  19
ENDBRANCH   1  18
TORSDOF 7
ENDMDL
MODEL 5
REMARK VINA RESULT:     -11.1      5.153     10.559
REMARK  Name = 6914614
REMARK  7 active torsions:
REMARK  status: ('A' for Active; 'I' for Inactive)
REMARK    1  A    between atoms: O_1  and  C_4
REMARK    2  A    between atoms: O_1  and  C_18
REMARK    3  A    between atoms: C_9  and  C_13
REMARK    4  A    between atoms: C_18  and  C_19
REMARK    5  A    between atoms: C_19  and  N_20
REMARK    6  A    between atoms: C_19  and  C_24
REMARK    7  A    between atoms: C_24  and  C_26
REMARK                            x       y       z     vdW  Elec       q    Type
REMARK                         _______ _______ _______ _____ _____    ______ ____
ROOT
ATOM      1  O   UNL     1      36.954 -23.180 -15.526  0.00  0.00    -0.476 OA
ENDROOT
BRANCH   1   4
ATOM      2  N   UNL     1      32.437 -23.863 -13.960  0.00  0.00    -0.404 NA
ATOM      3  N   UNL     1      35.663 -24.117 -12.269  0.00  0.00    -0.258 NA
ATOM      4  C   UNL     1      36.045 -23.488 -14.563  0.00  0.00    +0.159 C 
ATOM      5  C   UNL     1      34.666 -23.505 -14.808  0.00  0.00    +0.063 C 
ATOM      6  C   UNL     1      33.772 -23.832 -13.775  0.00  0.00    +0.136 C 
ATOM      7  C   UNL     1      34.134 -23.204 -16.069  0.00  0.00    +0.008 C 
ATOM      8  C   UNL     1      36.486 -23.798 -13.289  0.00  0.00    +0.130 C 
ATOM      9  C   UNL     1      31.963 -23.565 -15.192  0.00  0.00    +0.131 C 
ATOM     10  C   UNL     1      32.760 -23.232 -16.269  0.00  0.00    +0.032 C 
ATOM     11  C   UNL     1      34.337 -24.123 -12.545  0.00  0.00    +0.184 C 
BRANCH   9  13
ATOM     12  N   UNL     1      27.740 -23.722 -15.560  0.00  0.00    -0.242 NA
ATOM     13  C   UNL     1      30.525 -23.618 -15.317  0.00  0.00    +0.033 C 
ATOM     14  C   UNL     1      29.805 -24.631 -14.691  0.00  0.00    +0.023 C 
ATOM     15  C   UNL     1      29.851 -22.658 -16.065  0.00  0.00    +0.023 C 
ATOM     16  C   UNL     1      28.427 -24.637 -14.841  0.00  0.00    +0.099 C 
ATOM     17  C   UNL     1      28.471 -22.753 -16.155  0.00  0.00    +0.099 C 
ENDBRANCH   9  13
ENDBRANCH   1   4
BRANCH   1  18
ATOM     18  C   UNL     1      37.533 -21.876 -15.483  0.00  0.00    +0.184 C 
BRANCH  18  19
ATOM     19  C   UNL     1      37.043 -20.996 -16.640  0.00  0.00    -0.017 C 
BRANCH  19  20
ATOM     20  N   UNL     1      37.950 -19.850 -16.774  0.00  0.00    +0.384 N 
ATOM     21  H   UNL     1      38.739 -19.965 -16.138  0.00  0.00    -0.089 HD
ATOM     22  H   UNL     1      37.450 -18.992 -16.544  0.00  0.00    -0.089 HD
ATOM     23  H   UNL     1      38.292 -19.798 -17.734  0.00  0.00    -0.089 HD
ENDBRANCH  19  20
BRANCH  19  24
ATOM     24  C   UNL     1      36.971 -21.726 -17.996  0.00  0.00    +0.009 C 
BRANCH  24  26
ATOM     25  N   UNL     1      33.968 -20.866 -19.886  0.00  0.00    -0.312 N 
ATOM     26  C   UNL     1      35.909 -21.187 -18.912  0.00  0.00    -0.008 C 
ATOM     27  C   UNL     1      36.097 -20.201 -19.898  0.00  0.00    +0.011 C 
ATOM     28  C   UNL     1      34.853 -20.012 -20.504  0.00  0.00    +0.048 C 
ATOM     29  C   UNL     1      34.608 -21.586 -18.913  0.00  0.00    +0.058 C 
ATOM     30  C   UNL     1      37.194 -19.439 -20.349  0.00  0.00    +0.001 C 
ATOM     31  C   UNL     1      34.650 -19.095 -21.542  0.00  0.00    +0.015 C 
ATOM     32  C   UNL     1      37.006 -18.519 -21.386  0.00  0.00    +0.000 C 
ATOM     33  C   UNL     1      35.752 -18.351 -21.973  0.00  0.00    +0.001 C 
ATOM     34  H   UNL     1      33.014 -20.947 -20.111  0.00  0.00    +0.152 HD
ENDBRANCH  24  26
ENDBRANCH  19  24
ENDBRANCH  18  19
ENDBRANCH   1  18
TORSDOF 7
ENDMDL
MODEL 6
REMARK VINA RESULT:     -11.0      3.458      6.709
REMARK  Name = 6914614
REMARK  7 active torsions:
REMARK  status: ('A' for Active; 'I' for Inactive)
REMARK    1  A    between atoms: O_1  and  C_4
REMARK    2  A    between atoms: O_1  and  C_18
REMARK    3  A    between atoms: C_9  and  C_13
REMARK    4  A    between atoms: C_18  and  C_19
REMARK    5  A    between atoms: C_19  and  N_20
REMARK    6  A    between atoms: C_19  and  C_24
REMARK    7  A    between atoms: C_24  and  C_26
REMARK                            x       y       z     vdW  Elec       q    Type
REMARK                         _______ _______ _______ _____ _____    ______ ____
ROOT
ATOM      1  O   UNL     1      36.102 -22.240 -17.712  0.00  0.00    -0.476 OA
ENDROOT
BRANCH   1   4
ATOM      2  N   UNL     1      33.768 -19.672 -21.070  0.00  0.00    -0.404 NA
ATOM      3  N   UNL     1      32.588 -22.082 -18.595  0.00  0.00    -0.258 NA
ATOM      4  C   UNL     1      34.976 -21.856 -18.370  0.00  0.00    +0.159 C 
ATOM      5  C   UNL     1      34.997 -20.923 -19.414  0.00  0.00    +0.063 C 
ATOM      6  C   UNL     1      33.802 -20.564 -20.060  0.00  0.00    +0.136 C 
ATOM      7  C   UNL     1      36.186 -20.324 -19.850  0.00  0.00    +0.008 C 
ATOM      8  C   UNL     1      33.758 -22.399 -18.003  0.00  0.00    +0.130 C 
ATOM      9  C   UNL     1      34.938 -19.115 -21.461  0.00  0.00    +0.131 C 
ATOM     10  C   UNL     1      36.161 -19.404 -20.889  0.00  0.00    +0.032 C 
ATOM     11  C   UNL     1      32.649 -21.178 -19.601  0.00  0.00    +0.184 C 
BRANCH   9  13
ATOM     12  N   UNL     1      34.611 -16.338 -24.650  0.00  0.00    -0.242 NA
ATOM     13  C   UNL     1      34.827 -18.170 -22.547  0.00  0.00    +0.033 C 
ATOM     14  C   UNL     1      35.307 -16.873 -22.397  0.00  0.00    +0.023 C 
ATOM     15  C   UNL     1      34.238 -18.550 -23.749  0.00  0.00    +0.023 C 
ATOM     16  C   UNL     1      35.178 -16.004 -23.469  0.00  0.00    +0.099 C 
ATOM     17  C   UNL     1      34.155 -17.605 -24.760  0.00  0.00    +0.099 C 
ENDBRANCH   9  13
ENDBRANCH   1   4
BRANCH   1  18
ATOM     18  C   UNL     1      35.999 -22.437 -16.302  0.00  0.00    +0.184 C 
BRANCH  18  19
ATOM     19  C   UNL     1      37.362 -22.318 -15.609  0.00  0.00    -0.017 C 
BRANCH  19  20
ATOM     20  N   UNL     1      37.774 -20.910 -15.625  0.00  0.00    +0.384 N 
ATOM     21  H   UNL     1      37.903 -20.582 -14.667  0.00  0.00    -0.089 HD
ATOM     22  H   UNL     1      37.056 -20.350 -16.082  0.00  0.00    -0.089 HD
ATOM     23  H   UNL     1      38.653 -20.819 -16.135  0.00  0.00    -0.089 HD
ENDBRANCH  19  20
BRANCH  19  24
ATOM     24  C   UNL     1      37.368 -22.814 -14.149  0.00  0.00    +0.009 C 
BRANCH  24  26
ATOM     25  N   UNL     1      36.333 -26.290 -13.729  0.00  0.00    -0.312 N 
ATOM     26  C   UNL     1      37.222 -24.303 -14.020  0.00  0.00    -0.008 C 
ATOM     27  C   UNL     1      38.263 -25.244 -14.128  0.00  0.00    +0.011 C 
ATOM     28  C   UNL     1      37.678 -26.498 -13.940  0.00  0.00    +0.048 C 
ATOM     29  C   UNL     1      36.050 -24.951 -13.777  0.00  0.00    +0.058 C 
ATOM     30  C   UNL     1      39.650 -25.172 -14.366  0.00  0.00    +0.001 C 
ATOM     31  C   UNL     1      38.412 -27.689 -13.980  0.00  0.00    +0.015 C 
ATOM     32  C   UNL     1      40.398 -26.355 -14.408  0.00  0.00    +0.000 C 
ATOM     33  C   UNL     1      39.787 -27.593 -14.218  0.00  0.00    +0.001 C 
ATOM     34  H   UNL     1      35.672 -27.000 -13.568  0.00  0.00    +0.152 HD
ENDBRANCH  24  26
ENDBRANCH  19  24
ENDBRANCH  18  19
ENDBRANCH   1  18
TORSDOF 7
ENDMDL
MODEL 7
REMARK VINA RESULT:     -10.9      2.353     10.604
REMARK  Name = 6914614
REMARK  7 active torsions:
REMARK  status: ('A' for Active; 'I' for Inactive)
REMARK    1  A    between atoms: O_1  and  C_4
REMARK    2  A    between atoms: O_1  and  C_18
REMARK    3  A    between atoms: C_9  and  C_13
REMARK    4  A    between atoms: C_18  and  C_19
REMARK    5  A    between atoms: C_19  and  N_20
REMARK    6  A    between atoms: C_19  and  C_24
REMARK    7  A    between atoms: C_24  and  C_26
REMARK                            x       y       z     vdW  Elec       q    Type
REMARK                         _______ _______ _______ _____ _____    ______ ____
ROOT
ATOM      1  O   UNL     1      35.894 -21.298 -19.518  0.00  0.00    -0.476 OA
ENDROOT
BRANCH   1   4
ATOM      2  N   UNL     1      34.149 -23.076 -15.381  0.00  0.00    -0.404 NA
ATOM      3  N   UNL     1      37.478 -21.899 -16.311  0.00  0.00    -0.258 NA
ATOM      4  C   UNL     1      36.023 -21.676 -18.219  0.00  0.00    +0.159 C 
ATOM      5  C   UNL     1      34.954 -22.195 -17.477  0.00  0.00    +0.063 C 
ATOM      6  C   UNL     1      35.145 -22.572 -16.137  0.00  0.00    +0.136 C 
ATOM      7  C   UNL     1      33.677 -22.358 -18.031  0.00  0.00    +0.008 C 
ATOM      8  C   UNL     1      37.251 -21.550 -17.594  0.00  0.00    +0.130 C 
ATOM      9  C   UNL     1      32.931 -23.217 -15.953  0.00  0.00    +0.131 C 
ATOM     10  C   UNL     1      32.645 -22.876 -17.260  0.00  0.00    +0.032 C 
ATOM     11  C   UNL     1      36.420 -22.397 -15.627  0.00  0.00    +0.184 C 
BRANCH   9  13
ATOM     12  N   UNL     1      29.941 -24.819 -13.405  0.00  0.00    -0.242 NA
ATOM     13  C   UNL     1      31.913 -23.763 -15.086  0.00  0.00    +0.033 C 
ATOM     14  C   UNL     1      30.582 -23.773 -15.490  0.00  0.00    +0.023 C 
ATOM     15  C   UNL     1      32.258 -24.280 -13.841  0.00  0.00    +0.023 C 
ATOM     16  C   UNL     1      29.643 -24.308 -14.622  0.00  0.00    +0.099 C 
ATOM     17  C   UNL     1      31.244 -24.792 -13.046  0.00  0.00    +0.099 C 
ENDBRANCH   9  13
ENDBRANCH   1   4
BRANCH   1  18
ATOM     18  C   UNL     1      36.397 -20.010 -19.875  0.00  0.00    +0.184 C 
BRANCH  18  19
ATOM     19  C   UNL     1      35.536 -19.340 -20.952  0.00  0.00    -0.017 C 
BRANCH  19  20
ATOM     20  N   UNL     1      34.128 -19.669 -20.698  0.00  0.00    +0.384 N 
ATOM     21  H   UNL     1      33.532 -19.105 -21.305  0.00  0.00    -0.089 HD
ATOM     22  H   UNL     1      33.903 -19.473 -19.723  0.00  0.00    -0.089 HD
ATOM     23  H   UNL     1      33.969 -20.658 -20.891  0.00  0.00    -0.089 HD
ENDBRANCH  19  20
BRANCH  19  24
ATOM     24  C   UNL     1      35.678 -17.807 -21.006  0.00  0.00    +0.009 C 
BRANCH  24  26
ATOM     25  N   UNL     1      34.583 -16.968 -24.386  0.00  0.00    -0.312 N 
ATOM     26  C   UNL     1      35.175 -17.200 -22.285  0.00  0.00    -0.008 C 
ATOM     27  C   UNL     1      34.730 -15.875 -22.448  0.00  0.00    +0.011 C 
ATOM     28  C   UNL     1      34.359 -15.749 -23.788  0.00  0.00    +0.048 C 
ATOM     29  C   UNL     1      35.081 -17.858 -23.473  0.00  0.00    +0.058 C 
ATOM     30  C   UNL     1      34.599 -14.757 -21.600  0.00  0.00    +0.001 C 
ATOM     31  C   UNL     1      33.861 -14.556 -24.325  0.00  0.00    +0.015 C 
ATOM     32  C   UNL     1      34.103 -13.558 -22.123  0.00  0.00    +0.000 C 
ATOM     33  C   UNL     1      33.740 -13.461 -23.465  0.00  0.00    +0.001 C 
ATOM     34  H   UNL     1      34.409 -17.171 -25.333  0.00  0.00    +0.152 HD
ENDBRANCH  24  26
ENDBRANCH  19  24
ENDBRANCH  18  19
ENDBRANCH   1  18
TORSDOF 7
ENDMDL
MODEL 8
REMARK VINA RESULT:     -10.9      1.865     10.647
REMARK  Name = 6914614
REMARK  7 active torsions:
REMARK  status: ('A' for Active; 'I' for Inactive)
REMARK    1  A    between atoms: O_1  and  C_4
REMARK    2  A    between atoms: O_1  and  C_18
REMARK    3  A    between atoms: C_9  and  C_13
REMARK    4  A    between atoms: C_18  and  C_19
REMARK    5  A    between atoms: C_19  and  N_20
REMARK    6  A    between atoms: C_19  and  C_24
REMARK    7  A    between atoms: C_24  and  C_26
REMARK                            x       y       z     vdW  Elec       q    Type
REMARK                         _______ _______ _______ _____ _____    ______ ____
ROOT
ATOM      1  O   UNL     1      35.195 -14.926 -23.363  0.00  0.00    -0.476 OA
ENDROOT
BRANCH   1   4
ATOM      2  N   UNL     1      34.497 -19.473 -21.894  0.00  0.00    -0.404 NA
ATOM      3  N   UNL     1      33.599 -17.750 -24.985  0.00  0.00    -0.258 NA
ATOM      4  C   UNL     1      34.733 -16.193 -23.539  0.00  0.00    +0.159 C 
ATOM      5  C   UNL     1      34.880 -17.188 -22.565  0.00  0.00    +0.063 C 
ATOM      6  C   UNL     1      34.382 -18.481 -22.799  0.00  0.00    +0.136 C 
ATOM      7  C   UNL     1      35.516 -16.940 -21.341  0.00  0.00    +0.008 C 
ATOM      8  C   UNL     1      34.092 -16.524 -24.719  0.00  0.00    +0.130 C 
ATOM      9  C   UNL     1      35.119 -19.194 -20.725  0.00  0.00    +0.131 C 
ATOM     10  C   UNL     1      35.640 -17.957 -20.403  0.00  0.00    +0.032 C 
ATOM     11  C   UNL     1      33.760 -18.686 -24.019  0.00  0.00    +0.184 C 
BRANCH   9  13
ATOM     12  N   UNL     1      35.376 -22.450 -18.019  0.00  0.00    -0.242 NA
ATOM     13  C   UNL     1      35.206 -20.302 -19.805  0.00  0.00    +0.033 C 
ATOM     14  C   UNL     1      34.062 -21.012 -19.453  0.00  0.00    +0.023 C 
ATOM     15  C   UNL     1      36.435 -20.667 -19.262  0.00  0.00    +0.023 C 
ATOM     16  C   UNL     1      34.199 -22.068 -18.566  0.00  0.00    +0.099 C 
ATOM     17  C   UNL     1      36.465 -21.738 -18.383  0.00  0.00    +0.099 C 
ENDBRANCH   9  13
ENDBRANCH   1   4
BRANCH   1  18
ATOM     18  C   UNL     1      34.296 -13.979 -22.787  0.00  0.00    +0.184 C 
BRANCH  18  19
ATOM     19  C   UNL     1      33.936 -12.861 -23.774  0.00  0.00    -0.017 C 
BRANCH  19  20
ATOM     20  N   UNL     1      33.078 -13.422 -24.824  0.00  0.00    +0.384 N 
ATOM     21  H   UNL     1      33.148 -12.847 -25.664  0.00  0.00    -0.089 HD
ATOM     22  H   UNL     1      32.111 -13.435 -24.501  0.00  0.00    -0.089 HD
ATOM     23  H   UNL     1      33.378 -14.373 -25.037  0.00  0.00    -0.089 HD
ENDBRANCH  19  20
BRANCH  19  24
ATOM     24  C   UNL     1      33.206 -11.667 -23.130  0.00  0.00    +0.009 C 
BRANCH  24  26
ATOM     25  N   UNL     1      35.095  -8.802 -24.379  0.00  0.00    -0.312 N 
ATOM     26  C   UNL     1      33.829 -10.337 -23.452  0.00  0.00    -0.008 C 
ATOM     27  C   UNL     1      33.512  -9.111 -22.838  0.00  0.00    +0.011 C 
ATOM     28  C   UNL     1      34.326  -8.150 -23.441  0.00  0.00    +0.048 C 
ATOM     29  C   UNL     1      34.795 -10.138 -24.390  0.00  0.00    +0.058 C 
ATOM     30  C   UNL     1      32.616  -8.704 -21.829  0.00  0.00    +0.001 C 
ATOM     31  C   UNL     1      34.290  -6.797 -23.085  0.00  0.00    +0.015 C 
ATOM     32  C   UNL     1      32.569  -7.354 -21.462  0.00  0.00    +0.000 C 
ATOM     33  C   UNL     1      33.394  -6.417 -22.082  0.00  0.00    +0.001 C 
ATOM     34  H   UNL     1      35.763  -8.370 -24.959  0.00  0.00    +0.152 HD
ENDBRANCH  24  26
ENDBRANCH  19  24
ENDBRANCH  18  19
ENDBRANCH   1  18
TORSDOF 7
ENDMDL
MODEL 9
REMARK VINA RESULT:     -10.8      2.400      4.865
REMARK  Name = 6914614
REMARK  7 active torsions:
REMARK  status: ('A' for Active; 'I' for Inactive)
REMARK    1  A    between atoms: O_1  and  C_4
REMARK    2  A    between atoms: O_1  and  C_18
REMARK    3  A    between atoms: C_9  and  C_13
REMARK    4  A    between atoms: C_18  and  C_19
REMARK    5  A    between atoms: C_19  and  N_20
REMARK    6  A    between atoms: C_19  and  C_24
REMARK    7  A    between atoms: C_24  and  C_26
REMARK                            x       y       z     vdW  Elec       q    Type
REMARK                         _______ _______ _______ _____ _____    ______ ____
ROOT
ATOM      1  O   UNL     1      34.414 -13.698 -23.247  0.00  0.00    -0.476 OA
ENDROOT
BRANCH   1   4
ATOM      2  N   UNL     1      32.533  -9.310 -22.525  0.00  0.00    -0.404 NA
ATOM      3  N   UNL     1      31.756 -12.561 -21.058  0.00  0.00    -0.258 NA
ATOM      4  C   UNL     1      33.547 -12.842 -22.644  0.00  0.00    +0.159 C 
ATOM      5  C   UNL     1      33.519 -11.472 -22.934  0.00  0.00    +0.063 C 
ATOM      6  C   UNL     1      32.600 -10.634 -22.281  0.00  0.00    +0.136 C 
ATOM      7  C   UNL     1      34.388 -10.894 -23.869  0.00  0.00    +0.008 C 
ATOM      8  C   UNL     1      32.653 -13.330 -21.707  0.00  0.00    +0.130 C 
ATOM      9  C   UNL     1      33.389  -8.790 -23.434  0.00  0.00    +0.131 C 
ATOM     10  C   UNL     1      34.327  -9.531 -24.126  0.00  0.00    +0.032 C 
ATOM     11  C   UNL     1      31.758 -11.242 -21.365  0.00  0.00    +0.184 C 
BRANCH   9  13
ATOM     12  N   UNL     1      33.012  -4.611 -24.054  0.00  0.00    -0.242 NA
ATOM     13  C   UNL     1      33.261  -7.367 -23.645  0.00  0.00    +0.033 C 
ATOM     14  C   UNL     1      32.008  -6.763 -23.598  0.00  0.00    +0.023 C 
ATOM     15  C   UNL     1      34.389  -6.592 -23.897  0.00  0.00    +0.023 C 
ATOM     16  C   UNL     1      31.938  -5.395 -23.806  0.00  0.00    +0.099 C 
ATOM     17  C   UNL     1      34.212  -5.231 -24.093  0.00  0.00    +0.099 C 
ENDBRANCH   9  13
ENDBRANCH   1   4
BRANCH   1  18
ATOM     18  C   UNL     1      34.051 -15.078 -23.281  0.00  0.00    +0.184 C 
BRANCH  18  19
ATOM     19  C   UNL     1      35.071 -15.954 -22.543  0.00  0.00    -0.017 C 
BRANCH  19  20
ATOM     20  N   UNL     1      34.910 -15.747 -21.099  0.00  0.00    +0.384 N 
ATOM     21  H   UNL     1      35.814 -15.855 -20.637  0.00  0.00    -0.089 HD
ATOM     22  H   UNL     1      34.254 -16.433 -20.728  0.00  0.00    -0.089 HD
ATOM     23  H   UNL     1      34.552 -14.807 -20.929  0.00  0.00    -0.089 HD
ENDBRANCH  19  20
BRANCH  19  24
ATOM     24  C   UNL     1      34.935 -17.460 -22.840  0.00  0.00    +0.009 C 
BRANCH  24  26
ATOM     25  N   UNL     1      37.374 -19.237 -20.785  0.00  0.00    -0.312 N 
ATOM     26  C   UNL     1      35.708 -18.332 -21.891  0.00  0.00    -0.008 C 
ATOM     27  C   UNL     1      35.159 -19.304 -21.034  0.00  0.00    +0.011 C 
ATOM     28  C   UNL     1      36.233 -19.866 -20.341  0.00  0.00    +0.048 C 
ATOM     29  C   UNL     1      37.060 -18.299 -21.731  0.00  0.00    +0.058 C 
ATOM     30  C   UNL     1      33.858 -19.775 -20.766  0.00  0.00    +0.001 C 
ATOM     31  C   UNL     1      36.071 -20.879 -19.389  0.00  0.00    +0.015 C 
ATOM     32  C   UNL     1      33.680 -20.787 -19.817  0.00  0.00    +0.000 C 
ATOM     33  C   UNL     1      34.771 -21.330 -19.140  0.00  0.00    +0.001 C 
ATOM     34  H   UNL     1      38.285 -19.433 -20.466  0.00  0.00    +0.152 HD
ENDBRANCH  24  26
ENDBRANCH  19  24
ENDBRANCH  18  19
ENDBRANCH   1  18
TORSDOF 7
ENDMDL
