MODEL 1
REMARK VINA RESULT:     -11.8      0.000      0.000
REMARK  Name = 16363
REMARK  6 active torsions:
REMARK  status: ('A' for Active; 'I' for Inactive)
REMARK    1  A    between atoms: N_1  and  C_19
REMARK    2  A    between atoms: C_2  and  N_9
REMARK    3  A    between atoms: C_19  and  C_20
REMARK    4  A    between atoms: C_20  and  C_21
REMARK    5  A    between atoms: C_21  and  C_23
REMARK    6  A    between atoms: C_23  and  C_25
REMARK                            x       y       z     vdW  Elec       q    Type
REMARK                         _______ _______ _______ _____ _____    ______ ____
ROOT
ATOM      1  N   UNL     1      34.098 -15.895 -23.733  0.00  0.00    +0.387 N 
ATOM      2  C   UNL     1      34.033 -12.999 -23.318  0.00  0.00    +0.086 C 
ATOM      3  C   UNL     1      33.206 -13.688 -24.404  0.00  0.00    -0.000 C 
ATOM      4  C   UNL     1      34.336 -13.980 -22.186  0.00  0.00    -0.000 C 
ATOM      5  C   UNL     1      33.868 -14.987 -24.866  0.00  0.00    -0.075 C 
ATOM      6  C   UNL     1      34.959 -15.271 -22.719  0.00  0.00    -0.075 C 
ATOM      7  H   UNL     1      33.196 -16.093 -23.300  0.00  0.00    -0.080 HD
ENDROOT
BRANCH   2   9
ATOM      8  O   UNL     1      31.745 -12.794 -21.365  0.00  0.00    -0.247 OA
ATOM      9  N   UNL     1      33.360 -11.828 -22.817  0.00  0.00    -0.282 N 
ATOM     10  N   UNL     1      31.946 -10.461 -21.692  0.00  0.00    -0.305 N 
ATOM     11  C   UNL     1      33.665 -10.505 -23.165  0.00  0.00    +0.079 A 
ATOM     12  C   UNL     1      32.282 -11.830 -21.890  0.00  0.00    +0.328 A 
ATOM     13  C   UNL     1      32.791  -9.671 -22.470  0.00  0.00    +0.076 A 
ATOM     14  C   UNL     1      34.620  -9.997 -24.020  0.00  0.00    +0.019 C 
ATOM     15  C   UNL     1      32.827  -8.299 -22.591  0.00  0.00    +0.019 C 
ATOM     16  C   UNL     1      34.677  -8.606 -24.159  0.00  0.00    +0.002 C 
ATOM     17  C   UNL     1      33.789  -7.766 -23.453  0.00  0.00    +0.002 C 
ATOM     18  H   UNL     1      31.232 -10.126 -21.101  0.00  0.00    +0.170 HD
ENDBRANCH   2   9
BRANCH   1  19
ATOM     19  C   UNL     1      34.683 -17.153 -24.197  0.00  0.00    -0.077 C 
BRANCH  19  20
ATOM     20  C   UNL     1      34.184 -18.316 -23.337  0.00  0.00    -0.015 C 
BRANCH  20  21
ATOM     21  C   UNL     1      35.326 -19.044 -22.624  0.00  0.00    +0.067 C 
BRANCH  21  23
ATOM     22  O   UNL     1      35.647 -17.840 -20.557  0.00  0.00    -0.291 OA
ATOM     23  C   UNL     1      35.297 -18.880 -21.111  0.00  0.00    +0.173 C 
BRANCH  23  25
ATOM     24  F   UNL     1      33.460 -23.134 -17.997  0.00  0.00    -0.204 F 
ATOM     25  C   UNL     1      34.807 -20.016 -20.279  0.00  0.00    +0.035 C 
ATOM     26  C   UNL     1      33.450 -20.237 -20.198  0.00  0.00    +0.005 C 
ATOM     27  C   UNL     1      35.728 -20.801 -19.623  0.00  0.00    +0.005 C 
ATOM     28  C   UNL     1      32.991 -21.300 -19.420  0.00  0.00    +0.030 C 
ATOM     29  C   UNL     1      35.269 -21.863 -18.846  0.00  0.00    +0.030 C 
ATOM     30  C   UNL     1      33.901 -22.114 -18.744  0.00  0.00    +0.140 C 
ENDBRANCH  23  25
ENDBRANCH  21  23
ENDBRANCH  20  21
ENDBRANCH  19  20
ENDBRANCH   1  19
TORSDOF 6
ENDMDL
MODEL 2
REMARK VINA RESULT:     -11.3      1.409      2.309
REMARK  Name = 16363
REMARK  6 active torsions:
REMARK  status: ('A' for Active; 'I' for Inactive)
REMARK    1  A    between atoms: N_1  and  C_19
REMARK    2  A    between atoms: C_2  and  N_9
REMARK    3  A    between atoms: C_19  and  C_20
REMARK    4  A    between atoms: C_20  and  C_21
REMARK    5  A    between atoms: C_21  and  C_23
REMARK    6  A    between atoms: C_23  and  C_25
REMARK                            x       y       z     vdW  Elec       q    Type
REMARK                         _______ _______ _______ _____ _____    ______ ____
ROOT
ATOM      1  N   UNL     1      33.824 -15.885 -23.808  0.00  0.00    +0.387 N 
ATOM      2  C   UNL     1      34.238 -12.990 -23.712  0.00  0.00    +0.086 C 
ATOM      3  C   UNL     1      33.385 -13.659 -24.790  0.00  0.00    -0.000 C 
ATOM      4  C   UNL     1      34.280 -13.863 -22.458  0.00  0.00    -0.000 C 
ATOM      5  C   UNL     1      33.840 -15.096 -25.048  0.00  0.00    -0.075 C 
ATOM      6  C   UNL     1      34.705 -15.294 -22.790  0.00  0.00    -0.075 C 
ATOM      7  H   UNL     1      32.873 -15.877 -23.442  0.00  0.00    -0.080 HD
ENDROOT
BRANCH   2   9
ATOM      8  O   UNL     1      34.865 -10.354 -25.037  0.00  0.00    -0.247 OA
ATOM      9  N   UNL     1      33.746 -11.671 -23.404  0.00  0.00    -0.282 N 
ATOM     10  N   UNL     1      33.378  -9.435 -23.443  0.00  0.00    -0.305 N 
ATOM     11  C   UNL     1      32.840 -11.361 -22.380  0.00  0.00    +0.079 A 
ATOM     12  C   UNL     1      34.101 -10.478 -24.090  0.00  0.00    +0.328 A 
ATOM     13  C   UNL     1      32.619  -9.986 -22.410  0.00  0.00    +0.076 A 
ATOM     14  C   UNL     1      32.217 -12.171 -21.455  0.00  0.00    +0.019 C 
ATOM     15  C   UNL     1      31.773  -9.354 -21.527  0.00  0.00    +0.019 C 
ATOM     16  C   UNL     1      31.351 -11.553 -20.546  0.00  0.00    +0.002 C 
ATOM     17  C   UNL     1      31.132 -10.159 -20.582  0.00  0.00    +0.002 C 
ATOM     18  H   UNL     1      33.409  -8.481 -23.686  0.00  0.00    +0.170 HD
ENDBRANCH   2   9
BRANCH   1  19
ATOM     19  C   UNL     1      34.212 -17.270 -24.078  0.00  0.00    -0.077 C 
BRANCH  19  20
ATOM     20  C   UNL     1      35.335 -17.698 -23.131  0.00  0.00    -0.015 C 
BRANCH  20  21
ATOM     21  C   UNL     1      35.050 -19.048 -22.466  0.00  0.00    +0.067 C 
BRANCH  21  23
ATOM     22  O   UNL     1      36.209 -18.267 -20.498  0.00  0.00    -0.291 OA
ATOM     23  C   UNL     1      35.450 -19.094 -20.998  0.00  0.00    +0.173 C 
BRANCH  23  25
ATOM     24  F   UNL     1      33.327 -23.127 -17.771  0.00  0.00    -0.204 F 
ATOM     25  C   UNL     1      34.882 -20.171 -20.137  0.00  0.00    +0.035 C 
ATOM     26  C   UNL     1      35.748 -20.970 -19.424  0.00  0.00    +0.005 C 
ATOM     27  C   UNL     1      33.515 -20.326 -20.086  0.00  0.00    +0.005 C 
ATOM     28  C   UNL     1      35.218 -21.977 -18.618  0.00  0.00    +0.030 C 
ATOM     29  C   UNL     1      32.986 -21.333 -19.280  0.00  0.00    +0.030 C 
ATOM     30  C   UNL     1      33.836 -22.159 -18.546  0.00  0.00    +0.140 C 
ENDBRANCH  23  25
ENDBRANCH  21  23
ENDBRANCH  20  21
ENDBRANCH  19  20
ENDBRANCH   1  19
TORSDOF 6
ENDMDL
MODEL 3
REMARK VINA RESULT:     -11.1      3.790     10.136
REMARK  Name = 16363
REMARK  6 active torsions:
REMARK  status: ('A' for Active; 'I' for Inactive)
REMARK    1  A    between atoms: N_1  and  C_19
REMARK    2  A    between atoms: C_2  and  N_9
REMARK    3  A    between atoms: C_19  and  C_20
REMARK    4  A    between atoms: C_20  and  C_21
REMARK    5  A    between atoms: C_21  and  C_23
REMARK    6  A    between atoms: C_23  and  C_25
REMARK                            x       y       z     vdW  Elec       q    Type
REMARK                         _______ _______ _______ _____ _____    ______ ____
ROOT
ATOM      1  N   UNL     1      35.057 -16.010 -23.684  0.00  0.00    +0.387 N 
ATOM      2  C   UNL     1      34.794 -18.117 -21.671  0.00  0.00    +0.086 C 
ATOM      3  C   UNL     1      35.038 -18.424 -23.149  0.00  0.00    -0.000 C 
ATOM      4  C   UNL     1      35.317 -16.723 -21.330  0.00  0.00    -0.000 C 
ATOM      5  C   UNL     1      34.486 -17.315 -24.046  0.00  0.00    -0.075 C 
ATOM      6  C   UNL     1      34.758 -15.668 -22.286  0.00  0.00    -0.075 C 
ATOM      7  H   UNL     1      36.070 -16.071 -23.782  0.00  0.00    -0.080 HD
ENDROOT
BRANCH   2   9
ATOM      8  O   UNL     1      37.704 -18.560 -21.016  0.00  0.00    -0.247 OA
ATOM      9  N   UNL     1      35.400 -19.115 -20.826  0.00  0.00    -0.282 N 
ATOM     10  N   UNL     1      36.920 -20.356 -19.693  0.00  0.00    -0.305 N 
ATOM     11  C   UNL     1      34.710 -20.109 -20.120  0.00  0.00    +0.079 A 
ATOM     12  C   UNL     1      36.793 -19.246 -20.575  0.00  0.00    +0.328 A 
ATOM     13  C   UNL     1      35.650 -20.868 -19.426  0.00  0.00    +0.076 A 
ATOM     14  C   UNL     1      33.361 -20.388 -20.045  0.00  0.00    +0.019 C 
ATOM     15  C   UNL     1      35.296 -21.934 -18.629  0.00  0.00    +0.019 C 
ATOM     16  C   UNL     1      32.976 -21.466 -19.241  0.00  0.00    +0.002 C 
ATOM     17  C   UNL     1      33.933 -22.231 -18.541  0.00  0.00    +0.002 C 
ATOM     18  H   UNL     1      37.766 -20.705 -19.330  0.00  0.00    +0.170 HD
ENDBRANCH   2   9
BRANCH   1  19
ATOM     19  C   UNL     1      34.559 -14.968 -24.582  0.00  0.00    -0.077 C 
BRANCH  19  20
ATOM     20  C   UNL     1      33.512 -14.110 -23.869  0.00  0.00    -0.015 C 
BRANCH  20  21
ATOM     21  C   UNL     1      34.095 -12.793 -23.351  0.00  0.00    +0.067 C 
BRANCH  21  23
ATOM     22  O   UNL     1      33.637 -11.752 -25.479  0.00  0.00    -0.291 OA
ATOM     23  C   UNL     1      33.834 -11.611 -24.274  0.00  0.00    +0.173 C 
BRANCH  23  25
ATOM     24  F   UNL     1      33.700  -6.481 -22.075  0.00  0.00    -0.204 F 
ATOM     25  C   UNL     1      33.799 -10.241 -23.687  0.00  0.00    +0.035 C 
ATOM     26  C   UNL     1      32.747  -9.902 -22.866  0.00  0.00    +0.005 C 
ATOM     27  C   UNL     1      34.818  -9.366 -23.988  0.00  0.00    +0.005 C 
ATOM     28  C   UNL     1      32.713  -8.621 -22.316  0.00  0.00    +0.030 C 
ATOM     29  C   UNL     1      34.784  -8.085 -23.439  0.00  0.00    +0.030 C 
ATOM     30  C   UNL     1      33.732  -7.712 -22.603  0.00  0.00    +0.140 C 
ENDBRANCH  23  25
ENDBRANCH  21  23
ENDBRANCH  20  21
ENDBRANCH  19  20
ENDBRANCH   1  19
TORSDOF 6
ENDMDL
MODEL 4
REMARK VINA RESULT:     -11.0      2.667      4.590
REMARK  Name = 16363
REMARK  6 active torsions:
REMARK  status: ('A' for Active; 'I' for Inactive)
REMARK    1  A    between atoms: N_1  and  C_19
REMARK    2  A    between atoms: C_2  and  N_9
REMARK    3  A    between atoms: C_19  and  C_20
REMARK    4  A    between atoms: C_20  and  C_21
REMARK    5  A    between atoms: C_21  and  C_23
REMARK    6  A    between atoms: C_23  and  C_25
REMARK                            x       y       z     vdW  Elec       q    Type
REMARK                         _______ _______ _______ _____ _____    ______ ____
ROOT
ATOM      1  N   UNL     1      32.734 -11.933 -21.917  0.00  0.00    +0.387 N 
ATOM      2  C   UNL     1      31.868  -9.142 -22.065  0.00  0.00    +0.086 C 
ATOM      3  C   UNL     1      31.497 -10.052 -20.893  0.00  0.00    -0.000 C 
ATOM      4  C   UNL     1      33.156  -9.634 -22.726  0.00  0.00    -0.000 C 
ATOM      5  C   UNL     1      31.456 -11.520 -21.321  0.00  0.00    -0.075 C 
ATOM      6  C   UNL     1      33.061 -11.116 -23.094  0.00  0.00    -0.075 C 
ATOM      7  H   UNL     1      33.466 -11.790 -21.222  0.00  0.00    -0.080 HD
ENDROOT
BRANCH   2   9
ATOM      8  O   UNL     1      32.625  -8.047 -19.358  0.00  0.00    -0.247 OA
ATOM      9  N   UNL     1      32.002  -7.773 -21.637  0.00  0.00    -0.282 N 
ATOM     10  N   UNL     1      32.369  -5.926 -20.374  0.00  0.00    -0.305 N 
ATOM     11  C   UNL     1      31.793  -6.645 -22.443  0.00  0.00    +0.079 A 
ATOM     12  C   UNL     1      32.366  -7.350 -20.329  0.00  0.00    +0.328 A 
ATOM     13  C   UNL     1      32.021  -5.515 -21.661  0.00  0.00    +0.076 A 
ATOM     14  C   UNL     1      31.431  -6.543 -23.769  0.00  0.00    +0.019 C 
ATOM     15  C   UNL     1      31.900  -4.236 -22.157  0.00  0.00    +0.019 C 
ATOM     16  C   UNL     1      31.301  -5.255 -24.298  0.00  0.00    +0.002 C 
ATOM     17  C   UNL     1      31.532  -4.114 -23.500  0.00  0.00    +0.002 C 
ATOM     18  H   UNL     1      32.584  -5.330 -19.620  0.00  0.00    +0.170 HD
ENDBRANCH   2   9
BRANCH   1  19
ATOM     19  C   UNL     1      32.697 -13.351 -22.274  0.00  0.00    -0.077 C 
BRANCH  19  20
ATOM     20  C   UNL     1      33.485 -13.592 -23.563  0.00  0.00    -0.015 C 
BRANCH  20  21
ATOM     21  C   UNL     1      34.687 -14.515 -23.345  0.00  0.00    +0.067 C 
BRANCH  21  23
ATOM     22  O   UNL     1      34.151 -16.071 -25.111  0.00  0.00    -0.291 OA
ATOM     23  C   UNL     1      34.502 -15.902 -23.945  0.00  0.00    +0.173 C 
BRANCH  23  25
ATOM     24  F   UNL     1      35.529 -20.360 -20.745  0.00  0.00    -0.204 F 
ATOM     25  C   UNL     1      34.776 -17.092 -23.090  0.00  0.00    +0.035 C 
ATOM     26  C   UNL     1      34.434 -18.338 -23.565  0.00  0.00    +0.005 C 
ATOM     27  C   UNL     1      35.362 -16.901 -21.859  0.00  0.00    +0.005 C 
ATOM     28  C   UNL     1      34.690 -19.452 -22.766  0.00  0.00    +0.030 C 
ATOM     29  C   UNL     1      35.618 -18.015 -21.060  0.00  0.00    +0.030 C 
ATOM     30  C   UNL     1      35.283 -19.290 -21.513  0.00  0.00    +0.140 C 
ENDBRANCH  23  25
ENDBRANCH  21  23
ENDBRANCH  20  21
ENDBRANCH  19  20
ENDBRANCH   1  19
TORSDOF 6
ENDMDL
MODEL 5
REMARK VINA RESULT:     -10.8      2.988      5.314
REMARK  Name = 16363
REMARK  6 active torsions:
REMARK  status: ('A' for Active; 'I' for Inactive)
REMARK    1  A    between atoms: N_1  and  C_19
REMARK    2  A    between atoms: C_2  and  N_9
REMARK    3  A    between atoms: C_19  and  C_20
REMARK    4  A    between atoms: C_20  and  C_21
REMARK    5  A    between atoms: C_21  and  C_23
REMARK    6  A    between atoms: C_23  and  C_25
REMARK                            x       y       z     vdW  Elec       q    Type
REMARK                         _______ _______ _______ _____ _____    ______ ____
ROOT
ATOM      1  N   UNL     1      33.484 -10.341 -23.954  0.00  0.00    +0.387 N 
ATOM      2  C   UNL     1      33.249  -8.154 -22.025  0.00  0.00    +0.086 C 
ATOM      3  C   UNL     1      34.185  -8.083 -23.232  0.00  0.00    -0.000 C 
ATOM      4  C   UNL     1      32.099  -9.120 -22.308  0.00  0.00    -0.000 C 
ATOM      5  C   UNL     1      34.638  -9.477 -23.668  0.00  0.00    -0.075 C 
ATOM      6  C   UNL     1      32.618 -10.482 -22.775  0.00  0.00    -0.075 C 
ATOM      7  H   UNL     1      32.937  -9.901 -24.694  0.00  0.00    -0.080 HD
ENDROOT
BRANCH   2   9
ATOM      8  O   UNL     1      32.808  -6.933 -19.303  0.00  0.00    -0.247 OA
ATOM      9  N   UNL     1      32.748  -6.848 -21.678  0.00  0.00    -0.282 N 
ATOM     10  N   UNL     1      32.061  -5.037 -20.502  0.00  0.00    -0.305 N 
ATOM     11  C   UNL     1      32.357  -5.859 -22.591  0.00  0.00    +0.079 A 
ATOM     12  C   UNL     1      32.574  -6.357 -20.356  0.00  0.00    +0.328 A 
ATOM     13  C   UNL     1      31.936  -4.750 -21.861  0.00  0.00    +0.076 A 
ATOM     14  C   UNL     1      32.343  -5.863 -23.970  0.00  0.00    +0.019 C 
ATOM     15  C   UNL     1      31.484  -3.596 -22.464  0.00  0.00    +0.019 C 
ATOM     16  C   UNL     1      31.888  -4.703 -24.606  0.00  0.00    +0.002 C 
ATOM     17  C   UNL     1      31.463  -3.582 -23.861  0.00  0.00    +0.002 C 
ATOM     18  H   UNL     1      31.834  -4.426 -19.764  0.00  0.00    +0.170 HD
ENDBRANCH   2   9
BRANCH   1  19
ATOM     19  C   UNL     1      33.931 -11.654 -24.419  0.00  0.00    -0.077 C 
BRANCH  19  20
ATOM     20  C   UNL     1      33.336 -12.757 -23.541  0.00  0.00    -0.015 C 
BRANCH  20  21
ATOM     21  C   UNL     1      34.347 -13.864 -23.232  0.00  0.00    +0.067 C 
BRANCH  21  23
ATOM     22  O   UNL     1      33.823 -15.020 -25.285  0.00  0.00    -0.291 OA
ATOM     23  C   UNL     1      34.183 -15.095 -24.112  0.00  0.00    +0.173 C 
BRANCH  23  25
ATOM     24  F   UNL     1      35.327 -20.107 -21.934  0.00  0.00    -0.204 F 
ATOM     25  C   UNL     1      34.488 -16.434 -23.531  0.00  0.00    +0.035 C 
ATOM     26  C   UNL     1      35.198 -16.496 -22.352  0.00  0.00    +0.005 C 
ATOM     27  C   UNL     1      34.050 -17.558 -24.193  0.00  0.00    +0.005 C 
ATOM     28  C   UNL     1      35.484 -17.747 -21.808  0.00  0.00    +0.030 C 
ATOM     29  C   UNL     1      34.336 -18.810 -23.649  0.00  0.00    +0.030 C 
ATOM     30  C   UNL     1      35.052 -18.905 -22.457  0.00  0.00    +0.140 C 
ENDBRANCH  23  25
ENDBRANCH  21  23
ENDBRANCH  20  21
ENDBRANCH  19  20
ENDBRANCH   1  19
TORSDOF 6
ENDMDL
MODEL 6
REMARK VINA RESULT:     -10.7      3.344      9.435
REMARK  Name = 16363
REMARK  6 active torsions:
REMARK  status: ('A' for Active; 'I' for Inactive)
REMARK    1  A    between atoms: N_1  and  C_19
REMARK    2  A    between atoms: C_2  and  N_9
REMARK    3  A    between atoms: C_19  and  C_20
REMARK    4  A    between atoms: C_20  and  C_21
REMARK    5  A    between atoms: C_21  and  C_23
REMARK    6  A    between atoms: C_23  and  C_25
REMARK                            x       y       z     vdW  Elec       q    Type
REMARK                         _______ _______ _______ _____ _____    ______ ____
ROOT
ATOM      1  N   UNL     1      35.059 -16.399 -23.768  0.00  0.00    +0.387 N 
ATOM      2  C   UNL     1      34.755 -18.342 -21.602  0.00  0.00    +0.086 C 
ATOM      3  C   UNL     1      34.890 -18.764 -23.066  0.00  0.00    -0.000 C 
ATOM      4  C   UNL     1      35.402 -16.974 -21.387  0.00  0.00    -0.000 C 
ATOM      5  C   UNL     1      34.372 -17.675 -24.007  0.00  0.00    -0.075 C 
ATOM      6  C   UNL     1      34.868 -15.943 -22.383  0.00  0.00    -0.075 C 
ATOM      7  H   UNL     1      36.057 -16.545 -23.915  0.00  0.00    -0.080 HD
ENDROOT
BRANCH   2   9
ATOM      8  O   UNL     1      37.654 -18.865 -20.953  0.00  0.00    -0.247 OA
ATOM      9  N   UNL     1      35.333 -19.327 -20.723  0.00  0.00    -0.282 N 
ATOM     10  N   UNL     1      36.817 -20.578 -19.553  0.00  0.00    -0.305 N 
ATOM     11  C   UNL     1      34.614 -20.267 -19.972  0.00  0.00    +0.079 A 
ATOM     12  C   UNL     1      36.722 -19.500 -20.478  0.00  0.00    +0.328 A 
ATOM     13  C   UNL     1      35.532 -21.032 -19.256  0.00  0.00    +0.076 A 
ATOM     14  C   UNL     1      33.257 -20.492 -19.875  0.00  0.00    +0.019 C 
ATOM     15  C   UNL     1      35.148 -22.052 -18.414  0.00  0.00    +0.019 C 
ATOM     16  C   UNL     1      32.840 -21.523 -19.025  0.00  0.00    +0.002 C 
ATOM     17  C   UNL     1      33.776 -22.294 -18.303  0.00  0.00    +0.002 C 
ATOM     18  H   UNL     1      37.654 -20.943 -19.183  0.00  0.00    +0.170 HD
ENDBRANCH   2   9
BRANCH   1  19
ATOM     19  C   UNL     1      34.590 -15.381 -24.709  0.00  0.00    -0.077 C 
BRANCH  19  20
ATOM     20  C   UNL     1      33.634 -14.414 -24.009  0.00  0.00    -0.015 C 
BRANCH  20  21
ATOM     21  C   UNL     1      33.352 -13.165 -24.850  0.00  0.00    +0.067 C 
BRANCH  21  23
ATOM     22  O   UNL     1      34.646 -11.149 -24.559  0.00  0.00    -0.291 OA
ATOM     23  C   UNL     1      33.735 -11.868 -24.153  0.00  0.00    +0.173 C 
BRANCH  23  25
ATOM     24  F   UNL     1      30.841 -10.297 -19.644  0.00  0.00    -0.204 F 
ATOM     25  C   UNL     1      32.963 -11.449 -22.949  0.00  0.00    +0.035 C 
ATOM     26  C   UNL     1      32.640 -10.118 -22.801  0.00  0.00    +0.005 C 
ATOM     27  C   UNL     1      32.600 -12.407 -22.029  0.00  0.00    +0.005 C 
ATOM     28  C   UNL     1      31.917  -9.725 -21.676  0.00  0.00    +0.030 C 
ATOM     29  C   UNL     1      31.877 -12.014 -20.903  0.00  0.00    +0.030 C 
ATOM     30  C   UNL     1      31.535 -10.674 -20.726  0.00  0.00    +0.140 C 
ENDBRANCH  23  25
ENDBRANCH  21  23
ENDBRANCH  20  21
ENDBRANCH  19  20
ENDBRANCH   1  19
TORSDOF 6
ENDMDL
MODEL 7
REMARK VINA RESULT:     -10.6      1.718      2.534
REMARK  Name = 16363
REMARK  6 active torsions:
REMARK  status: ('A' for Active; 'I' for Inactive)
REMARK    1  A    between atoms: N_1  and  C_19
REMARK    2  A    between atoms: C_2  and  N_9
REMARK    3  A    between atoms: C_19  and  C_20
REMARK    4  A    between atoms: C_20  and  C_21
REMARK    5  A    between atoms: C_21  and  C_23
REMARK    6  A    between atoms: C_23  and  C_25
REMARK                            x       y       z     vdW  Elec       q    Type
REMARK                         _______ _______ _______ _____ _____    ______ ____
ROOT
ATOM      1  N   UNL     1      33.208 -13.704 -24.066  0.00  0.00    +0.387 N 
ATOM      2  C   UNL     1      33.446 -10.957 -23.086  0.00  0.00    +0.086 C 
ATOM      3  C   UNL     1      33.178 -11.280 -24.557  0.00  0.00    -0.000 C 
ATOM      4  C   UNL     1      32.957 -12.101 -22.199  0.00  0.00    -0.000 C 
ATOM      5  C   UNL     1      33.745 -12.649 -24.937  0.00  0.00    -0.075 C 
ATOM      6  C   UNL     1      33.530 -13.444 -22.656  0.00  0.00    -0.075 C 
ATOM      7  H   UNL     1      32.193 -13.705 -24.161  0.00  0.00    -0.080 HD
ENDROOT
BRANCH   2   9
ATOM      8  O   UNL     1      30.862 -10.477 -21.608  0.00  0.00    -0.247 OA
ATOM      9  N   UNL     1      32.827  -9.713 -22.707  0.00  0.00    -0.282 N 
ATOM     10  N   UNL     1      31.387  -8.184 -21.855  0.00  0.00    -0.305 N 
ATOM     11  C   UNL     1      33.342  -8.436 -22.970  0.00  0.00    +0.079 A 
ATOM     12  C   UNL     1      31.597  -9.584 -22.005  0.00  0.00    +0.328 A 
ATOM     13  C   UNL     1      32.451  -7.502 -22.443  0.00  0.00    +0.076 A 
ATOM     14  C   UNL     1      34.496  -8.047 -23.616  0.00  0.00    +0.019 C 
ATOM     15  C   UNL     1      32.665  -6.144 -22.534  0.00  0.00    +0.019 C 
ATOM     16  C   UNL     1      34.736  -6.673 -23.721  0.00  0.00    +0.002 C 
ATOM     17  C   UNL     1      33.831  -5.732 -23.186  0.00  0.00    +0.002 C 
ATOM     18  H   UNL     1      30.616  -7.766 -21.407  0.00  0.00    +0.170 HD
ENDBRANCH   2   9
BRANCH   1  19
ATOM     19  C   UNL     1      33.719 -15.013 -24.474  0.00  0.00    -0.077 C 
BRANCH  19  20
ATOM     20  C   UNL     1      34.501 -15.656 -23.328  0.00  0.00    -0.015 C 
BRANCH  20  21
ATOM     21  C   UNL     1      35.197 -16.952 -23.754  0.00  0.00    +0.067 C 
BRANCH  21  23
ATOM     22  O   UNL     1      33.514 -18.682 -23.768  0.00  0.00    -0.291 OA
ATOM     23  C   UNL     1      34.512 -18.206 -23.230  0.00  0.00    +0.173 C 
BRANCH  23  25
ATOM     24  F   UNL     1      36.662 -20.762 -18.756  0.00  0.00    -0.204 F 
ATOM     25  C   UNL     1      35.086 -18.888 -22.035  0.00  0.00    +0.035 C 
ATOM     26  C   UNL     1      34.283 -19.742 -21.314  0.00  0.00    +0.005 C 
ATOM     27  C   UNL     1      36.398 -18.639 -21.698  0.00  0.00    +0.005 C 
ATOM     28  C   UNL     1      34.820 -20.381 -20.196  0.00  0.00    +0.030 C 
ATOM     29  C   UNL     1      36.934 -19.278 -20.581  0.00  0.00    +0.030 C 
ATOM     30  C   UNL     1      36.146 -20.149 -19.830  0.00  0.00    +0.140 C 
ENDBRANCH  23  25
ENDBRANCH  21  23
ENDBRANCH  20  21
ENDBRANCH  19  20
ENDBRANCH   1  19
TORSDOF 6
ENDMDL
MODEL 8
REMARK VINA RESULT:     -10.5      4.781     10.985
REMARK  Name = 16363
REMARK  6 active torsions:
REMARK  status: ('A' for Active; 'I' for Inactive)
REMARK    1  A    between atoms: N_1  and  C_19
REMARK    2  A    between atoms: C_2  and  N_9
REMARK    3  A    between atoms: C_19  and  C_20
REMARK    4  A    between atoms: C_20  and  C_21
REMARK    5  A    between atoms: C_21  and  C_23
REMARK    6  A    between atoms: C_23  and  C_25
REMARK                            x       y       z     vdW  Elec       q    Type
REMARK                         _______ _______ _______ _____ _____    ______ ____
ROOT
ATOM      1  N   UNL     1      34.522 -20.320 -20.001  0.00  0.00    +0.387 N 
ATOM      2  C   UNL     1      34.143 -22.449 -18.031  0.00  0.00    +0.086 C 
ATOM      3  C   UNL     1      35.484 -21.742 -18.222  0.00  0.00    -0.000 C 
ATOM      4  C   UNL     1      32.999 -21.539 -18.480  0.00  0.00    -0.000 C 
ATOM      5  C   UNL     1      35.635 -21.212 -19.649  0.00  0.00    -0.075 C 
ATOM      6  C   UNL     1      33.231 -21.015 -19.899  0.00  0.00    -0.075 C 
ATOM      7  H   UNL     1      34.516 -19.546 -19.338  0.00  0.00    -0.080 HD
ENDROOT
BRANCH   2   9
ATOM      8  O   UNL     1      36.215 -23.116 -15.944  0.00  0.00    -0.247 OA
ATOM      9  N   UNL     1      33.963 -22.861 -16.662  0.00  0.00    -0.282 N 
ATOM     10  N   UNL     1      34.363 -23.514 -14.529  0.00  0.00    -0.305 N 
ATOM     11  C   UNL     1      32.728 -23.034 -16.021  0.00  0.00    +0.079 A 
ATOM     12  C   UNL     1      35.009 -23.156 -15.746  0.00  0.00    +0.328 A 
ATOM     13  C   UNL     1      32.982 -23.436 -14.711  0.00  0.00    +0.076 A 
ATOM     14  C   UNL     1      31.442 -22.871 -16.488  0.00  0.00    +0.019 C 
ATOM     15  C   UNL     1      31.974 -23.692 -13.808  0.00  0.00    +0.019 C 
ATOM     16  C   UNL     1      30.399 -23.125 -15.591  0.00  0.00    +0.002 C 
ATOM     17  C   UNL     1      30.663 -23.532 -14.265  0.00  0.00    +0.002 C 
ATOM     18  H   UNL     1      34.817 -23.775 -13.694  0.00  0.00    +0.170 HD
ENDBRANCH   2   9
BRANCH   1  19
ATOM     19  C   UNL     1      34.706 -19.781 -21.349  0.00  0.00    -0.077 C 
BRANCH  19  20
ATOM     20  C   UNL     1      35.277 -18.363 -21.278  0.00  0.00    -0.015 C 
BRANCH  20  21
ATOM     21  C   UNL     1      35.855 -17.901 -22.618  0.00  0.00    +0.067 C 
BRANCH  21  23
ATOM     22  O   UNL     1      34.233 -18.058 -24.399  0.00  0.00    -0.291 OA
ATOM     23  C   UNL     1      34.805 -17.350 -23.572  0.00  0.00    +0.173 C 
BRANCH  23  25
ATOM     24  F   UNL     1      33.461 -11.941 -23.239  0.00  0.00    -0.204 F 
ATOM     25  C   UNL     1      34.447 -15.905 -23.483  0.00  0.00    +0.035 C 
ATOM     26  C   UNL     1      33.812 -15.316 -24.553  0.00  0.00    +0.005 C 
ATOM     27  C   UNL     1      34.763 -15.215 -22.334  0.00  0.00    +0.005 C 
ATOM     28  C   UNL     1      33.476 -13.965 -24.470  0.00  0.00    +0.030 C 
ATOM     29  C   UNL     1      34.427 -13.864 -22.252  0.00  0.00    +0.030 C 
ATOM     30  C   UNL     1      33.784 -13.239 -23.318  0.00  0.00    +0.140 C 
ENDBRANCH  23  25
ENDBRANCH  21  23
ENDBRANCH  20  21
ENDBRANCH  19  20
ENDBRANCH   1  19
TORSDOF 6
ENDMDL
MODEL 9
REMARK VINA RESULT:     -10.3      3.870      6.549
REMARK  Name = 16363
REMARK  6 active torsions:
REMARK  status: ('A' for Active; 'I' for Inactive)
REMARK    1  A    between atoms: N_1  and  C_19
REMARK    2  A    between atoms: C_2  and  N_9
REMARK    3  A    between atoms: C_19  and  C_20
REMARK    4  A    between atoms: C_20  and  C_21
REMARK    5  A    between atoms: C_21  and  C_23
REMARK    6  A    between atoms: C_23  and  C_25
REMARK                            x       y       z     vdW  Elec       q    Type
REMARK                         _______ _______ _______ _____ _____    ______ ____
ROOT
ATOM      1  N   UNL     1      31.541  -9.494 -20.719  0.00  0.00    +0.387 N 
ATOM      2  C   UNL     1      32.467  -7.104 -22.130  0.00  0.00    +0.086 C 
ATOM      3  C   UNL     1      31.649  -8.196 -22.821  0.00  0.00    -0.000 C 
ATOM      4  C   UNL     1      32.188  -7.108 -20.628  0.00  0.00    -0.000 C 
ATOM      5  C   UNL     1      31.860  -9.556 -22.152  0.00  0.00    -0.075 C 
ATOM      6  C   UNL     1      32.380  -8.503 -20.029  0.00  0.00    -0.075 C 
ATOM      7  H   UNL     1      30.569  -9.202 -20.624  0.00  0.00    -0.080 HD
ENDROOT
BRANCH   2   9
ATOM      8  O   UNL     1      30.246  -5.166 -21.496  0.00  0.00    -0.247 OA
ATOM      9  N   UNL     1      32.192  -5.810 -22.701  0.00  0.00    -0.282 N 
ATOM     10  N   UNL     1      31.240  -3.803 -23.153  0.00  0.00    -0.305 N 
ATOM     11  C   UNL     1      32.946  -5.187 -23.704  0.00  0.00    +0.079 A 
ATOM     12  C   UNL     1      31.112  -4.961 -22.334  0.00  0.00    +0.328 A 
ATOM     13  C   UNL     1      32.356  -3.955 -23.977  0.00  0.00    +0.076 A 
ATOM     14  C   UNL     1      34.076  -5.609 -24.373  0.00  0.00    +0.019 C 
ATOM     15  C   UNL     1      32.858  -3.089 -24.923  0.00  0.00    +0.019 C 
ATOM     16  C   UNL     1      34.605  -4.747 -25.338  0.00  0.00    +0.002 C 
ATOM     17  C   UNL     1      34.003  -3.500 -25.610  0.00  0.00    +0.002 C 
ATOM     18  H   UNL     1      30.640  -3.023 -23.140  0.00  0.00    +0.170 HD
ENDBRANCH   2   9
BRANCH   1  19
ATOM     19  C   UNL     1      31.698 -10.812 -20.103  0.00  0.00    -0.077 C 
BRANCH  19  20
ATOM     20  C   UNL     1      31.585 -11.908 -21.164  0.00  0.00    -0.015 C 
BRANCH  20  21
ATOM     21  C   UNL     1      32.705 -12.946 -21.050  0.00  0.00    +0.067 C 
BRANCH  21  23
ATOM     22  O   UNL     1      33.815 -12.126 -23.029  0.00  0.00    -0.291 OA
ATOM     23  C   UNL     1      33.529 -13.089 -22.321  0.00  0.00    +0.173 C 
BRANCH  23  25
ATOM     24  F   UNL     1      35.367 -18.160 -23.764  0.00  0.00    -0.204 F 
ATOM     25  C   UNL     1      34.019 -14.443 -22.706  0.00  0.00    +0.035 C 
ATOM     26  C   UNL     1      33.797 -14.885 -23.991  0.00  0.00    +0.005 C 
ATOM     27  C   UNL     1      34.677 -15.201 -21.763  0.00  0.00    +0.005 C 
ATOM     28  C   UNL     1      34.256 -16.152 -24.352  0.00  0.00    +0.030 C 
ATOM     29  C   UNL     1      35.136 -16.467 -22.124  0.00  0.00    +0.030 C 
ATOM     30  C   UNL     1      34.926 -16.943 -23.417  0.00  0.00    +0.140 C 
ENDBRANCH  23  25
ENDBRANCH  21  23
ENDBRANCH  20  21
ENDBRANCH  19  20
ENDBRANCH   1  19
TORSDOF 6
ENDMDL
