MODEL 1
REMARK VINA RESULT:     -11.8      0.000      0.000
REMARK  Name = 11633167
REMARK  7 active torsions:
REMARK  status: ('A' for Active; 'I' for Inactive)
REMARK    1  A    between atoms: C_1  and  C_8
REMARK    2  A    between atoms: C_2  and  C_25
REMARK    3  A    between atoms: C_4  and  O_17
REMARK    4  A    between atoms: O_17  and  C_18
REMARK    5  A    between atoms: C_18  and  C_20
REMARK    6  A    between atoms: C_25  and  N_26
REMARK    7  A    between atoms: N_26  and  C_29
REMARK                            x       y       z     vdW  Elec       q    Type
REMARK                         _______ _______ _______ _____ _____    ______ ____
ROOT
ATOM      1  C   UNL     1      35.316 -20.726 -19.449  0.00  0.00    -0.000 C 
ATOM      2  C   UNL     1      34.161 -22.206 -17.930  0.00  0.00    +0.031 C 
ATOM      3  C   UNL     1      34.142 -21.351 -19.032  0.00  0.00    +0.000 C 
ATOM      4  C   UNL     1      35.354 -22.435 -17.246  0.00  0.00    +0.137 C 
ATOM      5  C   UNL     1      36.510 -20.954 -18.765  0.00  0.00    +0.003 C 
ATOM      6  C   UNL     1      36.529 -21.811 -17.664  0.00  0.00    +0.037 C 
ENDROOT
BRANCH   1   8
ATOM      7  N   UNL     1      33.405 -18.940 -23.670  0.00  0.00    -0.312 N 
ATOM      8  C   UNL     1      35.297 -19.838 -20.592  0.00  0.00    +0.001 C 
ATOM      9  C   UNL     1      34.279 -19.065 -22.614  0.00  0.00    +0.048 C 
ATOM     10  C   UNL     1      35.281 -18.108 -22.795  0.00  0.00    +0.015 C 
ATOM     11  C   UNL     1      34.261 -19.943 -21.524  0.00  0.00    +0.015 C 
ATOM     12  C   UNL     1      36.309 -18.894 -20.746  0.00  0.00    +0.000 C 
ATOM     13  C   UNL     1      36.316 -18.022 -21.842  0.00  0.00    +0.001 C 
ATOM     14  C   UNL     1      34.976 -17.405 -23.993  0.00  0.00    +0.017 C 
ATOM     15  C   UNL     1      33.818 -17.940 -24.510  0.00  0.00    +0.062 C 
ATOM     16  H   UNL     1      32.599 -19.490 -23.803  0.00  0.00    +0.152 HD
ENDBRANCH   1   8
BRANCH   4  17
ATOM     17  O   UNL     1      35.391 -23.267 -16.168  0.00  0.00    -0.469 OA
BRANCH  17  18
ATOM     18  C   UNL     1      36.403 -23.022 -15.194  0.00  0.00    +0.251 C 
BRANCH  18  20
ATOM     19  N   UNL     1      36.195 -25.427 -15.017  0.00  0.00    -0.244 NA
ATOM     20  C   UNL     1      36.898 -24.334 -14.660  0.00  0.00    +0.103 C 
ATOM     21  C   UNL     1      38.019 -24.351 -13.854  0.00  0.00    +0.018 C 
ATOM     22  C   UNL     1      38.452 -25.582 -13.376  0.00  0.00    +0.003 C 
ATOM     23  C   UNL     1      36.645 -26.607 -14.534  0.00  0.00    +0.099 C 
ATOM     24  C   UNL     1      37.757 -26.737 -13.718  0.00  0.00    +0.021 C 
ENDBRANCH  18  20
ENDBRANCH  17  18
ENDBRANCH   4  17
BRANCH   2  25
ATOM     25  C   UNL     1      32.895 -22.868 -17.497  0.00  0.00    +0.117 C 
BRANCH  25  26
ATOM     26  N   UNL     1      32.646 -22.707 -16.064  0.00  0.00    -0.327 N 
ATOM     27  H   UNL     1      33.159 -22.026 -15.571  0.00  0.00    +0.147 HD
BRANCH  26  29
ATOM     28  N   UNL     1      31.188 -25.027 -13.572  0.00  0.00    -0.228 NA
ATOM     29  C   UNL     1      31.727 -23.462 -15.372  0.00  0.00    +0.077 C 
ATOM     30  C   UNL     1      32.061 -24.271 -14.276  0.00  0.00    +0.139 C 
ATOM     31  C   UNL     1      30.369 -23.461 -15.738  0.00  0.00    +0.019 C 
ATOM     32  C   UNL     1      29.441 -24.225 -15.038  0.00  0.00    +0.022 C 
ATOM     33  C   UNL     1      29.898 -24.984 -13.972  0.00  0.00    +0.100 C 
ATOM     34  N   UNL     1      33.422 -24.296 -13.880  0.00  0.00    -0.342 N 
ATOM     35  H   UNL     1      33.702 -24.849 -13.116  0.00  0.00    +0.144 HD
ATOM     36  H   UNL     1      34.087 -23.759 -14.369  0.00  0.00    +0.144 HD
ENDBRANCH  26  29
ENDBRANCH  25  26
ENDBRANCH   2  25
TORSDOF 7
ENDMDL
MODEL 2
REMARK VINA RESULT:     -11.7      1.270      1.594
REMARK  Name = 11633167
REMARK  7 active torsions:
REMARK  status: ('A' for Active; 'I' for Inactive)
REMARK    1  A    between atoms: C_1  and  C_8
REMARK    2  A    between atoms: C_2  and  C_25
REMARK    3  A    between atoms: C_4  and  O_17
REMARK    4  A    between atoms: O_17  and  C_18
REMARK    5  A    between atoms: C_18  and  C_20
REMARK    6  A    between atoms: C_25  and  N_26
REMARK    7  A    between atoms: N_26  and  C_29
REMARK                            x       y       z     vdW  Elec       q    Type
REMARK                         _______ _______ _______ _____ _____    ______ ____
ROOT
ATOM      1  C   UNL     1      35.153 -20.182 -20.202  0.00  0.00    -0.000 C 
ATOM      2  C   UNL     1      34.196 -21.722 -18.607  0.00  0.00    +0.031 C 
ATOM      3  C   UNL     1      34.042 -20.843 -19.680  0.00  0.00    +0.000 C 
ATOM      4  C   UNL     1      35.459 -21.938 -18.058  0.00  0.00    +0.137 C 
ATOM      5  C   UNL     1      36.417 -20.397 -19.654  0.00  0.00    +0.003 C 
ATOM      6  C   UNL     1      36.570 -21.277 -18.582  0.00  0.00    +0.037 C 
ENDROOT
BRANCH   1   8
ATOM      7  N   UNL     1      35.161 -15.687 -22.315  0.00  0.00    -0.312 N 
ATOM      8  C   UNL     1      34.995 -19.270 -21.315  0.00  0.00    +0.001 C 
ATOM      9  C   UNL     1      35.031 -17.054 -22.216  0.00  0.00    +0.048 C 
ATOM     10  C   UNL     1      34.682 -17.526 -23.485  0.00  0.00    +0.015 C 
ATOM     11  C   UNL     1      35.194 -17.901 -21.114  0.00  0.00    +0.015 C 
ATOM     12  C   UNL     1      34.647 -19.769 -22.568  0.00  0.00    +0.000 C 
ATOM     13  C   UNL     1      34.486 -18.910 -23.662  0.00  0.00    +0.001 C 
ATOM     14  C   UNL     1      34.609 -16.396 -24.345  0.00  0.00    +0.017 C 
ATOM     15  C   UNL     1      34.907 -15.279 -23.597  0.00  0.00    +0.062 C 
ATOM     16  H   UNL     1      35.400 -15.089 -21.571  0.00  0.00    +0.152 HD
ENDBRANCH   1   8
BRANCH   4  17
ATOM     17  O   UNL     1      35.628 -22.792 -17.010  0.00  0.00    -0.469 OA
BRANCH  17  18
ATOM     18  C   UNL     1      36.541 -22.395 -15.990  0.00  0.00    +0.251 C 
BRANCH  18  20
ATOM     19  N   UNL     1      35.949 -24.618 -15.234  0.00  0.00    -0.244 NA
ATOM     20  C   UNL     1      36.694 -23.517 -15.006  0.00  0.00    +0.103 C 
ATOM     21  C   UNL     1      37.567 -23.367 -13.946  0.00  0.00    +0.018 C 
ATOM     22  C   UNL     1      37.685 -24.425 -13.052  0.00  0.00    +0.003 C 
ATOM     23  C   UNL     1      36.090 -25.625 -14.345  0.00  0.00    +0.099 C 
ATOM     24  C   UNL     1      36.936 -25.580 -13.248  0.00  0.00    +0.021 C 
ENDBRANCH  18  20
ENDBRANCH  17  18
ENDBRANCH   4  17
BRANCH   2  25
ATOM     25  C   UNL     1      32.997 -22.422 -18.059  0.00  0.00    +0.117 C 
BRANCH  25  26
ATOM     26  N   UNL     1      33.132 -22.723 -16.634  0.00  0.00    -0.327 N 
ATOM     27  H   UNL     1      34.037 -22.810 -16.255  0.00  0.00    +0.147 HD
BRANCH  26  29
ATOM     28  N   UNL     1      31.138 -23.243 -13.556  0.00  0.00    -0.228 NA
ATOM     29  C   UNL     1      32.054 -22.891 -15.796  0.00  0.00    +0.077 C 
ATOM     30  C   UNL     1      32.172 -23.074 -14.410  0.00  0.00    +0.139 C 
ATOM     31  C   UNL     1      30.740 -22.887 -16.300  0.00  0.00    +0.019 C 
ATOM     32  C   UNL     1      29.650 -23.057 -15.453  0.00  0.00    +0.022 C 
ATOM     33  C   UNL     1      29.901 -23.230 -14.101  0.00  0.00    +0.100 C 
ATOM     34  N   UNL     1      33.482 -23.085 -13.869  0.00  0.00    -0.342 N 
ATOM     35  H   UNL     1      33.613 -23.210 -12.901  0.00  0.00    +0.144 HD
ATOM     36  H   UNL     1      34.261 -22.965 -14.460  0.00  0.00    +0.144 HD
ENDBRANCH  26  29
ENDBRANCH  25  26
ENDBRANCH   2  25
TORSDOF 7
ENDMDL
MODEL 3
REMARK VINA RESULT:     -11.4      1.221      4.739
REMARK  Name = 11633167
REMARK  7 active torsions:
REMARK  status: ('A' for Active; 'I' for Inactive)
REMARK    1  A    between atoms: C_1  and  C_8
REMARK    2  A    between atoms: C_2  and  C_25
REMARK    3  A    between atoms: C_4  and  O_17
REMARK    4  A    between atoms: O_17  and  C_18
REMARK    5  A    between atoms: C_18  and  C_20
REMARK    6  A    between atoms: C_25  and  N_26
REMARK    7  A    between atoms: N_26  and  C_29
REMARK                            x       y       z     vdW  Elec       q    Type
REMARK                         _______ _______ _______ _____ _____    ______ ____
ROOT
ATOM      1  C   UNL     1      34.982 -21.502 -18.524  0.00  0.00    -0.000 C 
ATOM      2  C   UNL     1      35.702 -22.507 -16.450  0.00  0.00    +0.031 C 
ATOM      3  C   UNL     1      35.954 -21.673 -17.540  0.00  0.00    +0.000 C 
ATOM      4  C   UNL     1      34.480 -23.169 -16.346  0.00  0.00    +0.137 C 
ATOM      5  C   UNL     1      33.759 -22.163 -18.421  0.00  0.00    +0.003 C 
ATOM      6  C   UNL     1      33.507 -22.996 -17.330  0.00  0.00    +0.037 C 
ENDROOT
BRANCH   1   8
ATOM      7  N   UNL     1      33.733 -19.159 -22.721  0.00  0.00    -0.312 N 
ATOM      8  C   UNL     1      35.242 -20.637 -19.656  0.00  0.00    +0.001 C 
ATOM      9  C   UNL     1      34.521 -19.562 -21.667  0.00  0.00    +0.048 C 
ATOM     10  C   UNL     1      35.771 -18.960 -21.836  0.00  0.00    +0.015 C 
ATOM     11  C   UNL     1      34.228 -20.405 -20.589  0.00  0.00    +0.015 C 
ATOM     12  C   UNL     1      36.497 -20.050 -19.797  0.00  0.00    +0.000 C 
ATOM     13  C   UNL     1      36.777 -19.210 -20.881  0.00  0.00    +0.001 C 
ATOM     14  C   UNL     1      35.703 -18.182 -23.024  0.00  0.00    +0.017 C 
ATOM     15  C   UNL     1      34.438 -18.325 -23.548  0.00  0.00    +0.062 C 
ATOM     16  H   UNL     1      32.797 -19.432 -22.862  0.00  0.00    +0.152 HD
ENDBRANCH   1   8
BRANCH   4  17
ATOM     17  O   UNL     1      34.217 -23.987 -15.289  0.00  0.00    -0.469 OA
BRANCH  17  18
ATOM     18  C   UNL     1      33.533 -23.411 -14.178  0.00  0.00    +0.251 C 
BRANCH  18  20
ATOM     19  N   UNL     1      31.719 -24.980 -13.850  0.00  0.00    -0.244 NA
ATOM     20  C   UNL     1      32.075 -23.750 -14.271  0.00  0.00    +0.103 C 
ATOM     21  C   UNL     1      31.197 -22.807 -14.769  0.00  0.00    +0.018 C 
ATOM     22  C   UNL     1      29.852 -23.152 -14.843  0.00  0.00    +0.003 C 
ATOM     23  C   UNL     1      30.404 -25.280 -13.936  0.00  0.00    +0.099 C 
ATOM     24  C   UNL     1      29.440 -24.411 -14.420  0.00  0.00    +0.021 C 
ENDBRANCH  18  20
ENDBRANCH  17  18
ENDBRANCH   4  17
BRANCH   2  25
ATOM     25  C   UNL     1      36.754 -22.680 -15.405  0.00  0.00    +0.117 C 
BRANCH  25  26
ATOM     26  N   UNL     1      37.073 -24.088 -15.164  0.00  0.00    -0.327 N 
ATOM     27  H   UNL     1      37.185 -24.684 -15.940  0.00  0.00    +0.147 HD
BRANCH  26  29
ATOM     28  N   UNL     1      36.828 -26.421 -12.298  0.00  0.00    -0.228 NA
ATOM     29  C   UNL     1      37.222 -24.619 -13.904  0.00  0.00    +0.077 C 
ATOM     30  C   UNL     1      36.703 -25.866 -13.524  0.00  0.00    +0.139 C 
ATOM     31  C   UNL     1      37.923 -23.921 -12.904  0.00  0.00    +0.019 C 
ATOM     32  C   UNL     1      38.074 -24.459 -11.630  0.00  0.00    +0.022 C 
ATOM     33  C   UNL     1      37.512 -25.701 -11.381  0.00  0.00    +0.100 C 
ATOM     34  N   UNL     1      35.990 -26.597 -14.508  0.00  0.00    -0.342 N 
ATOM     35  H   UNL     1      35.608 -27.477 -14.286  0.00  0.00    +0.144 HD
ATOM     36  H   UNL     1      35.877 -26.225 -15.413  0.00  0.00    +0.144 HD
ENDBRANCH  26  29
ENDBRANCH  25  26
ENDBRANCH   2  25
TORSDOF 7
ENDMDL
MODEL 4
REMARK VINA RESULT:     -11.1      1.584      4.703
REMARK  Name = 11633167
REMARK  7 active torsions:
REMARK  status: ('A' for Active; 'I' for Inactive)
REMARK    1  A    between atoms: C_1  and  C_8
REMARK    2  A    between atoms: C_2  and  C_25
REMARK    3  A    between atoms: C_4  and  O_17
REMARK    4  A    between atoms: O_17  and  C_18
REMARK    5  A    between atoms: C_18  and  C_20
REMARK    6  A    between atoms: C_25  and  N_26
REMARK    7  A    between atoms: N_26  and  C_29
REMARK                            x       y       z     vdW  Elec       q    Type
REMARK                         _______ _______ _______ _____ _____    ______ ____
ROOT
ATOM      1  C   UNL     1      34.542 -20.206 -20.225  0.00  0.00    -0.000 C 
ATOM      2  C   UNL     1      35.633 -21.466 -18.477  0.00  0.00    +0.031 C 
ATOM      3  C   UNL     1      35.704 -20.574 -19.548  0.00  0.00    +0.000 C 
ATOM      4  C   UNL     1      34.401 -21.987 -18.084  0.00  0.00    +0.137 C 
ATOM      5  C   UNL     1      33.310 -20.726 -19.833  0.00  0.00    +0.003 C 
ATOM      6  C   UNL     1      33.239 -21.617 -18.761  0.00  0.00    +0.037 C 
ENDROOT
BRANCH   1   8
ATOM      7  N   UNL     1      35.151 -15.712 -22.250  0.00  0.00    -0.312 N 
ATOM      8  C   UNL     1      34.615 -19.281 -21.337  0.00  0.00    +0.001 C 
ATOM      9  C   UNL     1      34.926 -17.068 -22.191  0.00  0.00    +0.048 C 
ATOM     10  C   UNL     1      34.753 -17.513 -23.505  0.00  0.00    +0.015 C 
ATOM     11  C   UNL     1      34.863 -17.928 -21.089  0.00  0.00    +0.015 C 
ATOM     12  C   UNL     1      34.439 -19.753 -22.635  0.00  0.00    +0.000 C 
ATOM     13  C   UNL     1      34.504 -18.882 -23.729  0.00  0.00    +0.001 C 
ATOM     14  C   UNL     1      34.884 -16.377 -24.351  0.00  0.00    +0.017 C 
ATOM     15  C   UNL     1      35.127 -15.284 -23.550  0.00  0.00    +0.062 C 
ATOM     16  H   UNL     1      35.307 -15.132 -21.469  0.00  0.00    +0.152 HD
ENDBRANCH   1   8
BRANCH   4  17
ATOM     17  O   UNL     1      34.313 -22.858 -17.041  0.00  0.00    -0.469 OA
BRANCH  17  18
ATOM     18  C   UNL     1      33.236 -23.792 -17.065  0.00  0.00    +0.251 C 
BRANCH  18  20
ATOM     19  N   UNL     1      32.849 -23.929 -14.679  0.00  0.00    -0.244 NA
ATOM     20  C   UNL     1      32.354 -23.553 -15.875  0.00  0.00    +0.103 C 
ATOM     21  C   UNL     1      31.114 -22.976 -16.065  0.00  0.00    +0.018 C 
ATOM     22  C   UNL     1      30.320 -22.768 -14.942  0.00  0.00    +0.003 C 
ATOM     23  C   UNL     1      32.050 -23.711 -13.611  0.00  0.00    +0.099 C 
ATOM     24  C   UNL     1      30.790 -23.140 -13.687  0.00  0.00    +0.021 C 
ENDBRANCH  18  20
ENDBRANCH  17  18
ENDBRANCH   4  17
BRANCH   2  25
ATOM     25  C   UNL     1      36.886 -21.850 -17.763  0.00  0.00    +0.117 C 
BRANCH  25  26
ATOM     26  N   UNL     1      36.777 -21.675 -16.315  0.00  0.00    -0.327 N 
ATOM     27  H   UNL     1      36.388 -20.839 -15.970  0.00  0.00    +0.147 HD
BRANCH  26  29
ATOM     28  N   UNL     1      36.819 -23.923 -13.371  0.00  0.00    -0.228 NA
ATOM     29  C   UNL     1      37.191 -22.625 -15.410  0.00  0.00    +0.077 C 
ATOM     30  C   UNL     1      36.445 -22.996 -14.281  0.00  0.00    +0.139 C 
ATOM     31  C   UNL     1      38.419 -23.292 -15.575  0.00  0.00    +0.019 C 
ATOM     32  C   UNL     1      38.838 -24.252 -14.659  0.00  0.00    +0.022 C 
ATOM     33  C   UNL     1      38.008 -24.528 -13.584  0.00  0.00    +0.100 C 
ATOM     34  N   UNL     1      35.202 -22.342 -14.084  0.00  0.00    -0.342 N 
ATOM     35  H   UNL     1      34.645 -22.571 -13.306  0.00  0.00    +0.144 HD
ATOM     36  H   UNL     1      34.897 -21.661 -14.726  0.00  0.00    +0.144 HD
ENDBRANCH  26  29
ENDBRANCH  25  26
ENDBRANCH   2  25
TORSDOF 7
ENDMDL
MODEL 5
REMARK VINA RESULT:     -11.0      1.522      2.585
REMARK  Name = 11633167
REMARK  7 active torsions:
REMARK  status: ('A' for Active; 'I' for Inactive)
REMARK    1  A    between atoms: C_1  and  C_8
REMARK    2  A    between atoms: C_2  and  C_25
REMARK    3  A    between atoms: C_4  and  O_17
REMARK    4  A    between atoms: O_17  and  C_18
REMARK    5  A    between atoms: C_18  and  C_20
REMARK    6  A    between atoms: C_25  and  N_26
REMARK    7  A    between atoms: N_26  and  C_29
REMARK                            x       y       z     vdW  Elec       q    Type
REMARK                         _______ _______ _______ _____ _____    ______ ____
ROOT
ATOM      1  C   UNL     1      35.283 -21.961 -17.497  0.00  0.00    -0.000 C 
ATOM      2  C   UNL     1      34.650 -23.372 -15.643  0.00  0.00    +0.031 C 
ATOM      3  C   UNL     1      34.313 -22.693 -16.815  0.00  0.00    +0.000 C 
ATOM      4  C   UNL     1      35.955 -23.317 -15.156  0.00  0.00    +0.137 C 
ATOM      5  C   UNL     1      36.589 -21.905 -17.011  0.00  0.00    +0.003 C 
ATOM      6  C   UNL     1      36.925 -22.585 -15.840  0.00  0.00    +0.037 C 
ENDROOT
BRANCH   1   8
ATOM      7  N   UNL     1      36.315 -19.233 -21.517  0.00  0.00    -0.312 N 
ATOM      8  C   UNL     1      34.935 -21.256 -18.713  0.00  0.00    +0.001 C 
ATOM      9  C   UNL     1      35.558 -19.942 -20.613  0.00  0.00    +0.048 C 
ATOM     10  C   UNL     1      34.236 -19.901 -21.063  0.00  0.00    +0.015 C 
ATOM     11  C   UNL     1      35.937 -20.611 -19.444  0.00  0.00    +0.015 C 
ATOM     12  C   UNL     1      33.609 -21.231 -19.137  0.00  0.00    +0.000 C 
ATOM     13  C   UNL     1      33.243 -20.558 -20.309  0.00  0.00    +0.001 C 
ATOM     14  C   UNL     1      34.228 -19.144 -22.267  0.00  0.00    +0.017 C 
ATOM     15  C   UNL     1      35.520 -18.746 -22.520  0.00  0.00    +0.062 C 
ATOM     16  H   UNL     1      37.288 -19.095 -21.453  0.00  0.00    +0.152 HD
ENDBRANCH   1   8
BRANCH   4  17
ATOM     17  O   UNL     1      36.301 -23.973 -14.013  0.00  0.00    -0.469 OA
BRANCH  17  18
ATOM     18  C   UNL     1      37.597 -23.709 -13.480  0.00  0.00    +0.251 C 
BRANCH  18  20
ATOM     19  N   UNL     1      39.673 -24.623 -14.327  0.00  0.00    -0.244 NA
ATOM     20  C   UNL     1      38.486 -24.888 -13.745  0.00  0.00    +0.103 C 
ATOM     21  C   UNL     1      38.052 -26.150 -13.388  0.00  0.00    +0.018 C 
ATOM     22  C   UNL     1      38.899 -27.221 -13.647  0.00  0.00    +0.003 C 
ATOM     23  C   UNL     1      40.470 -25.689 -14.563  0.00  0.00    +0.099 C 
ATOM     24  C   UNL     1      40.133 -26.995 -14.246  0.00  0.00    +0.021 C 
ENDBRANCH  18  20
ENDBRANCH  17  18
ENDBRANCH   4  17
BRANCH   2  25
ATOM     25  C   UNL     1      33.600 -24.151 -14.923  0.00  0.00    +0.117 C 
BRANCH  25  26
ATOM     26  N   UNL     1      32.501 -23.305 -14.457  0.00  0.00    -0.327 N 
ATOM     27  H   UNL     1      32.707 -22.559 -13.849  0.00  0.00    +0.147 HD
BRANCH  26  29
ATOM     28  N   UNL     1      29.034 -24.608 -14.503  0.00  0.00    -0.228 NA
ATOM     29  C   UNL     1      31.191 -23.503 -14.829  0.00  0.00    +0.077 C 
ATOM     30  C   UNL     1      30.324 -24.386 -14.168  0.00  0.00    +0.139 C 
ATOM     31  C   UNL     1      30.638 -22.810 -15.922  0.00  0.00    +0.019 C 
ATOM     32  C   UNL     1      29.313 -23.011 -16.297  0.00  0.00    +0.022 C 
ATOM     33  C   UNL     1      28.561 -23.913 -15.561  0.00  0.00    +0.100 C 
ATOM     34  N   UNL     1      30.850 -25.101 -13.062  0.00  0.00    -0.342 N 
ATOM     35  H   UNL     1      30.278 -25.732 -12.568  0.00  0.00    +0.144 HD
ATOM     36  H   UNL     1      31.786 -24.967 -12.788  0.00  0.00    +0.144 HD
ENDBRANCH  26  29
ENDBRANCH  25  26
ENDBRANCH   2  25
TORSDOF 7
ENDMDL
MODEL 6
REMARK VINA RESULT:     -10.8      1.533      4.794
REMARK  Name = 11633167
REMARK  7 active torsions:
REMARK  status: ('A' for Active; 'I' for Inactive)
REMARK    1  A    between atoms: C_1  and  C_8
REMARK    2  A    between atoms: C_2  and  C_25
REMARK    3  A    between atoms: C_4  and  O_17
REMARK    4  A    between atoms: O_17  and  C_18
REMARK    5  A    between atoms: C_18  and  C_20
REMARK    6  A    between atoms: C_25  and  N_26
REMARK    7  A    between atoms: N_26  and  C_29
REMARK                            x       y       z     vdW  Elec       q    Type
REMARK                         _______ _______ _______ _____ _____    ______ ____
ROOT
ATOM      1  C   UNL     1      34.569 -21.415 -18.665  0.00  0.00    -0.000 C 
ATOM      2  C   UNL     1      35.170 -22.600 -16.648  0.00  0.00    +0.031 C 
ATOM      3  C   UNL     1      35.531 -21.796 -17.730  0.00  0.00    +0.000 C 
ATOM      4  C   UNL     1      33.849 -23.022 -16.503  0.00  0.00    +0.137 C 
ATOM      5  C   UNL     1      33.248 -21.836 -18.520  0.00  0.00    +0.003 C 
ATOM      6  C   UNL     1      32.888 -22.640 -17.438  0.00  0.00    +0.037 C 
ENDROOT
BRANCH   1   8
ATOM      7  N   UNL     1      33.689 -19.037 -22.935  0.00  0.00    -0.312 N 
ATOM      8  C   UNL     1      34.943 -20.581 -19.788  0.00  0.00    +0.001 C 
ATOM      9  C   UNL     1      34.396 -19.481 -21.841  0.00  0.00    +0.048 C 
ATOM     10  C   UNL     1      35.689 -18.965 -21.950  0.00  0.00    +0.015 C 
ATOM     11  C   UNL     1      33.993 -20.291 -20.772  0.00  0.00    +0.015 C 
ATOM     12  C   UNL     1      36.240 -20.081 -19.871  0.00  0.00    +0.000 C 
ATOM     13  C   UNL     1      36.629 -19.272 -20.946  0.00  0.00    +0.001 C 
ATOM     14  C   UNL     1      35.733 -18.196 -23.146  0.00  0.00    +0.017 C 
ATOM     15  C   UNL     1      34.488 -18.261 -23.731  0.00  0.00    +0.062 C 
ATOM     16  H   UNL     1      32.745 -19.248 -23.120  0.00  0.00    +0.152 HD
ENDBRANCH   1   8
BRANCH   4  17
ATOM     17  O   UNL     1      33.480 -23.807 -15.453  0.00  0.00    -0.469 OA
BRANCH  17  18
ATOM     18  C   UNL     1      32.654 -23.210 -14.455  0.00  0.00    +0.251 C 
BRANCH  18  20
ATOM     19  N   UNL     1      30.371 -22.931 -15.210  0.00  0.00    -0.244 NA
ATOM     20  C   UNL     1      31.257 -23.739 -14.595  0.00  0.00    +0.103 C 
ATOM     21  C   UNL     1      30.961 -24.994 -14.099  0.00  0.00    +0.018 C 
ATOM     22  C   UNL     1      29.658 -25.454 -14.244  0.00  0.00    +0.003 C 
ATOM     23  C   UNL     1      29.114 -23.412 -15.333  0.00  0.00    +0.099 C 
ATOM     24  C   UNL     1      28.710 -24.655 -14.872  0.00  0.00    +0.021 C 
ENDBRANCH  18  20
ENDBRANCH  17  18
ENDBRANCH   4  17
BRANCH   2  25
ATOM     25  C   UNL     1      36.212 -22.999 -15.656  0.00  0.00    +0.117 C 
BRANCH  25  26
ATOM     26  N   UNL     1      35.788 -22.754 -14.277  0.00  0.00    -0.327 N 
ATOM     27  H   UNL     1      35.110 -22.060 -14.110  0.00  0.00    +0.147 HD
BRANCH  26  29
ATOM     28  N   UNL     1      36.510 -25.521 -11.923  0.00  0.00    -0.228 NA
ATOM     29  C   UNL     1      36.294 -23.447 -13.202  0.00  0.00    +0.077 C 
ATOM     30  C   UNL     1      36.033 -24.806 -12.967  0.00  0.00    +0.139 C 
ATOM     31  C   UNL     1      37.120 -22.813 -12.257  0.00  0.00    +0.019 C 
ATOM     32  C   UNL     1      37.631 -23.515 -11.170  0.00  0.00    +0.022 C 
ATOM     33  C   UNL     1      37.298 -24.855 -11.050  0.00  0.00    +0.100 C 
ATOM     34  N   UNL     1      35.203 -25.477 -13.900  0.00  0.00    -0.342 N 
ATOM     35  H   UNL     1      34.993 -26.430 -13.775  0.00  0.00    +0.144 HD
ATOM     36  H   UNL     1      34.836 -24.989 -14.673  0.00  0.00    +0.144 HD
ENDBRANCH  26  29
ENDBRANCH  25  26
ENDBRANCH   2  25
TORSDOF 7
ENDMDL
MODEL 7
REMARK VINA RESULT:     -10.8      2.494      8.890
REMARK  Name = 11633167
REMARK  7 active torsions:
REMARK  status: ('A' for Active; 'I' for Inactive)
REMARK    1  A    between atoms: C_1  and  C_8
REMARK    2  A    between atoms: C_2  and  C_25
REMARK    3  A    between atoms: C_4  and  O_17
REMARK    4  A    between atoms: O_17  and  C_18
REMARK    5  A    between atoms: C_18  and  C_20
REMARK    6  A    between atoms: C_25  and  N_26
REMARK    7  A    between atoms: N_26  and  C_29
REMARK                            x       y       z     vdW  Elec       q    Type
REMARK                         _______ _______ _______ _____ _____    ______ ____
ROOT
ATOM      1  C   UNL     1      34.514 -23.953 -14.147  0.00  0.00    -0.000 C 
ATOM      2  C   UNL     1      32.913 -23.095 -15.738  0.00  0.00    +0.031 C 
ATOM      3  C   UNL     1      34.205 -23.527 -15.438  0.00  0.00    +0.000 C 
ATOM      4  C   UNL     1      31.932 -23.089 -14.747  0.00  0.00    +0.137 C 
ATOM      5  C   UNL     1      33.533 -23.948 -13.156  0.00  0.00    +0.003 C 
ATOM      6  C   UNL     1      32.241 -23.517 -13.456  0.00  0.00    +0.037 C 
ENDROOT
BRANCH   1   8
ATOM      7  N   UNL     1      39.321 -24.673 -15.166  0.00  0.00    -0.312 N 
ATOM      8  C   UNL     1      35.855 -24.401 -13.834  0.00  0.00    +0.001 C 
ATOM      9  C   UNL     1      38.149 -24.694 -14.443  0.00  0.00    +0.048 C 
ATOM     10  C   UNL     1      38.441 -25.275 -13.206  0.00  0.00    +0.015 C 
ATOM     11  C   UNL     1      36.868 -24.248 -14.785  0.00  0.00    +0.015 C 
ATOM     12  C   UNL     1      36.115 -24.976 -12.593  0.00  0.00    +0.000 C 
ATOM     13  C   UNL     1      37.402 -25.419 -12.264  0.00  0.00    +0.001 C 
ATOM     14  C   UNL     1      39.825 -25.599 -13.212  0.00  0.00    +0.017 C 
ATOM     15  C   UNL     1      40.340 -25.219 -14.431  0.00  0.00    +0.062 C 
ATOM     16  H   UNL     1      39.413 -24.318 -16.079  0.00  0.00    +0.152 HD
ENDBRANCH   1   8
BRANCH   4  17
ATOM     17  O   UNL     1      30.665 -22.671 -15.023  0.00  0.00    -0.469 OA
BRANCH  17  18
ATOM     18  C   UNL     1      29.714 -23.672 -15.378  0.00  0.00    +0.251 C 
BRANCH  18  20
ATOM     19  N   UNL     1      28.192 -22.886 -17.089  0.00  0.00    -0.244 NA
ATOM     20  C   UNL     1      28.426 -23.009 -15.767  0.00  0.00    +0.103 C 
ATOM     21  C   UNL     1      27.570 -22.571 -14.775  0.00  0.00    +0.018 C 
ATOM     22  C   UNL     1      26.385 -21.961 -15.169  0.00  0.00    +0.003 C 
ATOM     23  C   UNL     1      27.030 -22.287 -17.434  0.00  0.00    +0.099 C 
ATOM     24  C   UNL     1      26.101 -21.812 -16.522  0.00  0.00    +0.021 C 
ENDBRANCH  18  20
ENDBRANCH  17  18
ENDBRANCH   4  17
BRANCH   2  25
ATOM     25  C   UNL     1      32.598 -22.641 -17.125  0.00  0.00    +0.117 C 
BRANCH  25  26
ATOM     26  N   UNL     1      33.773 -22.663 -17.996  0.00  0.00    -0.327 N 
ATOM     27  H   UNL     1      34.379 -23.438 -17.951  0.00  0.00    +0.147 HD
BRANCH  26  29
ATOM     28  N   UNL     1      35.702 -20.146 -19.911  0.00  0.00    -0.228 NA
ATOM     29  C   UNL     1      34.074 -21.650 -18.878  0.00  0.00    +0.077 C 
ATOM     30  C   UNL     1      35.368 -21.139 -19.057  0.00  0.00    +0.139 C 
ATOM     31  C   UNL     1      33.070 -21.058 -19.667  0.00  0.00    +0.019 C 
ATOM     32  C   UNL     1      33.375 -20.034 -20.558  0.00  0.00    +0.022 C 
ATOM     33  C   UNL     1      34.694 -19.618 -20.641  0.00  0.00    +0.100 C 
ATOM     34  N   UNL     1      36.404 -21.713 -18.277  0.00  0.00    -0.342 N 
ATOM     35  H   UNL     1      37.327 -21.386 -18.369  0.00  0.00    +0.144 HD
ATOM     36  H   UNL     1      36.199 -22.438 -17.643  0.00  0.00    +0.144 HD
ENDBRANCH  26  29
ENDBRANCH  25  26
ENDBRANCH   2  25
TORSDOF 7
ENDMDL
MODEL 8
REMARK VINA RESULT:     -10.8      1.669      5.635
REMARK  Name = 11633167
REMARK  7 active torsions:
REMARK  status: ('A' for Active; 'I' for Inactive)
REMARK    1  A    between atoms: C_1  and  C_8
REMARK    2  A    between atoms: C_2  and  C_25
REMARK    3  A    between atoms: C_4  and  O_17
REMARK    4  A    between atoms: O_17  and  C_18
REMARK    5  A    between atoms: C_18  and  C_20
REMARK    6  A    between atoms: C_25  and  N_26
REMARK    7  A    between atoms: N_26  and  C_29
REMARK                            x       y       z     vdW  Elec       q    Type
REMARK                         _______ _______ _______ _____ _____    ______ ____
ROOT
ATOM      1  C   UNL     1      34.598 -21.967 -17.880  0.00  0.00    -0.000 C 
ATOM      2  C   UNL     1      35.382 -23.065 -15.876  0.00  0.00    +0.031 C 
ATOM      3  C   UNL     1      35.622 -22.233 -16.970  0.00  0.00    +0.000 C 
ATOM      4  C   UNL     1      34.120 -23.630 -15.693  0.00  0.00    +0.137 C 
ATOM      5  C   UNL     1      33.337 -22.531 -17.697  0.00  0.00    +0.003 C 
ATOM      6  C   UNL     1      33.097 -23.362 -16.603  0.00  0.00    +0.037 C 
ENDROOT
BRANCH   1   8
ATOM      7  N   UNL     1      37.483 -19.192 -20.820  0.00  0.00    -0.312 N 
ATOM      8  C   UNL     1      34.847 -21.104 -19.015  0.00  0.00    +0.001 C 
ATOM      9  C   UNL     1      36.338 -19.797 -20.354  0.00  0.00    +0.048 C 
ATOM     10  C   UNL     1      35.302 -19.436 -21.219  0.00  0.00    +0.015 C 
ATOM     11  C   UNL     1      36.141 -20.629 -19.245  0.00  0.00    +0.015 C 
ATOM     12  C   UNL     1      33.795 -20.761 -19.861  0.00  0.00    +0.000 C 
ATOM     13  C   UNL     1      34.006 -19.928 -20.966  0.00  0.00    +0.001 C 
ATOM     14  C   UNL     1      35.866 -18.596 -22.219  0.00  0.00    +0.017 C 
ATOM     15  C   UNL     1      37.208 -18.463 -21.946  0.00  0.00    +0.062 C 
ATOM     16  H   UNL     1      38.372 -19.271 -20.403  0.00  0.00    +0.152 HD
ENDBRANCH   1   8
BRANCH   4  17
ATOM     17  O   UNL     1      33.868 -24.444 -14.631  0.00  0.00    -0.469 OA
BRANCH  17  18
ATOM     18  C   UNL     1      33.055 -23.915 -13.586  0.00  0.00    +0.251 C 
BRANCH  18  20
ATOM     19  N   UNL     1      31.136 -25.314 -14.056  0.00  0.00    -0.244 NA
ATOM     20  C   UNL     1      31.612 -24.055 -13.969  0.00  0.00    +0.103 C 
ATOM     21  C   UNL     1      30.866 -22.917 -14.206  0.00  0.00    +0.018 C 
ATOM     22  C   UNL     1      29.532 -23.082 -14.559  0.00  0.00    +0.003 C 
ATOM     23  C   UNL     1      29.835 -25.435 -14.401  0.00  0.00    +0.099 C 
ATOM     24  C   UNL     1      28.998 -24.362 -14.661  0.00  0.00    +0.021 C 
ENDBRANCH  18  20
ENDBRANCH  17  18
ENDBRANCH   4  17
BRANCH   2  25
ATOM     25  C   UNL     1      36.487 -23.340 -14.912  0.00  0.00    +0.117 C 
BRANCH  25  26
ATOM     26  N   UNL     1      36.571 -24.756 -14.552  0.00  0.00    -0.327 N 
ATOM     27  H   UNL     1      35.737 -25.243 -14.360  0.00  0.00    +0.147 HD
BRANCH  26  29
ATOM     28  N   UNL     1      39.052 -27.499 -14.740  0.00  0.00    -0.228 NA
ATOM     29  C   UNL     1      37.761 -25.440 -14.467  0.00  0.00    +0.077 C 
ATOM     30  C   UNL     1      37.902 -26.793 -14.811  0.00  0.00    +0.139 C 
ATOM     31  C   UNL     1      38.931 -24.801 -14.018  0.00  0.00    +0.019 C 
ATOM     32  C   UNL     1      40.135 -25.494 -13.932  0.00  0.00    +0.022 C 
ATOM     33  C   UNL     1      40.141 -26.830 -14.302  0.00  0.00    +0.100 C 
ATOM     34  N   UNL     1      36.741 -27.469 -15.267  0.00  0.00    -0.342 N 
ATOM     35  H   UNL     1      36.793 -28.418 -15.520  0.00  0.00    +0.144 HD
ATOM     36  H   UNL     1      35.884 -26.987 -15.331  0.00  0.00    +0.144 HD
ENDBRANCH  26  29
ENDBRANCH  25  26
ENDBRANCH   2  25
TORSDOF 7
ENDMDL
MODEL 9
REMARK VINA RESULT:     -10.3      2.290      7.093
REMARK  Name = 11633167
REMARK  7 active torsions:
REMARK  status: ('A' for Active; 'I' for Inactive)
REMARK    1  A    between atoms: C_1  and  C_8
REMARK    2  A    between atoms: C_2  and  C_25
REMARK    3  A    between atoms: C_4  and  O_17
REMARK    4  A    between atoms: O_17  and  C_18
REMARK    5  A    between atoms: C_18  and  C_20
REMARK    6  A    between atoms: C_25  and  N_26
REMARK    7  A    between atoms: N_26  and  C_29
REMARK                            x       y       z     vdW  Elec       q    Type
REMARK                         _______ _______ _______ _____ _____    ______ ____
ROOT
ATOM      1  C   UNL     1      33.392 -23.519 -14.514  0.00  0.00    -0.000 C 
ATOM      2  C   UNL     1      35.517 -22.783 -15.395  0.00  0.00    +0.031 C 
ATOM      3  C   UNL     1      34.140 -22.954 -15.546  0.00  0.00    +0.000 C 
ATOM      4  C   UNL     1      36.143 -23.178 -14.214  0.00  0.00    +0.137 C 
ATOM      5  C   UNL     1      34.018 -23.914 -13.333  0.00  0.00    +0.003 C 
ATOM      6  C   UNL     1      35.394 -23.743 -13.182  0.00  0.00    +0.037 C 
ENDROOT
BRANCH   1   8
ATOM      7  N   UNL     1      28.995 -22.608 -16.634  0.00  0.00    -0.312 N 
ATOM      8  C   UNL     1      31.964 -23.697 -14.670  0.00  0.00    +0.001 C 
ATOM      9  C   UNL     1      29.906 -23.173 -15.771  0.00  0.00    +0.048 C 
ATOM     10  C   UNL     1      29.200 -24.058 -14.952  0.00  0.00    +0.015 C 
ATOM     11  C   UNL     1      31.286 -22.972 -15.654  0.00  0.00    +0.015 C 
ATOM     12  C   UNL     1      31.287 -24.586 -13.839  0.00  0.00    +0.000 C 
ATOM     13  C   UNL     1      29.906 -24.778 -13.967  0.00  0.00    +0.001 C 
ATOM     14  C   UNL     1      27.837 -24.005 -15.355  0.00  0.00    +0.017 C 
ATOM     15  C   UNL     1      27.741 -23.103 -16.390  0.00  0.00    +0.062 C 
ATOM     16  H   UNL     1      29.212 -21.943 -17.327  0.00  0.00    +0.152 HD
ENDBRANCH   1   8
BRANCH   4  17
ATOM     17  O   UNL     1      37.486 -23.019 -14.050  0.00  0.00    -0.469 OA
BRANCH  17  18
ATOM     18  C   UNL     1      38.097 -23.728 -12.974  0.00  0.00    +0.251 C 
BRANCH  18  20
ATOM     19  N   UNL     1      39.786 -24.743 -14.379  0.00  0.00    -0.244 NA
ATOM     20  C   UNL     1      38.773 -24.953 -13.515  0.00  0.00    +0.103 C 
ATOM     21  C   UNL     1      38.334 -26.197 -13.108  0.00  0.00    +0.018 C 
ATOM     22  C   UNL     1      38.982 -27.312 -13.628  0.00  0.00    +0.003 C 
ATOM     23  C   UNL     1      40.392 -25.849 -14.864  0.00  0.00    +0.099 C 
ATOM     24  C   UNL     1      40.033 -27.143 -14.523  0.00  0.00    +0.021 C 
ENDBRANCH  18  20
ENDBRANCH  17  18
ENDBRANCH   4  17
BRANCH   2  25
ATOM     25  C   UNL     1      36.303 -22.177 -16.510  0.00  0.00    +0.117 C 
BRANCH  25  26
ATOM     26  N   UNL     1      35.735 -22.483 -17.822  0.00  0.00    -0.327 N 
ATOM     27  H   UNL     1      35.552 -23.424 -18.048  0.00  0.00    +0.147 HD
BRANCH  26  29
ATOM     28  N   UNL     1      33.820 -20.327 -20.148  0.00  0.00    -0.228 NA
ATOM     29  C   UNL     1      35.443 -21.518 -18.758  0.00  0.00    +0.077 C 
ATOM     30  C   UNL     1      34.146 -21.265 -19.230  0.00  0.00    +0.139 C 
ATOM     31  C   UNL     1      36.458 -20.712 -19.306  0.00  0.00    +0.019 C 
ATOM     32  C   UNL     1      36.162 -19.736 -20.252  0.00  0.00    +0.022 C 
ATOM     33  C   UNL     1      34.839 -19.586 -20.636  0.00  0.00    +0.100 C 
ATOM     34  N   UNL     1      33.098 -22.059 -18.699  0.00  0.00    -0.342 N 
ATOM     35  H   UNL     1      32.172 -21.917 -19.001  0.00  0.00    +0.144 HD
ATOM     36  H   UNL     1      33.297 -22.753 -18.029  0.00  0.00    +0.144 HD
ENDBRANCH  26  29
ENDBRANCH  25  26
ENDBRANCH   2  25
TORSDOF 7
ENDMDL
