MODEL 1
REMARK VINA RESULT:     -11.2      0.000      0.000
REMARK  Name = 118598754
REMARK  1 active torsions:
REMARK  status: ('A' for Active; 'I' for Inactive)
REMARK    1  A    between atoms: C_15  and  N_19
REMARK                            x       y       z     vdW  Elec       q    Type
REMARK                         _______ _______ _______ _____ _____    ______ ____
ROOT
ATOM      1  O   UNL     1      32.010 -24.445 -12.624  0.00  0.00    -0.269 OA
ATOM      2  O   UNL     1      36.582 -23.137 -16.008  0.00  0.00    -0.268 OA
ATOM      3  N   UNL     1      34.762 -23.658 -14.663  0.00  0.00    -0.238 N 
ATOM      4  N   UNL     1      34.349 -24.473 -12.554  0.00  0.00    -0.288 N 
ATOM      5  C   UNL     1      35.457 -24.132 -13.439  0.00  0.00    +0.124 C 
ATOM      6  C   UNL     1      36.303 -25.388 -13.724  0.00  0.00    +0.038 C 
ATOM      7  C   UNL     1      36.305 -23.011 -12.805  0.00  0.00    +0.038 C 
ATOM      8  C   UNL     1      37.101 -23.493 -11.591  0.00  0.00    +0.003 C 
ATOM      9  C   UNL     1      37.100 -25.849 -12.503  0.00  0.00    +0.003 C 
ATOM     10  C   UNL     1      37.945 -24.720 -11.921  0.00  0.00    +0.000 C 
ATOM     11  C   UNL     1      33.390 -23.726 -14.486  0.00  0.00    +0.105 C 
ATOM     12  C   UNL     1      33.102 -24.251 -13.126  0.00  0.00    +0.260 C 
ATOM     13  C   UNL     1      35.368 -23.208 -15.829  0.00  0.00    +0.267 C 
ATOM     14  C   UNL     1      32.533 -23.355 -15.448  0.00  0.00    -0.002 C 
ATOM     15  C   UNL     1      34.421 -22.786 -16.922  0.00  0.00    +0.104 C 
ATOM     16  C   UNL     1      33.099 -22.872 -16.697  0.00  0.00    +0.016 C 
ATOM     17  C   UNL     1      31.035 -23.378 -15.386  0.00  0.00    +0.033 C 
ATOM     18  H   UNL     1      34.471 -24.825 -11.643  0.00  0.00    +0.151 HD
ENDROOT
BRANCH  15  19
ATOM     19  N   UNL     1      34.991 -22.339 -18.080  0.00  0.00    -0.298 N 
ATOM     20  N   UNL     1      33.121 -21.414 -19.197  0.00  0.00    -0.233 NA
ATOM     21  N   UNL     1      33.456 -19.718 -20.876  0.00  0.00    -0.234 NA
ATOM     22  C   UNL     1      34.459 -21.454 -19.024  0.00  0.00    +0.113 C 
ATOM     23  C   UNL     1      35.347 -20.670 -19.731  0.00  0.00    +0.121 C 
ATOM     24  C   UNL     1      34.783 -19.811 -20.653  0.00  0.00    +0.107 C 
ATOM     25  C   UNL     1      32.694 -20.536 -20.125  0.00  0.00    +0.252 C 
ATOM     26  H   UNL     1      35.892 -22.683 -18.274  0.00  0.00    +0.153 HD
ATOM     27  N   UNL     1      35.662 -18.990 -21.401  0.00  0.00    -0.346 N 
ATOM     28  H   UNL     1      35.302 -18.363 -22.069  0.00  0.00    +0.143 HD
ATOM     29  H   UNL     1      36.635 -19.044 -21.252  0.00  0.00    +0.143 HD
ENDBRANCH  15  19
TORSDOF 1
ENDMDL
MODEL 2
REMARK VINA RESULT:      -9.6     10.882     15.270
REMARK  Name = 118598754
REMARK  1 active torsions:
REMARK  status: ('A' for Active; 'I' for Inactive)
REMARK    1  A    between atoms: C_15  and  N_19
REMARK                            x       y       z     vdW  Elec       q    Type
REMARK                         _______ _______ _______ _____ _____    ______ ____
ROOT
ATOM      1  O   UNL     1      31.596  -8.004 -19.591  0.00  0.00    -0.269 OA
ATOM      2  O   UNL     1      33.704 -10.152 -24.592  0.00  0.00    -0.268 OA
ATOM      3  N   UNL     1      32.866  -9.299 -22.601  0.00  0.00    -0.238 N 
ATOM      4  N   UNL     1      32.423  -7.255 -21.647  0.00  0.00    -0.288 N 
ATOM      5  C   UNL     1      32.944  -7.841 -22.877  0.00  0.00    +0.124 C 
ATOM      6  C   UNL     1      34.400  -7.388 -23.096  0.00  0.00    +0.038 C 
ATOM      7  C   UNL     1      32.045  -7.447 -24.065  0.00  0.00    +0.038 C 
ATOM      8  C   UNL     1      32.170  -5.966 -24.428  0.00  0.00    +0.003 C 
ATOM      9  C   UNL     1      34.505  -5.909 -23.468  0.00  0.00    +0.003 C 
ATOM     10  C   UNL     1      33.622  -5.564 -24.663  0.00  0.00    +0.000 C 
ATOM     11  C   UNL     1      32.350  -9.515 -21.334  0.00  0.00    +0.105 C 
ATOM     12  C   UNL     1      32.057  -8.203 -20.700  0.00  0.00    +0.260 C 
ATOM     13  C   UNL     1      33.246 -10.319 -23.463  0.00  0.00    +0.267 C 
ATOM     14  C   UNL     1      32.179 -10.750 -20.841  0.00  0.00    -0.002 C 
ATOM     15  C   UNL     1      33.061 -11.715 -22.927  0.00  0.00    +0.104 C 
ATOM     16  C   UNL     1      32.557 -11.867 -21.691  0.00  0.00    +0.016 C 
ATOM     17  C   UNL     1      31.635 -11.121 -19.494  0.00  0.00    +0.033 C 
ATOM     18  H   UNL     1      32.339  -6.285 -21.502  0.00  0.00    +0.151 HD
ENDROOT
BRANCH  15  19
ATOM     19  N   UNL     1      33.428 -12.737 -23.754  0.00  0.00    -0.298 N 
ATOM     20  N   UNL     1      34.654 -14.121 -22.278  0.00  0.00    -0.233 NA
ATOM     21  N   UNL     1      34.893 -16.468 -22.767  0.00  0.00    -0.234 NA
ATOM     22  C   UNL     1      33.929 -13.997 -23.410  0.00  0.00    +0.113 C 
ATOM     23  C   UNL     1      33.649 -15.047 -24.259  0.00  0.00    +0.121 C 
ATOM     24  C   UNL     1      34.162 -16.273 -23.884  0.00  0.00    +0.107 C 
ATOM     25  C   UNL     1      35.099 -15.366 -22.021  0.00  0.00    +0.252 C 
ATOM     26  H   UNL     1      33.324 -12.565 -24.718  0.00  0.00    +0.153 HD
ATOM     27  N   UNL     1      33.898 -17.376 -24.731  0.00  0.00    -0.346 N 
ATOM     28  H   UNL     1      34.244 -18.269 -24.501  0.00  0.00    +0.143 HD
ATOM     29  H   UNL     1      33.366 -17.252 -25.551  0.00  0.00    +0.143 HD
ENDBRANCH  15  19
TORSDOF 1
ENDMDL
MODEL 3
REMARK VINA RESULT:      -9.5      2.802      4.956
REMARK  Name = 118598754
REMARK  1 active torsions:
REMARK  status: ('A' for Active; 'I' for Inactive)
REMARK    1  A    between atoms: C_15  and  N_19
REMARK                            x       y       z     vdW  Elec       q    Type
REMARK                         _______ _______ _______ _____ _____    ______ ____
ROOT
ATOM      1  O   UNL     1      38.450 -22.036 -15.937  0.00  0.00    -0.269 OA
ATOM      2  O   UNL     1      33.571 -24.646 -14.081  0.00  0.00    -0.268 OA
ATOM      3  N   UNL     1      35.512 -23.606 -14.820  0.00  0.00    -0.238 N 
ATOM      4  N   UNL     1      37.690 -23.330 -14.142  0.00  0.00    -0.288 N 
ATOM      5  C   UNL     1      36.445 -23.964 -13.722  0.00  0.00    +0.124 C 
ATOM      6  C   UNL     1      35.985 -23.370 -12.377  0.00  0.00    +0.038 C 
ATOM      7  C   UNL     1      36.642 -25.490 -13.628  0.00  0.00    +0.038 C 
ATOM      8  C   UNL     1      37.532 -25.895 -12.451  0.00  0.00    +0.003 C 
ATOM      9  C   UNL     1      36.879 -23.793 -11.211  0.00  0.00    +0.003 C 
ATOM     10  C   UNL     1      37.028 -25.309 -11.136  0.00  0.00    +0.000 C 
ATOM     11  C   UNL     1      36.167 -22.842 -15.771  0.00  0.00    +0.105 C 
ATOM     12  C   UNL     1      37.580 -22.652 -15.350  0.00  0.00    +0.260 C 
ATOM     13  C   UNL     1      34.173 -23.967 -14.910  0.00  0.00    +0.267 C 
ATOM     14  C   UNL     1      35.543 -22.387 -16.867  0.00  0.00    -0.002 C 
ATOM     15  C   UNL     1      33.454 -23.466 -16.136  0.00  0.00    +0.104 C 
ATOM     16  C   UNL     1      34.139 -22.728 -17.026  0.00  0.00    +0.016 C 
ATOM     17  C   UNL     1      36.132 -21.556 -17.967  0.00  0.00    +0.033 C 
ATOM     18  H   UNL     1      38.525 -23.378 -13.623  0.00  0.00    +0.151 HD
ENDROOT
BRANCH  15  19
ATOM     19  N   UNL     1      32.137 -23.807 -16.249  0.00  0.00    -0.298 N 
ATOM     20  N   UNL     1      31.183 -22.603 -14.449  0.00  0.00    -0.233 NA
ATOM     21  N   UNL     1      28.844 -22.028 -14.508  0.00  0.00    -0.234 NA
ATOM     22  C   UNL     1      31.028 -23.200 -15.650  0.00  0.00    +0.113 C 
ATOM     23  C   UNL     1      29.830 -23.252 -16.331  0.00  0.00    +0.121 C 
ATOM     24  C   UNL     1      28.760 -22.643 -15.706  0.00  0.00    +0.107 C 
ATOM     25  C   UNL     1      30.067 -22.045 -13.944  0.00  0.00    +0.252 C 
ATOM     26  H   UNL     1      31.943 -24.578 -16.829  0.00  0.00    +0.153 HD
ATOM     27  N   UNL     1      27.511 -22.677 -16.372  0.00  0.00    -0.346 N 
ATOM     28  H   UNL     1      26.722 -22.254 -15.962  0.00  0.00    +0.143 HD
ATOM     29  H   UNL     1      27.431 -23.122 -17.247  0.00  0.00    +0.143 HD
ENDBRANCH  15  19
TORSDOF 1
ENDMDL
MODEL 4
REMARK VINA RESULT:      -9.3      2.852      7.453
REMARK  Name = 118598754
REMARK  1 active torsions:
REMARK  status: ('A' for Active; 'I' for Inactive)
REMARK    1  A    between atoms: C_15  and  N_19
REMARK                            x       y       z     vdW  Elec       q    Type
REMARK                         _______ _______ _______ _____ _____    ______ ____
ROOT
ATOM      1  O   UNL     1      32.387 -21.712 -18.537  0.00  0.00    -0.269 OA
ATOM      2  O   UNL     1      32.136 -24.551 -13.444  0.00  0.00    -0.268 OA
ATOM      3  N   UNL     1      32.238 -23.422 -15.472  0.00  0.00    -0.238 N 
ATOM      4  N   UNL     1      30.800 -22.520 -17.020  0.00  0.00    -0.288 N 
ATOM      5  C   UNL     1      30.791 -23.232 -15.747  0.00  0.00    +0.124 C 
ATOM      6  C   UNL     1      30.067 -24.583 -15.909  0.00  0.00    +0.038 C 
ATOM      7  C   UNL     1      30.123 -22.359 -14.666  0.00  0.00    +0.038 C 
ATOM      8  C   UNL     1      28.615 -22.216 -14.877  0.00  0.00    +0.003 C 
ATOM      9  C   UNL     1      28.560 -24.421 -16.108  0.00  0.00    +0.003 C 
ATOM     10  C   UNL     1      27.933 -23.574 -15.005  0.00  0.00    +0.000 C 
ATOM     11  C   UNL     1      32.993 -22.871 -16.493  0.00  0.00    +0.105 C 
ATOM     12  C   UNL     1      32.079 -22.281 -17.506  0.00  0.00    +0.260 C 
ATOM     13  C   UNL     1      32.785 -24.056 -14.363  0.00  0.00    +0.267 C 
ATOM     14  C   UNL     1      34.333 -22.911 -16.483  0.00  0.00    -0.002 C 
ATOM     15  C   UNL     1      34.291 -24.111 -14.334  0.00  0.00    +0.104 C 
ATOM     16  C   UNL     1      34.974 -23.560 -15.352  0.00  0.00    +0.016 C 
ATOM     17  C   UNL     1      35.264 -22.355 -17.519  0.00  0.00    +0.033 C 
ATOM     18  H   UNL     1      29.982 -22.237 -17.489  0.00  0.00    +0.151 HD
ENDROOT
BRANCH  15  19
ATOM     19  N   UNL     1      34.855 -24.729 -13.256  0.00  0.00    -0.298 N 
ATOM     20  N   UNL     1      36.489 -23.144 -12.608  0.00  0.00    -0.233 NA
ATOM     21  N   UNL     1      37.294 -23.125 -10.336  0.00  0.00    -0.234 NA
ATOM     22  C   UNL     1      35.686 -24.177 -12.275  0.00  0.00    +0.113 C 
ATOM     23  C   UNL     1      35.633 -24.731 -11.012  0.00  0.00    +0.121 C 
ATOM     24  C   UNL     1      36.468 -24.158 -10.073  0.00  0.00    +0.107 C 
ATOM     25  C   UNL     1      37.255 -22.673 -11.605  0.00  0.00    +0.252 C 
ATOM     26  H   UNL     1      34.651 -25.687 -13.156  0.00  0.00    +0.153 HD
ATOM     27  N   UNL     1      36.445 -24.700  -8.765  0.00  0.00    -0.346 N 
ATOM     28  H   UNL     1      37.024 -24.321  -8.064  0.00  0.00    +0.143 HD
ATOM     29  H   UNL     1      35.848 -25.455  -8.554  0.00  0.00    +0.143 HD
ENDBRANCH  15  19
TORSDOF 1
ENDMDL
MODEL 5
REMARK VINA RESULT:      -9.0      2.770      6.600
REMARK  Name = 118598754
REMARK  1 active torsions:
REMARK  status: ('A' for Active; 'I' for Inactive)
REMARK    1  A    between atoms: C_15  and  N_19
REMARK                            x       y       z     vdW  Elec       q    Type
REMARK                         _______ _______ _______ _____ _____    ______ ____
ROOT
ATOM      1  O   UNL     1      32.162 -21.591 -18.861  0.00  0.00    -0.269 OA
ATOM      2  O   UNL     1      34.048 -24.097 -13.938  0.00  0.00    -0.268 OA
ATOM      3  N   UNL     1      33.299 -23.100 -15.899  0.00  0.00    -0.238 N 
ATOM      4  N   UNL     1      31.308 -22.614 -16.938  0.00  0.00    -0.288 N 
ATOM      5  C   UNL     1      31.830 -23.231 -15.724  0.00  0.00    +0.124 C 
ATOM      6  C   UNL     1      31.401 -24.710 -15.664  0.00  0.00    +0.038 C 
ATOM      7  C   UNL     1      31.339 -22.450 -14.489  0.00  0.00    +0.038 C 
ATOM      8  C   UNL     1      29.842 -22.636 -14.234  0.00  0.00    +0.003 C 
ATOM      9  C   UNL     1      29.904 -24.877 -15.398  0.00  0.00    +0.003 C 
ATOM     10  C   UNL     1      29.463 -24.111 -14.155  0.00  0.00    +0.000 C 
ATOM     11  C   UNL     1      33.580 -22.469 -17.098  0.00  0.00    +0.105 C 
ATOM     12  C   UNL     1      32.303 -22.146 -17.787  0.00  0.00    +0.260 C 
ATOM     13  C   UNL     1      34.273 -23.536 -15.009  0.00  0.00    +0.267 C 
ATOM     14  C   UNL     1      34.839 -22.230 -17.495  0.00  0.00    -0.002 C 
ATOM     15  C   UNL     1      35.694 -23.277 -15.437  0.00  0.00    +0.104 C 
ATOM     16  C   UNL     1      35.910 -22.660 -16.612  0.00  0.00    +0.016 C 
ATOM     17  C   UNL     1      35.278 -21.560 -18.761  0.00  0.00    +0.033 C 
ATOM     18  H   UNL     1      30.347 -22.537 -17.137  0.00  0.00    +0.151 HD
ENDROOT
BRANCH  15  19
ATOM     19  N   UNL     1      36.672 -23.695 -14.581  0.00  0.00    -0.298 N 
ATOM     20  N   UNL     1      36.711 -26.021 -15.014  0.00  0.00    -0.233 NA
ATOM     21  N   UNL     1      38.702 -27.290 -14.531  0.00  0.00    -0.234 NA
ATOM     22  C   UNL     1      37.350 -24.919 -14.569  0.00  0.00    +0.113 C 
ATOM     23  C   UNL     1      38.646 -24.923 -14.096  0.00  0.00    +0.121 C 
ATOM     24  C   UNL     1      39.280 -26.149 -14.100  0.00  0.00    +0.107 C 
ATOM     25  C   UNL     1      37.436 -27.156 -14.968  0.00  0.00    +0.252 C 
ATOM     26  H   UNL     1      36.934 -23.053 -13.883  0.00  0.00    +0.153 HD
ATOM     27  N   UNL     1      40.611 -26.196 -13.619  0.00  0.00    -0.346 N 
ATOM     28  H   UNL     1      41.101 -27.050 -13.605  0.00  0.00    +0.143 HD
ATOM     29  H   UNL     1      41.049 -25.373 -13.300  0.00  0.00    +0.143 HD
ENDBRANCH  15  19
TORSDOF 1
ENDMDL
MODEL 6
REMARK VINA RESULT:      -9.0      4.015      5.471
REMARK  Name = 118598754
REMARK  1 active torsions:
REMARK  status: ('A' for Active; 'I' for Inactive)
REMARK    1  A    between atoms: C_15  and  N_19
REMARK                            x       y       z     vdW  Elec       q    Type
REMARK                         _______ _______ _______ _____ _____    ______ ____
ROOT
ATOM      1  O   UNL     1      37.824 -25.405 -10.058  0.00  0.00    -0.269 OA
ATOM      2  O   UNL     1      35.632 -25.209 -15.464  0.00  0.00    -0.268 OA
ATOM      3  N   UNL     1      36.503 -25.287 -13.312  0.00  0.00    -0.238 N 
ATOM      4  N   UNL     1      38.354 -26.108 -12.226  0.00  0.00    -0.288 N 
ATOM      5  C   UNL     1      37.764 -26.032 -13.558  0.00  0.00    +0.124 C 
ATOM      6  C   UNL     1      37.484 -27.452 -14.086  0.00  0.00    +0.038 C 
ATOM      7  C   UNL     1      38.701 -25.253 -14.501  0.00  0.00    +0.038 C 
ATOM      8  C   UNL     1      39.972 -26.034 -14.841  0.00  0.00    +0.003 C 
ATOM      9  C   UNL     1      38.765 -28.214 -14.431  0.00  0.00    +0.003 C 
ATOM     10  C   UNL     1      39.652 -27.421 -15.386  0.00  0.00    +0.000 C 
ATOM     11  C   UNL     1      36.391 -24.972 -11.968  0.00  0.00    +0.105 C 
ATOM     12  C   UNL     1      37.582 -25.495 -11.248  0.00  0.00    +0.260 C 
ATOM     13  C   UNL     1      35.554 -24.942 -14.266  0.00  0.00    +0.267 C 
ATOM     14  C   UNL     1      35.338 -24.299 -11.484  0.00  0.00    -0.002 C 
ATOM     15  C   UNL     1      34.362 -24.185 -13.742  0.00  0.00    +0.104 C 
ATOM     16  C   UNL     1      34.305 -23.906 -12.428  0.00  0.00    +0.016 C 
ATOM     17  C   UNL     1      35.096 -23.897 -10.060  0.00  0.00    +0.033 C 
ATOM     18  H   UNL     1      39.215 -26.548 -12.039  0.00  0.00    +0.151 HD
ENDROOT
BRANCH  15  19
ATOM     19  N   UNL     1      33.414 -23.833 -14.658  0.00  0.00    -0.298 N 
ATOM     20  N   UNL     1      31.579 -25.160 -13.970  0.00  0.00    -0.233 NA
ATOM     21  N   UNL     1      29.339 -24.487 -14.549  0.00  0.00    -0.234 NA
ATOM     22  C   UNL     1      32.035 -24.065 -14.614  0.00  0.00    +0.113 C 
ATOM     23  C   UNL     1      31.216 -23.149 -15.242  0.00  0.00    +0.121 C 
ATOM     24  C   UNL     1      29.862 -23.414 -15.176  0.00  0.00    +0.107 C 
ATOM     25  C   UNL     1      30.240 -25.307 -13.975  0.00  0.00    +0.252 C 
ATOM     26  H   UNL     1      33.743 -23.354 -15.452  0.00  0.00    +0.153 HD
ATOM     27  N   UNL     1      28.988 -22.498 -15.810  0.00  0.00    -0.346 N 
ATOM     28  H   UNL     1      28.015 -22.648 -15.787  0.00  0.00    +0.143 HD
ATOM     29  H   UNL     1      29.352 -21.709 -16.273  0.00  0.00    +0.143 HD
ENDBRANCH  15  19
TORSDOF 1
ENDMDL
MODEL 7
REMARK VINA RESULT:      -8.5      1.697      4.247
REMARK  Name = 118598754
REMARK  1 active torsions:
REMARK  status: ('A' for Active; 'I' for Inactive)
REMARK    1  A    between atoms: C_15  and  N_19
REMARK                            x       y       z     vdW  Elec       q    Type
REMARK                         _______ _______ _______ _____ _____    ______ ____
ROOT
ATOM      1  O   UNL     1      33.415 -23.832 -12.006  0.00  0.00    -0.269 OA
ATOM      2  O   UNL     1      32.268 -22.941 -17.660  0.00  0.00    -0.268 OA
ATOM      3  N   UNL     1      32.726 -23.294 -15.410  0.00  0.00    -0.238 N 
ATOM      4  N   UNL     1      31.597 -23.820 -13.479  0.00  0.00    -0.288 N 
ATOM      5  C   UNL     1      31.362 -23.588 -14.900  0.00  0.00    +0.124 C 
ATOM      6  C   UNL     1      30.422 -22.381 -15.083  0.00  0.00    +0.038 C 
ATOM      7  C   UNL     1      30.782 -24.860 -15.548  0.00  0.00    +0.038 C 
ATOM      8  C   UNL     1      29.345 -25.141 -15.106  0.00  0.00    +0.003 C 
ATOM      9  C   UNL     1      28.988 -22.683 -14.646  0.00  0.00    +0.003 C 
ATOM     10  C   UNL     1      28.441 -23.933 -15.329  0.00  0.00    +0.000 C 
ATOM     11  C   UNL     1      33.644 -23.355 -14.375  0.00  0.00    +0.105 C 
ATOM     12  C   UNL     1      32.931 -23.695 -13.115  0.00  0.00    +0.260 C 
ATOM     13  C   UNL     1      33.064 -22.999 -16.724  0.00  0.00    +0.267 C 
ATOM     14  C   UNL     1      34.950 -23.127 -14.573  0.00  0.00    -0.002 C 
ATOM     15  C   UNL     1      34.528 -22.739 -16.967  0.00  0.00    +0.104 C 
ATOM     16  C   UNL     1      35.376 -22.811 -15.926  0.00  0.00    +0.016 C 
ATOM     17  C   UNL     1      36.042 -23.160 -13.546  0.00  0.00    +0.033 C 
ATOM     18  H   UNL     1      30.881 -24.044 -12.841  0.00  0.00    +0.151 HD
ENDROOT
BRANCH  15  19
ATOM     19  N   UNL     1      34.889 -22.445 -18.251  0.00  0.00    -0.298 N 
ATOM     20  N   UNL     1      33.034 -21.169 -18.979  0.00  0.00    -0.233 NA
ATOM     21  N   UNL     1      33.300 -19.615 -20.802  0.00  0.00    -0.234 NA
ATOM     22  C   UNL     1      34.340 -21.487 -19.110  0.00  0.00    +0.113 C 
ATOM     23  C   UNL     1      35.177 -20.922 -20.049  0.00  0.00    +0.121 C 
ATOM     24  C   UNL     1      34.596 -19.981 -20.877  0.00  0.00    +0.107 C 
ATOM     25  C   UNL     1      32.587 -20.238 -19.845  0.00  0.00    +0.252 C 
ATOM     26  H   UNL     1      35.632 -22.976 -18.619  0.00  0.00    +0.153 HD
ATOM     27  N   UNL     1      35.422 -19.379 -21.858  0.00  0.00    -0.346 N 
ATOM     28  H   UNL     1      35.049 -18.703 -22.469  0.00  0.00    +0.143 HD
ATOM     29  H   UNL     1      36.371 -19.635 -21.928  0.00  0.00    +0.143 HD
ENDBRANCH  15  19
TORSDOF 1
ENDMDL
MODEL 8
REMARK VINA RESULT:      -8.3      3.162      5.216
REMARK  Name = 118598754
REMARK  1 active torsions:
REMARK  status: ('A' for Active; 'I' for Inactive)
REMARK    1  A    between atoms: C_15  and  N_19
REMARK                            x       y       z     vdW  Elec       q    Type
REMARK                         _______ _______ _______ _____ _____    ______ ____
ROOT
ATOM      1  O   UNL     1      39.818 -24.066 -15.358  0.00  0.00    -0.269 OA
ATOM      2  O   UNL     1      34.448 -25.318 -13.444  0.00  0.00    -0.268 OA
ATOM      3  N   UNL     1      36.585 -24.818 -14.205  0.00  0.00    -0.238 N 
ATOM      4  N   UNL     1      38.630 -25.846 -14.411  0.00  0.00    -0.288 N 
ATOM      5  C   UNL     1      37.273 -26.108 -13.945  0.00  0.00    +0.124 C 
ATOM      6  C   UNL     1      37.293 -26.442 -12.441  0.00  0.00    +0.038 C 
ATOM      7  C   UNL     1      36.651 -27.252 -14.770  0.00  0.00    +0.038 C 
ATOM      8  C   UNL     1      37.283 -28.610 -14.459  0.00  0.00    +0.003 C 
ATOM      9  C   UNL     1      37.918 -27.806 -12.150  0.00  0.00    +0.003 C 
ATOM     10  C   UNL     1      37.258 -28.914 -12.965  0.00  0.00    +0.000 C 
ATOM     11  C   UNL     1      37.470 -23.912 -14.765  0.00  0.00    +0.105 C 
ATOM     12  C   UNL     1      38.801 -24.559 -14.906  0.00  0.00    +0.260 C 
ATOM     13  C   UNL     1      35.253 -24.530 -13.938  0.00  0.00    +0.267 C 
ATOM     14  C   UNL     1      37.096 -22.667 -15.093  0.00  0.00    -0.002 C 
ATOM     15  C   UNL     1      34.812 -23.136 -14.301  0.00  0.00    +0.104 C 
ATOM     16  C   UNL     1      35.713 -22.297 -14.841  0.00  0.00    +0.016 C 
ATOM     17  C   UNL     1      37.949 -21.595 -15.702  0.00  0.00    +0.033 C 
ATOM     18  H   UNL     1      39.353 -26.513 -14.378  0.00  0.00    +0.151 HD
ENDROOT
BRANCH  15  19
ATOM     19  N   UNL     1      33.507 -22.826 -14.048  0.00  0.00    -0.298 N 
ATOM     20  N   UNL     1      32.646 -22.594 -16.240  0.00  0.00    -0.233 NA
ATOM     21  N   UNL     1      30.286 -22.886 -16.630  0.00  0.00    -0.234 NA
ATOM     22  C   UNL     1      32.423 -22.844 -14.932  0.00  0.00    +0.113 C 
ATOM     23  C   UNL     1      31.178 -23.118 -14.406  0.00  0.00    +0.121 C 
ATOM     24  C   UNL     1      30.135 -23.126 -15.311  0.00  0.00    +0.107 C 
ATOM     25  C   UNL     1      31.549 -22.632 -17.021  0.00  0.00    +0.252 C 
ATOM     26  H   UNL     1      33.303 -22.555 -13.124  0.00  0.00    +0.153 HD
ATOM     27  N   UNL     1      28.839 -23.401 -14.809  0.00  0.00    -0.346 N 
ATOM     28  H   UNL     1      28.067 -23.417 -15.419  0.00  0.00    +0.143 HD
ATOM     29  H   UNL     1      28.710 -23.577 -13.848  0.00  0.00    +0.143 HD
ENDBRANCH  15  19
TORSDOF 1
ENDMDL
