MODEL 1
REMARK VINA RESULT:     -11.8      0.000      0.000
REMARK  Name = 24878044
REMARK  6 active torsions:
REMARK  status: ('A' for Active; 'I' for Inactive)
REMARK    1  A    between atoms: N_2  and  C_6
REMARK    2  A    between atoms: C_3  and  C_18
REMARK    3  A    between atoms: C_7  and  S_12
REMARK    4  A    between atoms: S_12  and  N_15
REMARK    5  A    between atoms: C_18  and  S_19
REMARK    6  A    between atoms: S_19  and  C_31
REMARK                            x       y       z     vdW  Elec       q    Type
REMARK                         _______ _______ _______ _____ _____    ______ ____
ROOT
ATOM      1  O   UNL     1      34.367 -19.222 -24.067  0.00  0.00    -0.274 OA
ATOM      2  N   UNL     1      34.699 -18.219 -21.968  0.00  0.00    -0.283 N 
ATOM      3  C   UNL     1      34.607 -18.251 -23.355  0.00  0.00    +0.238 C 
ATOM      4  H   UNL     1      34.914 -17.346 -21.566  0.00  0.00    +0.155 HD
ENDROOT
BRANCH   2   6
ATOM      5 CL   UNL     1      37.208 -19.294 -20.612  0.00  0.00    -0.081 Cl
ATOM      6  C   UNL     1      34.517 -19.296 -21.068  0.00  0.00    +0.061 C 
ATOM      7  C   UNL     1      34.089 -21.416 -19.306  0.00  0.00    +0.123 C 
ATOM      8  C   UNL     1      35.593 -19.868 -20.390  0.00  0.00    +0.072 C 
ATOM      9  C   UNL     1      33.226 -19.785 -20.865  0.00  0.00    +0.017 C 
ATOM     10  C   UNL     1      35.379 -20.927 -19.509  0.00  0.00    +0.033 C 
ATOM     11  C   UNL     1      33.011 -20.844 -19.984  0.00  0.00    +0.021 C 
BRANCH   7  12
ATOM     12  S   UNL     1      33.820 -22.743 -18.204  0.00  0.00    +0.057 S 
ATOM     13  O   UNL     1      33.757 -23.976 -18.976  0.00  0.00    -0.153 OA
ATOM     14  O   UNL     1      34.764 -22.627 -17.101  0.00  0.00    -0.153 OA
BRANCH  12  15
ATOM     15  N   UNL     1      32.254 -22.374 -17.627  0.00  0.00    -0.203 NA
ATOM     16  H   UNL     1      31.838 -21.650 -18.213  0.00  0.00    +0.144 HD
ATOM     17  H   UNL     1      32.315 -22.041 -16.665  0.00  0.00    +0.144 HD
ENDBRANCH  12  15
ENDBRANCH   7  12
ENDBRANCH   2   6
BRANCH   3  18
ATOM     18  C   UNL     1      34.867 -16.893 -23.971  0.00  0.00    +0.152 C 
BRANCH  18  19
ATOM     19  S   UNL     1      35.040 -15.675 -22.649  0.00  0.00    -0.047 S 
BRANCH  19  31
ATOM     20  O   UNL     1      33.655 -14.351 -24.414  0.00  0.00    -0.262 OA
ATOM     21  N   UNL     1      33.487 -13.494 -22.232  0.00  0.00    -0.250 N 
ATOM     22  C   UNL     1      32.032 -13.318 -20.220  0.00  0.00    +0.027 C 
ATOM     23  C   UNL     1      32.110 -11.806 -20.237  0.00  0.00    +0.029 C 
ATOM     24  C   UNL     1      33.299 -13.899 -20.822  0.00  0.00    +0.099 C 
ATOM     25  C   UNL     1      32.505 -11.298 -21.598  0.00  0.00    -0.009 C 
ATOM     26  C   UNL     1      33.171 -12.111 -22.544  0.00  0.00    +0.051 C 
ATOM     27  C   UNL     1      32.224  -9.950 -21.892  0.00  0.00    -0.007 C 
ATOM     28  C   UNL     1      33.548 -11.516 -23.762  0.00  0.00    +0.014 C 
ATOM     29  C   UNL     1      32.586  -9.396 -23.114  0.00  0.00    -0.022 C 
ATOM     30  C   UNL     1      33.253 -10.179 -24.046  0.00  0.00    -0.003 C 
ATOM     31  C   UNL     1      33.943 -14.396 -23.222  0.00  0.00    +0.280 C 
ATOM     32  C   UNL     1      32.249  -7.978 -23.426  0.00  0.00    +0.031 C 
ENDBRANCH  19  31
ENDBRANCH  18  19
ENDBRANCH   3  18
TORSDOF 6
ENDMDL
MODEL 2
REMARK VINA RESULT:     -11.6      0.996      2.204
REMARK  Name = 24878044
REMARK  6 active torsions:
REMARK  status: ('A' for Active; 'I' for Inactive)
REMARK    1  A    between atoms: N_2  and  C_6
REMARK    2  A    between atoms: C_3  and  C_18
REMARK    3  A    between atoms: C_7  and  S_12
REMARK    4  A    between atoms: S_12  and  N_15
REMARK    5  A    between atoms: C_18  and  S_19
REMARK    6  A    between atoms: S_19  and  C_31
REMARK                            x       y       z     vdW  Elec       q    Type
REMARK                         _______ _______ _______ _____ _____    ______ ____
ROOT
ATOM      1  O   UNL     1      34.174 -18.714 -24.125  0.00  0.00    -0.274 OA
ATOM      2  N   UNL     1      35.122 -18.001 -22.096  0.00  0.00    -0.283 N 
ATOM      3  C   UNL     1      34.768 -17.889 -23.436  0.00  0.00    +0.238 C 
ATOM      4  H   UNL     1      35.610 -17.238 -21.709  0.00  0.00    +0.155 HD
ENDROOT
BRANCH   2   6
ATOM      5 CL   UNL     1      37.516 -19.156 -20.606  0.00  0.00    -0.081 Cl
ATOM      6  C   UNL     1      34.859 -19.084 -21.223  0.00  0.00    +0.061 C 
ATOM      7  C   UNL     1      34.272 -21.214 -19.521  0.00  0.00    +0.123 C 
ATOM      8  C   UNL     1      35.878 -19.691 -20.490  0.00  0.00    +0.072 C 
ATOM      9  C   UNL     1      33.546 -19.542 -21.106  0.00  0.00    +0.017 C 
ATOM     10  C   UNL     1      35.584 -20.756 -19.639  0.00  0.00    +0.033 C 
ATOM     11  C   UNL     1      33.252 -20.607 -20.255  0.00  0.00    +0.021 C 
BRANCH   7  12
ATOM     12  S   UNL     1      33.904 -22.548 -18.456  0.00  0.00    +0.057 S 
ATOM     13  O   UNL     1      33.828 -23.765 -19.251  0.00  0.00    -0.153 OA
ATOM     14  O   UNL     1      34.802 -22.486 -17.310  0.00  0.00    -0.153 OA
BRANCH  12  15
ATOM     15  N   UNL     1      32.329 -22.128 -17.941  0.00  0.00    -0.203 NA
ATOM     16  H   UNL     1      31.911 -22.917 -17.448  0.00  0.00    +0.144 HD
ATOM     17  H   UNL     1      31.758 -21.891 -18.752  0.00  0.00    +0.144 HD
ENDBRANCH  12  15
ENDBRANCH   7  12
ENDBRANCH   2   6
BRANCH   3  18
ATOM     18  C   UNL     1      35.226 -16.576 -24.035  0.00  0.00    +0.152 C 
BRANCH  18  19
ATOM     19  S   UNL     1      33.780 -15.534 -24.328  0.00  0.00    -0.047 S 
BRANCH  19  31
ATOM     20  O   UNL     1      34.315 -14.804 -21.886  0.00  0.00    -0.262 OA
ATOM     21  N   UNL     1      33.483 -13.071 -23.238  0.00  0.00    -0.250 N 
ATOM     22  C   UNL     1      34.082 -11.020 -24.515  0.00  0.00    +0.027 C 
ATOM     23  C   UNL     1      33.068 -10.192 -23.753  0.00  0.00    +0.029 C 
ATOM     24  C   UNL     1      33.614 -12.463 -24.579  0.00  0.00    +0.099 C 
ATOM     25  C   UNL     1      32.709 -10.844 -22.444  0.00  0.00    -0.009 C 
ATOM     26  C   UNL     1      32.904 -12.225 -22.210  0.00  0.00    +0.051 C 
ATOM     27  C   UNL     1      32.122 -10.031 -21.456  0.00  0.00    -0.007 C 
ATOM     28  C   UNL     1      32.476 -12.741 -20.972  0.00  0.00    +0.014 C 
ATOM     29  C   UNL     1      31.731 -10.564 -20.234  0.00  0.00    -0.022 C 
ATOM     30  C   UNL     1      31.904 -11.920 -19.995  0.00  0.00    -0.003 C 
ATOM     31  C   UNL     1      33.901 -14.395 -22.966  0.00  0.00    +0.280 C 
ATOM     32  C   UNL     1      31.145  -9.685 -19.183  0.00  0.00    +0.031 C 
ENDBRANCH  19  31
ENDBRANCH  18  19
ENDBRANCH   3  18
TORSDOF 6
ENDMDL
MODEL 3
REMARK VINA RESULT:     -10.5      3.483     10.210
REMARK  Name = 24878044
REMARK  6 active torsions:
REMARK  status: ('A' for Active; 'I' for Inactive)
REMARK    1  A    between atoms: N_2  and  C_6
REMARK    2  A    between atoms: C_3  and  C_18
REMARK    3  A    between atoms: C_7  and  S_12
REMARK    4  A    between atoms: S_12  and  N_15
REMARK    5  A    between atoms: C_18  and  S_19
REMARK    6  A    between atoms: S_19  and  C_31
REMARK                            x       y       z     vdW  Elec       q    Type
REMARK                         _______ _______ _______ _____ _____    ______ ____
ROOT
ATOM      1  O   UNL     1      33.320 -14.095 -24.631  0.00  0.00    -0.274 OA
ATOM      2  N   UNL     1      33.804 -13.186 -22.518  0.00  0.00    -0.283 N 
ATOM      3  C   UNL     1      33.746 -14.186 -23.482  0.00  0.00    +0.238 C 
ATOM      4  H   UNL     1      34.168 -13.448 -21.641  0.00  0.00    +0.155 HD
ENDROOT
BRANCH   2   6
ATOM      5 CL   UNL     1      31.681 -12.200 -20.568  0.00  0.00    -0.081 Cl
ATOM      6  C   UNL     1      33.403 -11.836 -22.653  0.00  0.00    +0.061 C 
ATOM      7  C   UNL     1      32.658  -9.167 -22.972  0.00  0.00    +0.123 C 
ATOM      8  C   UNL     1      32.439 -11.276 -21.815  0.00  0.00    +0.072 C 
ATOM      9  C   UNL     1      33.995 -11.060 -23.651  0.00  0.00    +0.017 C 
ATOM     10  C   UNL     1      32.067  -9.942 -21.975  0.00  0.00    +0.033 C 
ATOM     11  C   UNL     1      33.623  -9.726 -23.810  0.00  0.00    +0.021 C 
BRANCH   7  12
ATOM     12  S   UNL     1      32.192  -7.496 -23.172  0.00  0.00    +0.057 S 
ATOM     13  O   UNL     1      33.293  -6.784 -23.805  0.00  0.00    -0.153 OA
ATOM     14  O   UNL     1      30.865  -7.454 -23.769  0.00  0.00    -0.153 OA
BRANCH  12  15
ATOM     15  N   UNL     1      32.076  -6.993 -21.543  0.00  0.00    -0.203 NA
ATOM     16  H   UNL     1      31.557  -6.116 -21.494  0.00  0.00    +0.144 HD
ATOM     17  H   UNL     1      33.012  -6.857 -21.161  0.00  0.00    +0.144 HD
ENDBRANCH  12  15
ENDBRANCH   7  12
ENDBRANCH   2   6
BRANCH   3  18
ATOM     18  C   UNL     1      34.270 -15.508 -22.961  0.00  0.00    +0.152 C 
BRANCH  18  19
ATOM     19  S   UNL     1      34.669 -16.572 -24.365  0.00  0.00    -0.047 S 
BRANCH  19  31
ATOM     20  O   UNL     1      33.597 -18.939 -24.179  0.00  0.00    -0.262 OA
ATOM     21  N   UNL     1      35.165 -18.467 -22.493  0.00  0.00    -0.250 N 
ATOM     22  C   UNL     1      37.479 -18.901 -21.686  0.00  0.00    +0.027 C 
ATOM     23  C   UNL     1      36.972 -19.378 -20.342  0.00  0.00    +0.029 C 
ATOM     24  C   UNL     1      36.507 -17.889 -22.266  0.00  0.00    +0.099 C 
ATOM     25  C   UNL     1      35.529 -19.799 -20.424  0.00  0.00    -0.009 C 
ATOM     26  C   UNL     1      34.669 -19.351 -21.454  0.00  0.00    +0.051 C 
ATOM     27  C   UNL     1      35.039 -20.635 -19.402  0.00  0.00    -0.007 C 
ATOM     28  C   UNL     1      33.323 -19.758 -21.400  0.00  0.00    +0.014 C 
ATOM     29  C   UNL     1      33.711 -21.041 -19.389  0.00  0.00    -0.022 C 
ATOM     30  C   UNL     1      32.852 -20.598 -20.385  0.00  0.00    -0.003 C 
ATOM     31  C   UNL     1      34.408 -18.182 -23.654  0.00  0.00    +0.280 C 
ATOM     32  C   UNL     1      33.215 -21.956 -18.321  0.00  0.00    +0.031 C 
ENDBRANCH  19  31
ENDBRANCH  18  19
ENDBRANCH   3  18
TORSDOF 6
ENDMDL
MODEL 4
REMARK VINA RESULT:     -10.3      5.843     12.451
REMARK  Name = 24878044
REMARK  6 active torsions:
REMARK  status: ('A' for Active; 'I' for Inactive)
REMARK    1  A    between atoms: N_2  and  C_6
REMARK    2  A    between atoms: C_3  and  C_18
REMARK    3  A    between atoms: C_7  and  S_12
REMARK    4  A    between atoms: S_12  and  N_15
REMARK    5  A    between atoms: C_18  and  S_19
REMARK    6  A    between atoms: S_19  and  C_31
REMARK                            x       y       z     vdW  Elec       q    Type
REMARK                         _______ _______ _______ _____ _____    ______ ____
ROOT
ATOM      1  O   UNL     1      31.646 -21.742 -17.595  0.00  0.00    -0.274 OA
ATOM      2  N   UNL     1      33.870 -22.363 -18.034  0.00  0.00    -0.283 N 
ATOM      3  C   UNL     1      32.620 -22.472 -17.433  0.00  0.00    +0.238 C 
ATOM      4  H   UNL     1      34.539 -23.036 -17.772  0.00  0.00    +0.155 HD
ENDROOT
BRANCH   2   6
ATOM      5 CL   UNL     1      36.830 -21.641 -18.016  0.00  0.00    -0.081 Cl
ATOM      6  C   UNL     1      34.289 -21.397 -18.980  0.00  0.00    +0.061 C 
ATOM      7  C   UNL     1      35.049 -19.490 -20.868  0.00  0.00    +0.123 C 
ATOM      8  C   UNL     1      35.620 -20.990 -19.063  0.00  0.00    +0.072 C 
ATOM      9  C   UNL     1      33.337 -20.850 -19.841  0.00  0.00    +0.017 C 
ATOM     10  C   UNL     1      36.000 -20.037 -20.007  0.00  0.00    +0.033 C 
ATOM     11  C   UNL     1      33.717 -19.897 -20.785  0.00  0.00    +0.021 C 
BRANCH   7  12
ATOM     12  S   UNL     1      35.524 -18.296 -22.050  0.00  0.00    +0.057 S 
ATOM     13  O   UNL     1      34.973 -18.683 -23.341  0.00  0.00    -0.153 OA
ATOM     14  O   UNL     1      35.243 -16.973 -21.510  0.00  0.00    -0.153 OA
BRANCH  12  15
ATOM     15  N   UNL     1      37.217 -18.526 -22.082  0.00  0.00    -0.203 NA
ATOM     16  H   UNL     1      37.668 -17.681 -22.435  0.00  0.00    +0.144 HD
ATOM     17  H   UNL     1      37.442 -19.312 -22.692  0.00  0.00    +0.144 HD
ENDBRANCH  12  15
ENDBRANCH   7  12
ENDBRANCH   2   6
BRANCH   3  18
ATOM     18  C   UNL     1      32.554 -23.640 -16.472  0.00  0.00    +0.152 C 
BRANCH  18  19
ATOM     19  S   UNL     1      33.168 -23.104 -14.860  0.00  0.00    -0.047 S 
BRANCH  19  31
ATOM     20  O   UNL     1      35.452 -23.747 -15.933  0.00  0.00    -0.262 OA
ATOM     21  N   UNL     1      35.269 -24.328 -13.663  0.00  0.00    -0.250 N 
ATOM     22  C   UNL     1      35.956 -23.729 -11.347  0.00  0.00    +0.027 C 
ATOM     23  C   UNL     1      36.521 -25.113 -11.106  0.00  0.00    +0.029 C 
ATOM     24  C   UNL     1      34.821 -23.812 -12.352  0.00  0.00    +0.099 C 
ATOM     25  C   UNL     1      36.820 -25.811 -12.406  0.00  0.00    -0.009 C 
ATOM     26  C   UNL     1      36.210 -25.433 -13.624  0.00  0.00    +0.051 C 
ATOM     27  C   UNL     1      37.711 -26.901 -12.365  0.00  0.00    -0.007 C 
ATOM     28  C   UNL     1      36.515 -26.194 -14.768  0.00  0.00    +0.014 C 
ATOM     29  C   UNL     1      38.013 -27.618 -13.516  0.00  0.00    -0.022 C 
ATOM     30  C   UNL     1      37.411 -27.267 -14.716  0.00  0.00    -0.003 C 
ATOM     31  C   UNL     1      34.816 -23.778 -14.885  0.00  0.00    +0.280 C 
ATOM     32  C   UNL     1      38.987 -28.745 -13.465  0.00  0.00    +0.031 C 
ENDBRANCH  19  31
ENDBRANCH  18  19
ENDBRANCH   3  18
TORSDOF 6
ENDMDL
MODEL 5
REMARK VINA RESULT:      -9.8      3.514     10.417
REMARK  Name = 24878044
REMARK  6 active torsions:
REMARK  status: ('A' for Active; 'I' for Inactive)
REMARK    1  A    between atoms: N_2  and  C_6
REMARK    2  A    between atoms: C_3  and  C_18
REMARK    3  A    between atoms: C_7  and  S_12
REMARK    4  A    between atoms: S_12  and  N_15
REMARK    5  A    between atoms: C_18  and  S_19
REMARK    6  A    between atoms: S_19  and  C_31
REMARK                            x       y       z     vdW  Elec       q    Type
REMARK                         _______ _______ _______ _____ _____    ______ ____
ROOT
ATOM      1  O   UNL     1      33.989 -19.751 -20.324  0.00  0.00    -0.274 OA
ATOM      2  N   UNL     1      35.754 -18.862 -21.596  0.00  0.00    -0.283 N 
ATOM      3  C   UNL     1      35.123 -19.805 -20.793  0.00  0.00    +0.238 C 
ATOM      4  H   UNL     1      36.676 -19.071 -21.870  0.00  0.00    +0.155 HD
ENDROOT
BRANCH   2   6
ATOM      5 CL   UNL     1      34.527 -18.899 -24.385  0.00  0.00    -0.081 Cl
ATOM      6  C   UNL     1      35.222 -17.638 -22.067  0.00  0.00    +0.061 C 
ATOM      7  C   UNL     1      34.192 -15.195 -22.933  0.00  0.00    +0.123 C 
ATOM      8  C   UNL     1      34.636 -17.537 -23.328  0.00  0.00    +0.072 C 
ATOM      9  C   UNL     1      35.294 -16.517 -21.239  0.00  0.00    +0.017 C 
ATOM     10  C   UNL     1      34.120 -16.315 -23.761  0.00  0.00    +0.033 C 
ATOM     11  C   UNL     1      34.778 -15.296 -21.672  0.00  0.00    +0.021 C 
BRANCH   7  12
ATOM     12  S   UNL     1      33.547 -13.666 -23.475  0.00  0.00    +0.057 S 
ATOM     13  O   UNL     1      32.385 -13.342 -22.660  0.00  0.00    -0.153 OA
ATOM     14  O   UNL     1      34.643 -12.713 -23.583  0.00  0.00    -0.153 OA
BRANCH  12  15
ATOM     15  N   UNL     1      33.019 -14.074 -25.049  0.00  0.00    -0.203 NA
ATOM     16  H   UNL     1      33.771 -13.897 -25.715  0.00  0.00    +0.144 HD
ATOM     17  H   UNL     1      32.207 -13.508 -25.293  0.00  0.00    +0.144 HD
ENDBRANCH  12  15
ENDBRANCH   7  12
ENDBRANCH   2   6
BRANCH   3  18
ATOM     18  C   UNL     1      36.019 -20.990 -20.499  0.00  0.00    +0.152 C 
BRANCH  18  19
ATOM     19  S   UNL     1      36.301 -21.081 -18.717  0.00  0.00    -0.047 S 
BRANCH  19  31
ATOM     20  O   UNL     1      34.355 -22.768 -19.107  0.00  0.00    -0.262 OA
ATOM     21  N   UNL     1      34.974 -22.532 -16.852  0.00  0.00    -0.250 N 
ATOM     22  C   UNL     1      36.182 -23.592 -14.951  0.00  0.00    +0.027 C 
ATOM     23  C   UNL     1      34.953 -23.519 -14.069  0.00  0.00    +0.029 C 
ATOM     24  C   UNL     1      36.151 -22.457 -15.960  0.00  0.00    +0.099 C 
ATOM     25  C   UNL     1      33.700 -23.383 -14.892  0.00  0.00    -0.009 C 
ATOM     26  C   UNL     1      33.720 -22.902 -16.222  0.00  0.00    +0.051 C 
ATOM     27  C   UNL     1      32.480 -23.714 -14.273  0.00  0.00    -0.007 C 
ATOM     28  C   UNL     1      32.483 -22.756 -16.878  0.00  0.00    +0.014 C 
ATOM     29  C   UNL     1      31.276 -23.583 -14.955  0.00  0.00    -0.022 C 
ATOM     30  C   UNL     1      31.279 -23.100 -16.256  0.00  0.00    -0.003 C 
ATOM     31  C   UNL     1      35.062 -22.266 -18.239  0.00  0.00    +0.280 C 
ATOM     32  C   UNL     1      29.996 -23.974 -14.300  0.00  0.00    +0.031 C 
ENDBRANCH  19  31
ENDBRANCH  18  19
ENDBRANCH   3  18
TORSDOF 6
ENDMDL
MODEL 6
REMARK VINA RESULT:      -9.7     10.388     14.421
REMARK  Name = 24878044
REMARK  6 active torsions:
REMARK  status: ('A' for Active; 'I' for Inactive)
REMARK    1  A    between atoms: N_2  and  C_6
REMARK    2  A    between atoms: C_3  and  C_18
REMARK    3  A    between atoms: C_7  and  S_12
REMARK    4  A    between atoms: S_12  and  N_15
REMARK    5  A    between atoms: C_18  and  S_19
REMARK    6  A    between atoms: S_19  and  C_31
REMARK                            x       y       z     vdW  Elec       q    Type
REMARK                         _______ _______ _______ _____ _____    ______ ____
ROOT
ATOM      1  O   UNL     1      35.221 -25.190 -14.512  0.00  0.00    -0.274 OA
ATOM      2  N   UNL     1      34.544 -22.942 -14.417  0.00  0.00    -0.283 N 
ATOM      3  C   UNL     1      35.452 -23.993 -14.364  0.00  0.00    +0.238 C 
ATOM      4  H   UNL     1      34.910 -22.042 -14.260  0.00  0.00    +0.155 HD
ENDROOT
BRANCH   2   6
ATOM      5 CL   UNL     1      33.692 -22.822 -17.340  0.00  0.00    -0.081 Cl
ATOM      6  C   UNL     1      33.154 -23.017 -14.673  0.00  0.00    +0.061 C 
ATOM      7  C   UNL     1      30.402 -23.172 -15.106  0.00  0.00    +0.123 C 
ATOM      8  C   UNL     1      32.649 -22.972 -15.972  0.00  0.00    +0.072 C 
ATOM      9  C   UNL     1      32.282 -23.139 -13.589  0.00  0.00    +0.017 C 
ATOM     10  C   UNL     1      31.274 -23.050 -16.188  0.00  0.00    +0.033 C 
ATOM     11  C   UNL     1      30.906 -23.217 -13.806  0.00  0.00    +0.021 C 
BRANCH   7  12
ATOM     12  S   UNL     1      28.680 -23.269 -15.377  0.00  0.00    +0.057 S 
ATOM     13  O   UNL     1      28.204 -24.541 -14.855  0.00  0.00    -0.153 OA
ATOM     14  O   UNL     1      28.070 -22.026 -14.925  0.00  0.00    -0.153 OA
BRANCH  12  15
ATOM     15  N   UNL     1      28.622 -23.318 -17.084  0.00  0.00    -0.203 NA
ATOM     16  H   UNL     1      27.914 -22.664 -17.419  0.00  0.00    +0.144 HD
ATOM     17  H   UNL     1      28.385 -24.262 -17.390  0.00  0.00    +0.144 HD
ENDBRANCH  12  15
ENDBRANCH   7  12
ENDBRANCH   2   6
BRANCH   3  18
ATOM     18  C   UNL     1      36.857 -23.513 -14.065  0.00  0.00    +0.152 C 
BRANCH  18  19
ATOM     19  S   UNL     1      37.362 -24.157 -12.454  0.00  0.00    -0.047 S 
BRANCH  19  31
ATOM     20  O   UNL     1      39.834 -24.687 -13.081  0.00  0.00    -0.262 OA
ATOM     21  N   UNL     1      38.424 -26.567 -13.089  0.00  0.00    -0.250 N 
ATOM     22  C   UNL     1      37.769 -28.626 -11.853  0.00  0.00    +0.027 C 
ATOM     23  C   UNL     1      38.055 -29.498 -13.058  0.00  0.00    +0.029 C 
ATOM     24  C   UNL     1      37.359 -27.239 -12.315  0.00  0.00    +0.099 C 
ATOM     25  C   UNL     1      38.981 -28.806 -14.022  0.00  0.00    -0.009 C 
ATOM     26  C   UNL     1      39.146 -27.401 -14.034  0.00  0.00    +0.051 C 
ATOM     27  C   UNL     1      39.661 -29.609 -14.957  0.00  0.00    -0.007 C 
ATOM     28  C   UNL     1      39.991 -26.854 -15.018  0.00  0.00    +0.014 C 
ATOM     29  C   UNL     1      40.509 -29.043 -15.901  0.00  0.00    -0.022 C 
ATOM     30  C   UNL     1      40.669 -27.665 -15.934  0.00  0.00    -0.003 C 
ATOM     31  C   UNL     1      38.730 -25.197 -12.920  0.00  0.00    +0.280 C 
ATOM     32  C   UNL     1      41.251 -29.910 -16.860  0.00  0.00    +0.031 C 
ENDBRANCH  19  31
ENDBRANCH  18  19
ENDBRANCH   3  18
TORSDOF 6
ENDMDL
MODEL 7
REMARK VINA RESULT:      -9.7      5.860     10.687
REMARK  Name = 24878044
REMARK  6 active torsions:
REMARK  status: ('A' for Active; 'I' for Inactive)
REMARK    1  A    between atoms: N_2  and  C_6
REMARK    2  A    between atoms: C_3  and  C_18
REMARK    3  A    between atoms: C_7  and  S_12
REMARK    4  A    between atoms: S_12  and  N_15
REMARK    5  A    between atoms: C_18  and  S_19
REMARK    6  A    between atoms: S_19  and  C_31
REMARK                            x       y       z     vdW  Elec       q    Type
REMARK                         _______ _______ _______ _____ _____    ______ ____
ROOT
ATOM      1  O   UNL     1      37.380 -20.717 -16.303  0.00  0.00    -0.274 OA
ATOM      2  N   UNL     1      36.111 -22.012 -17.798  0.00  0.00    -0.283 N 
ATOM      3  C   UNL     1      36.823 -21.762 -16.630  0.00  0.00    +0.238 C 
ATOM      4  H   UNL     1      35.743 -22.920 -17.896  0.00  0.00    +0.155 HD
ENDROOT
BRANCH   2   6
ATOM      5 CL   UNL     1      33.216 -21.794 -18.723  0.00  0.00    -0.081 Cl
ATOM      6  C   UNL     1      35.855 -21.113 -18.860  0.00  0.00    +0.061 C 
ATOM      7  C   UNL     1      35.419 -19.323 -20.954  0.00  0.00    +0.123 C 
ATOM      8  C   UNL     1      34.568 -20.931 -19.365  0.00  0.00    +0.072 C 
ATOM      9  C   UNL     1      36.925 -20.399 -19.403  0.00  0.00    +0.017 C 
ATOM     10  C   UNL     1      34.350 -20.036 -20.412  0.00  0.00    +0.033 C 
ATOM     11  C   UNL     1      36.706 -19.504 -20.450  0.00  0.00    +0.021 C 
BRANCH   7  12
ATOM     12  S   UNL     1      35.146 -18.202 -22.266  0.00  0.00    +0.057 S 
ATOM     13  O   UNL     1      34.061 -18.714 -23.090  0.00  0.00    -0.153 OA
ATOM     14  O   UNL     1      35.064 -16.857 -21.715  0.00  0.00    -0.153 OA
BRANCH  12  15
ATOM     15  N   UNL     1      36.613 -18.351 -23.131  0.00  0.00    -0.203 NA
ATOM     16  H   UNL     1      36.410 -18.520 -24.116  0.00  0.00    +0.144 HD
ATOM     17  H   UNL     1      37.152 -19.131 -22.755  0.00  0.00    +0.144 HD
ENDBRANCH  12  15
ENDBRANCH   7  12
ENDBRANCH   2   6
BRANCH   3  18
ATOM     18  C   UNL     1      36.882 -22.977 -15.730  0.00  0.00    +0.152 C 
BRANCH  18  19
ATOM     19  S   UNL     1      35.645 -22.798 -14.426  0.00  0.00    -0.047 S 
BRANCH  19  31
ATOM     20  O   UNL     1      34.242 -23.618 -16.462  0.00  0.00    -0.262 OA
ATOM     21  N   UNL     1      33.049 -23.575 -14.437  0.00  0.00    -0.250 N 
ATOM     22  C   UNL     1      32.116 -24.964 -12.594  0.00  0.00    +0.027 C 
ATOM     23  C   UNL     1      30.727 -24.400 -12.809  0.00  0.00    +0.029 C 
ATOM     24  C   UNL     1      33.152 -23.933 -13.006  0.00  0.00    +0.099 C 
ATOM     25  C   UNL     1      30.585 -23.815 -14.189  0.00  0.00    -0.009 C 
ATOM     26  C   UNL     1      31.703 -23.416 -14.958  0.00  0.00    +0.051 C 
ATOM     27  C   UNL     1      29.280 -23.635 -14.685  0.00  0.00    -0.007 C 
ATOM     28  C   UNL     1      31.453 -22.824 -16.210  0.00  0.00    +0.014 C 
ATOM     29  C   UNL     1      29.065 -23.070 -15.936  0.00  0.00    -0.022 C 
ATOM     30  C   UNL     1      30.151 -22.661 -16.696  0.00  0.00    -0.003 C 
ATOM     31  C   UNL     1      34.190 -23.402 -15.255  0.00  0.00    +0.280 C 
ATOM     32  C   UNL     1      27.679 -22.920 -16.463  0.00  0.00    +0.031 C 
ENDBRANCH  19  31
ENDBRANCH  18  19
ENDBRANCH   3  18
TORSDOF 6
ENDMDL
MODEL 8
REMARK VINA RESULT:      -9.6      2.936      4.016
REMARK  Name = 24878044
REMARK  6 active torsions:
REMARK  status: ('A' for Active; 'I' for Inactive)
REMARK    1  A    between atoms: N_2  and  C_6
REMARK    2  A    between atoms: C_3  and  C_18
REMARK    3  A    between atoms: C_7  and  S_12
REMARK    4  A    between atoms: S_12  and  N_15
REMARK    5  A    between atoms: C_18  and  S_19
REMARK    6  A    between atoms: S_19  and  C_31
REMARK                            x       y       z     vdW  Elec       q    Type
REMARK                         _______ _______ _______ _____ _____    ______ ____
ROOT
ATOM      1  O   UNL     1      36.448 -19.405 -20.114  0.00  0.00    -0.274 OA
ATOM      2  N   UNL     1      34.827 -21.054 -19.693  0.00  0.00    -0.283 N 
ATOM      3  C   UNL     1      35.437 -20.035 -20.416  0.00  0.00    +0.238 C 
ATOM      4  H   UNL     1      34.010 -21.437 -20.087  0.00  0.00    +0.155 HD
ENDROOT
BRANCH   2   6
ATOM      5 CL   UNL     1      32.687 -22.456 -18.037  0.00  0.00    -0.081 Cl
ATOM      6  C   UNL     1      35.245 -21.604 -18.457  0.00  0.00    +0.061 C 
ATOM      7  C   UNL     1      36.135 -22.664 -16.036  0.00  0.00    +0.123 C 
ATOM      8  C   UNL     1      34.352 -22.268 -17.617  0.00  0.00    +0.072 C 
ATOM      9  C   UNL     1      36.583 -21.469 -18.087  0.00  0.00    +0.017 C 
ATOM     10  C   UNL     1      34.797 -22.798 -16.407  0.00  0.00    +0.033 C 
ATOM     11  C   UNL     1      37.029 -22.000 -16.876  0.00  0.00    +0.021 C 
BRANCH   7  12
ATOM     12  S   UNL     1      36.693 -23.328 -14.520  0.00  0.00    +0.057 S 
ATOM     13  O   UNL     1      37.982 -22.731 -14.204  0.00  0.00    -0.153 OA
ATOM     14  O   UNL     1      35.605 -23.255 -13.555  0.00  0.00    -0.153 OA
BRANCH  12  15
ATOM     15  N   UNL     1      36.934 -24.964 -14.951  0.00  0.00    -0.203 NA
ATOM     16  H   UNL     1      36.054 -25.473 -14.858  0.00  0.00    +0.144 HD
ATOM     17  H   UNL     1      37.633 -25.379 -14.336  0.00  0.00    +0.144 HD
ENDBRANCH  12  15
ENDBRANCH   7  12
ENDBRANCH   2   6
BRANCH   3  18
ATOM     18  C   UNL     1      34.692 -19.722 -21.695  0.00  0.00    +0.152 C 
BRANCH  18  19
ATOM     19  S   UNL     1      35.742 -18.693 -22.745  0.00  0.00    -0.047 S 
BRANCH  19  31
ATOM     20  O   UNL     1      33.792 -17.730 -24.180  0.00  0.00    -0.262 OA
ATOM     21  N   UNL     1      34.663 -16.211 -22.612  0.00  0.00    -0.250 N 
ATOM     22  C   UNL     1      34.269 -15.097 -20.421  0.00  0.00    +0.027 C 
ATOM     23  C   UNL     1      34.417 -13.723 -21.039  0.00  0.00    +0.029 C 
ATOM     24  C   UNL     1      35.100 -16.099 -21.204  0.00  0.00    +0.099 C 
ATOM     25  C   UNL     1      34.192 -13.770 -22.527  0.00  0.00    -0.009 C 
ATOM     26  C   UNL     1      34.319 -14.965 -23.273  0.00  0.00    +0.051 C 
ATOM     27  C   UNL     1      33.885 -12.558 -23.174  0.00  0.00    -0.007 C 
ATOM     28  C   UNL     1      34.147 -14.882 -24.667  0.00  0.00    +0.014 C 
ATOM     29  C   UNL     1      33.696 -12.511 -24.550  0.00  0.00    -0.022 C 
ATOM     30  C   UNL     1      33.832 -13.673 -25.296  0.00  0.00    -0.003 C 
ATOM     31  C   UNL     1      34.578 -17.456 -23.278  0.00  0.00    +0.280 C 
ATOM     32  C   UNL     1      33.335 -11.228 -25.216  0.00  0.00    +0.031 C 
ENDBRANCH  19  31
ENDBRANCH  18  19
ENDBRANCH   3  18
TORSDOF 6
ENDMDL
MODEL 9
REMARK VINA RESULT:      -9.6      5.219      8.185
REMARK  Name = 24878044
REMARK  6 active torsions:
REMARK  status: ('A' for Active; 'I' for Inactive)
REMARK    1  A    between atoms: N_2  and  C_6
REMARK    2  A    between atoms: C_3  and  C_18
REMARK    3  A    between atoms: C_7  and  S_12
REMARK    4  A    between atoms: S_12  and  N_15
REMARK    5  A    between atoms: C_18  and  S_19
REMARK    6  A    between atoms: S_19  and  C_31
REMARK                            x       y       z     vdW  Elec       q    Type
REMARK                         _______ _______ _______ _____ _____    ______ ____
ROOT
ATOM      1  O   UNL     1      32.344 -22.804 -15.228  0.00  0.00    -0.274 OA
ATOM      2  N   UNL     1      34.506 -23.195 -16.061  0.00  0.00    -0.283 N 
ATOM      3  C   UNL     1      33.140 -22.957 -16.151  0.00  0.00    +0.238 C 
ATOM      4  H   UNL     1      34.986 -23.305 -16.914  0.00  0.00    +0.155 HD
ENDROOT
BRANCH   2   6
ATOM      5 CL   UNL     1      37.197 -21.765 -16.090  0.00  0.00    -0.081 Cl
ATOM      6  C   UNL     1      35.287 -23.296 -14.884  0.00  0.00    +0.061 C 
ATOM      7  C   UNL     1      36.773 -23.533 -12.536  0.00  0.00    +0.123 C 
ATOM      8  C   UNL     1      36.535 -22.682 -14.784  0.00  0.00    +0.072 C 
ATOM      9  C   UNL     1      34.782 -24.030 -13.810  0.00  0.00    +0.017 C 
ATOM     10  C   UNL     1      37.278 -22.800 -13.610  0.00  0.00    +0.033 C 
ATOM     11  C   UNL     1      35.525 -24.148 -12.636  0.00  0.00    +0.021 C 
BRANCH   7  12
ATOM     12  S   UNL     1      37.703 -23.682 -11.066  0.00  0.00    +0.057 S 
ATOM     13  O   UNL     1      39.114 -23.744 -11.419  0.00  0.00    -0.153 OA
ATOM     14  O   UNL     1      37.237 -22.678 -10.120  0.00  0.00    -0.153 OA
BRANCH  12  15
ATOM     15  N   UNL     1      37.204 -25.223 -10.520  0.00  0.00    -0.203 NA
ATOM     16  H   UNL     1      37.900 -25.920 -10.788  0.00  0.00    +0.144 HD
ATOM     17  H   UNL     1      36.306 -25.459 -10.942  0.00  0.00    +0.144 HD
ENDBRANCH  12  15
ENDBRANCH   7  12
ENDBRANCH   2   6
BRANCH   3  18
ATOM     18  C   UNL     1      32.665 -22.917 -17.589  0.00  0.00    +0.152 C 
BRANCH  18  19
ATOM     19  S   UNL     1      34.103 -22.798 -18.675  0.00  0.00    -0.047 S 
BRANCH  19  31
ATOM     20  O   UNL     1      32.695 -20.751 -19.456  0.00  0.00    -0.262 OA
ATOM     21  N   UNL     1      34.990 -20.567 -19.931  0.00  0.00    -0.250 N 
ATOM     22  C   UNL     1      37.126 -19.478 -19.262  0.00  0.00    +0.027 C 
ATOM     23  C   UNL     1      37.337 -18.927 -20.657  0.00  0.00    +0.029 C 
ATOM     24  C   UNL     1      36.330 -20.770 -19.341  0.00  0.00    +0.099 C 
ATOM     25  C   UNL     1      36.041 -18.875 -21.422  0.00  0.00    -0.009 C 
ATOM     26  C   UNL     1      34.925 -19.670 -21.071  0.00  0.00    +0.051 C 
ATOM     27  C   UNL     1      35.985 -18.027 -22.544  0.00  0.00    -0.007 C 
ATOM     28  C   UNL     1      33.785 -19.588 -21.892  0.00  0.00    +0.014 C 
ATOM     29  C   UNL     1      34.837 -17.948 -23.322  0.00  0.00    -0.022 C 
ATOM     30  C   UNL     1      33.739 -18.732 -22.998  0.00  0.00    -0.003 C 
ATOM     31  C   UNL     1      33.836 -21.202 -19.416  0.00  0.00    +0.280 C 
ATOM     32  C   UNL     1      34.779 -17.017 -24.484  0.00  0.00    +0.031 C 
ENDBRANCH  19  31
ENDBRANCH  18  19
ENDBRANCH   3  18
TORSDOF 6
ENDMDL
