MODEL 1
REMARK VINA RESULT:     -10.7      0.000      0.000
REMARK  Name = 57336276
REMARK  5 active torsions:
REMARK  status: ('A' for Active; 'I' for Inactive)
REMARK    1  A    between atoms: C_2  and  C_16
REMARK    2  A    between atoms: C_6  and  O_17
REMARK    3  A    between atoms: O_17  and  C_18
REMARK    4  A    between atoms: C_18  and  C_21
REMARK    5  A    between atoms: C_22  and  C_26
REMARK                            x       y       z     vdW  Elec       q    Type
REMARK                         _______ _______ _______ _____ _____    ______ ____
ROOT
ATOM      1  N   UNL     1      35.755 -22.051 -15.838  0.00  0.00    -0.210 NA
ATOM      2  C   UNL     1      37.324 -23.414 -14.603  0.00  0.00    +0.073 C 
ATOM      3  C   UNL     1      38.322 -23.111 -15.523  0.00  0.00    +0.011 C 
ATOM      4  C   UNL     1      36.068 -22.863 -14.804  0.00  0.00    +0.107 C 
ATOM      5  C   UNL     1      38.037 -22.278 -16.600  0.00  0.00    +0.058 C 
ATOM      6  C   UNL     1      36.750 -21.779 -16.711  0.00  0.00    +0.225 C 
ENDROOT
BRANCH   2  16
ATOM      7  S   UNL     1      37.624 -28.538 -14.228  0.00  0.00    -0.007 S 
ATOM      8  O   UNL     1      38.687 -29.277 -14.881  0.00  0.00    -0.173 OA
ATOM      9  O   UNL     1      36.441 -29.217 -13.735  0.00  0.00    -0.173 OA
ATOM     10  O   UNL     1      38.253 -23.797 -12.543  0.00  0.00    -0.270 OA
ATOM     11  N   UNL     1      37.093 -25.593 -13.493  0.00  0.00    -0.272 N 
ATOM     12  C   UNL     1      38.344 -27.620 -12.876  0.00  0.00    +0.172 C 
ATOM     13  C   UNL     1      37.102 -27.236 -15.332  0.00  0.00    +0.172 C 
ATOM     14  C   UNL     1      37.412 -26.516 -12.400  0.00  0.00    +0.119 C 
ATOM     15  C   UNL     1      36.304 -26.172 -14.591  0.00  0.00    +0.119 C 
ATOM     16  C   UNL     1      37.593 -24.289 -13.456  0.00  0.00    +0.251 C 
ENDBRANCH   2  16
BRANCH   6  17
ATOM     17  O   UNL     1      36.445 -20.956 -17.764  0.00  0.00    -0.455 OA
BRANCH  17  18
ATOM     18  C   UNL     1      36.051 -21.587 -18.977  0.00  0.00    +0.238 C 
BRANCH  18  21
ATOM     19  O   UNL     1      32.367 -21.749 -18.912  0.00  0.00    -0.358 OA
ATOM     20  N   UNL     1      32.526 -20.748 -19.862  0.00  0.00    -0.078 NA
ATOM     21  C   UNL     1      34.565 -21.456 -19.138  0.00  0.00    +0.075 A 
ATOM     22  C   UNL     1      33.847 -20.590 -19.981  0.00  0.00    +0.122 A 
ATOM     23  C   UNL     1      33.588 -22.163 -18.489  0.00  0.00    +0.154 A 
ATOM     24  C   UNL     1      33.602 -23.227 -17.475  0.00  0.00    +0.075 C 
BRANCH  22  26
ATOM     25  F   UNL     1      35.920 -16.823 -23.518  0.00  0.00    -0.204 F 
ATOM     26  C   UNL     1      34.383 -19.617 -20.895  0.00  0.00    +0.021 C 
ATOM     27  C   UNL     1      35.342 -18.703 -20.458  0.00  0.00    +0.004 C 
ATOM     28  C   UNL     1      33.943 -19.586 -22.219  0.00  0.00    +0.004 C 
ATOM     29  C   UNL     1      35.862 -17.760 -21.344  0.00  0.00    +0.030 C 
ATOM     30  C   UNL     1      34.463 -18.642 -23.105  0.00  0.00    +0.030 C 
ATOM     31  C   UNL     1      35.421 -17.729 -22.667  0.00  0.00    +0.140 C 
ENDBRANCH  22  26
ENDBRANCH  18  21
ENDBRANCH  17  18
ENDBRANCH   6  17
TORSDOF 5
ENDMDL
MODEL 2
REMARK VINA RESULT:     -10.7      9.974     15.211
REMARK  Name = 57336276
REMARK  5 active torsions:
REMARK  status: ('A' for Active; 'I' for Inactive)
REMARK    1  A    between atoms: C_2  and  C_16
REMARK    2  A    between atoms: C_6  and  O_17
REMARK    3  A    between atoms: O_17  and  C_18
REMARK    4  A    between atoms: C_18  and  C_21
REMARK    5  A    between atoms: C_22  and  C_26
REMARK                            x       y       z     vdW  Elec       q    Type
REMARK                         _______ _______ _______ _____ _____    ______ ____
ROOT
ATOM      1  N   UNL     1      32.693 -11.190 -22.440  0.00  0.00    -0.210 NA
ATOM      2  C   UNL     1      32.116  -9.647 -20.670  0.00  0.00    +0.073 C 
ATOM      3  C   UNL     1      31.773 -10.711 -19.845  0.00  0.00    +0.011 C 
ATOM      4  C   UNL     1      32.568  -9.937 -21.949  0.00  0.00    +0.107 C 
ATOM      5  C   UNL     1      31.890 -12.015 -20.315  0.00  0.00    +0.058 C 
ATOM      6  C   UNL     1      32.351 -12.199 -21.608  0.00  0.00    +0.225 C 
ENDROOT
BRANCH   2  16
ATOM      7  S   UNL     1      31.833  -5.201 -23.248  0.00  0.00    -0.007 S 
ATOM      8  O   UNL     1      30.684  -4.885 -24.073  0.00  0.00    -0.173 OA
ATOM      9  O   UNL     1      33.068  -4.451 -23.376  0.00  0.00    -0.173 OA
ATOM     10  O   UNL     1      31.482  -8.100 -19.102  0.00  0.00    -0.270 OA
ATOM     11  N   UNL     1      32.484  -7.245 -21.036  0.00  0.00    -0.272 N 
ATOM     12  C   UNL     1      31.316  -5.139 -21.541  0.00  0.00    +0.172 C 
ATOM     13  C   UNL     1      32.206  -6.933 -23.466  0.00  0.00    +0.172 C 
ATOM     14  C   UNL     1      32.313  -5.846 -20.635  0.00  0.00    +0.119 C 
ATOM     15  C   UNL     1      33.107  -7.448 -22.353  0.00  0.00    +0.119 C 
ATOM     16  C   UNL     1      32.004  -8.260 -20.204  0.00  0.00    +0.251 C 
ENDBRANCH   2  16
BRANCH   6  17
ATOM     17  O   UNL     1      32.475 -13.474 -22.094  0.00  0.00    -0.455 OA
BRANCH  17  18
ATOM     18  C   UNL     1      33.795 -13.990 -22.209  0.00  0.00    +0.238 C 
BRANCH  18  21
ATOM     19  O   UNL     1      33.964 -15.046 -25.739  0.00  0.00    -0.358 OA
ATOM     20  N   UNL     1      34.375 -16.229 -25.136  0.00  0.00    -0.078 NA
ATOM     21  C   UNL     1      33.946 -14.659 -23.544  0.00  0.00    +0.075 A 
ATOM     22  C   UNL     1      34.355 -15.974 -23.825  0.00  0.00    +0.122 A 
ATOM     23  C   UNL     1      33.711 -14.119 -24.781  0.00  0.00    +0.154 A 
ATOM     24  C   UNL     1      33.264 -12.800 -25.250  0.00  0.00    +0.075 C 
BRANCH  22  26
ATOM     25  F   UNL     1      35.805 -19.918 -20.173  0.00  0.00    -0.204 F 
ATOM     26  C   UNL     1      34.730 -16.993 -22.881  0.00  0.00    +0.021 C 
ATOM     27  C   UNL     1      35.304 -16.637 -21.661  0.00  0.00    +0.004 C 
ATOM     28  C   UNL     1      34.520 -18.338 -23.186  0.00  0.00    +0.004 C 
ATOM     29  C   UNL     1      35.667 -17.625 -20.746  0.00  0.00    +0.030 C 
ATOM     30  C   UNL     1      34.883 -19.326 -22.271  0.00  0.00    +0.030 C 
ATOM     31  C   UNL     1      35.457 -18.970 -21.051  0.00  0.00    +0.140 C 
ENDBRANCH  22  26
ENDBRANCH  18  21
ENDBRANCH  17  18
ENDBRANCH   6  17
TORSDOF 5
ENDMDL
MODEL 3
REMARK VINA RESULT:     -10.5      8.584     12.692
REMARK  Name = 57336276
REMARK  5 active torsions:
REMARK  status: ('A' for Active; 'I' for Inactive)
REMARK    1  A    between atoms: C_2  and  C_16
REMARK    2  A    between atoms: C_6  and  O_17
REMARK    3  A    between atoms: O_17  and  C_18
REMARK    4  A    between atoms: C_18  and  C_21
REMARK    5  A    between atoms: C_22  and  C_26
REMARK                            x       y       z     vdW  Elec       q    Type
REMARK                         _______ _______ _______ _____ _____    ______ ____
ROOT
ATOM      1  N   UNL     1      34.173 -13.230 -22.281  0.00  0.00    -0.210 NA
ATOM      2  C   UNL     1      34.026 -15.001 -23.921  0.00  0.00    +0.073 C 
ATOM      3  C   UNL     1      33.804 -14.063 -24.923  0.00  0.00    +0.011 C 
ATOM      4  C   UNL     1      34.203 -14.537 -22.627  0.00  0.00    +0.107 C 
ATOM      5  C   UNL     1      33.767 -12.709 -24.606  0.00  0.00    +0.058 C 
ATOM      6  C   UNL     1      33.955 -12.349 -23.282  0.00  0.00    +0.225 C 
ENDROOT
BRANCH   2  16
ATOM      7  S   UNL     1      35.251 -19.057 -21.001  0.00  0.00    -0.007 S 
ATOM      8  O   UNL     1      34.425 -19.448 -19.875  0.00  0.00    -0.173 OA
ATOM      9  O   UNL     1      36.600 -19.571 -21.146  0.00  0.00    -0.173 OA
ATOM     10  O   UNL     1      33.333 -16.822 -25.128  0.00  0.00    -0.270 OA
ATOM     11  N   UNL     1      34.928 -17.241 -23.469  0.00  0.00    -0.272 N 
ATOM     12  C   UNL     1      34.350 -19.426 -22.496  0.00  0.00    +0.172 C 
ATOM     13  C   UNL     1      35.326 -17.274 -21.035  0.00  0.00    +0.172 C 
ATOM     14  C   UNL     1      34.936 -18.689 -23.692  0.00  0.00    +0.119 C 
ATOM     15  C   UNL     1      35.807 -16.769 -22.388  0.00  0.00    +0.119 C 
ATOM     16  C   UNL     1      34.071 -16.436 -24.224  0.00  0.00    +0.251 C 
ENDBRANCH   2  16
BRANCH   6  17
ATOM     17  O   UNL     1      33.923 -11.021 -22.944  0.00  0.00    -0.455 OA
BRANCH  17  18
ATOM     18  C   UNL     1      32.693 -10.337 -23.153  0.00  0.00    +0.238 C 
BRANCH  18  21
ATOM     19  O   UNL     1      31.658  -9.097 -19.837  0.00  0.00    -0.358 OA
ATOM     20  N   UNL     1      31.985  -7.885 -20.433  0.00  0.00    -0.078 NA
ATOM     21  C   UNL     1      32.331  -9.586 -21.905  0.00  0.00    +0.075 A 
ATOM     22  C   UNL     1      32.384  -8.202 -21.668  0.00  0.00    +0.122 A 
ATOM     23  C   UNL     1      31.868 -10.102 -20.724  0.00  0.00    +0.154 A 
ATOM     24  C   UNL     1      31.570 -11.462 -20.252  0.00  0.00    +0.075 C 
BRANCH  22  26
ATOM     25  F   UNL     1      34.011  -4.223 -25.207  0.00  0.00    -0.204 F 
ATOM     26  C   UNL     1      32.804  -7.174 -22.582  0.00  0.00    +0.021 C 
ATOM     27  C   UNL     1      31.854  -6.442 -23.294  0.00  0.00    +0.004 C 
ATOM     28  C   UNL     1      34.163  -6.908 -22.757  0.00  0.00    +0.004 C 
ATOM     29  C   UNL     1      32.261  -5.445 -24.180  0.00  0.00    +0.030 C 
ATOM     30  C   UNL     1      34.570  -5.911 -23.644  0.00  0.00    +0.030 C 
ATOM     31  C   UNL     1      33.620  -5.180 -24.355  0.00  0.00    +0.140 C 
ENDBRANCH  22  26
ENDBRANCH  18  21
ENDBRANCH  17  18
ENDBRANCH   6  17
TORSDOF 5
ENDMDL
MODEL 4
REMARK VINA RESULT:     -10.3      1.908      2.732
REMARK  Name = 57336276
REMARK  5 active torsions:
REMARK  status: ('A' for Active; 'I' for Inactive)
REMARK    1  A    between atoms: C_2  and  C_16
REMARK    2  A    between atoms: C_6  and  O_17
REMARK    3  A    between atoms: O_17  and  C_18
REMARK    4  A    between atoms: C_18  and  C_21
REMARK    5  A    between atoms: C_22  and  C_26
REMARK                            x       y       z     vdW  Elec       q    Type
REMARK                         _______ _______ _______ _____ _____    ______ ____
ROOT
ATOM      1  N   UNL     1      35.880 -22.590 -16.346  0.00  0.00    -0.210 NA
ATOM      2  C   UNL     1      37.753 -23.472 -15.097  0.00  0.00    +0.073 C 
ATOM      3  C   UNL     1      38.612 -22.600 -15.757  0.00  0.00    +0.011 C 
ATOM      4  C   UNL     1      36.407 -23.428 -15.425  0.00  0.00    +0.107 C 
ATOM      5  C   UNL     1      38.107 -21.723 -16.711  0.00  0.00    +0.058 C 
ATOM      6  C   UNL     1      36.746 -21.758 -16.966  0.00  0.00    +0.225 C 
ENDROOT
BRANCH   2  16
ATOM      7  S   UNL     1      36.087 -24.574 -10.354  0.00  0.00    -0.007 S 
ATOM      8  O   UNL     1      34.808 -25.223 -10.140  0.00  0.00    -0.173 OA
ATOM      9  O   UNL     1      36.781 -23.921  -9.260  0.00  0.00    -0.173 OA
ATOM     10  O   UNL     1      38.879 -25.380 -14.509  0.00  0.00    -0.270 OA
ATOM     11  N   UNL     1      37.983 -24.135 -12.743  0.00  0.00    -0.272 N 
ATOM     12  C   UNL     1      37.194 -25.770 -11.082  0.00  0.00    +0.172 C 
ATOM     13  C   UNL     1      35.888 -23.391 -11.676  0.00  0.00    +0.172 C 
ATOM     14  C   UNL     1      38.401 -25.093 -11.715  0.00  0.00    +0.119 C 
ATOM     15  C   UNL     1      37.235 -22.970 -12.245  0.00  0.00    +0.119 C 
ATOM     16  C   UNL     1      38.255 -24.409 -14.085  0.00  0.00    +0.251 C 
ENDBRANCH   2  16
BRANCH   6  17
ATOM     17  O   UNL     1      36.224 -20.904 -17.902  0.00  0.00    -0.455 OA
BRANCH  17  18
ATOM     18  C   UNL     1      35.841 -21.474 -19.147  0.00  0.00    +0.238 C 
BRANCH  18  21
ATOM     19  O   UNL     1      32.154 -21.572 -19.106  0.00  0.00    -0.358 OA
ATOM     20  N   UNL     1      32.337 -20.592 -20.074  0.00  0.00    -0.078 NA
ATOM     21  C   UNL     1      34.358 -21.321 -19.322  0.00  0.00    +0.075 A 
ATOM     22  C   UNL     1      33.661 -20.460 -20.187  0.00  0.00    +0.122 A 
ATOM     23  C   UNL     1      33.364 -21.998 -18.666  0.00  0.00    +0.154 A 
ATOM     24  C   UNL     1      33.353 -23.042 -17.631  0.00  0.00    +0.075 C 
BRANCH  22  26
ATOM     25  F   UNL     1      35.825 -16.800 -23.782  0.00  0.00    -0.204 F 
ATOM     26  C   UNL     1      34.220 -19.514 -21.115  0.00  0.00    +0.021 C 
ATOM     27  C   UNL     1      33.830 -19.537 -22.454  0.00  0.00    +0.004 C 
ATOM     28  C   UNL     1      35.153 -18.573 -20.678  0.00  0.00    +0.004 C 
ATOM     29  C   UNL     1      34.371 -18.620 -23.355  0.00  0.00    +0.030 C 
ATOM     30  C   UNL     1      35.695 -17.656 -21.579  0.00  0.00    +0.030 C 
ATOM     31  C   UNL     1      35.305 -17.680 -22.917  0.00  0.00    +0.140 C 
ENDBRANCH  22  26
ENDBRANCH  18  21
ENDBRANCH  17  18
ENDBRANCH   6  17
TORSDOF 5
ENDMDL
MODEL 5
REMARK VINA RESULT:     -10.1      9.145     14.575
REMARK  Name = 57336276
REMARK  5 active torsions:
REMARK  status: ('A' for Active; 'I' for Inactive)
REMARK    1  A    between atoms: C_2  and  C_16
REMARK    2  A    between atoms: C_6  and  O_17
REMARK    3  A    between atoms: O_17  and  C_18
REMARK    4  A    between atoms: C_18  and  C_21
REMARK    5  A    between atoms: C_22  and  C_26
REMARK                            x       y       z     vdW  Elec       q    Type
REMARK                         _______ _______ _______ _____ _____    ______ ____
ROOT
ATOM      1  N   UNL     1      34.214 -12.048 -23.304  0.00  0.00    -0.210 NA
ATOM      2  C   UNL     1      32.435 -10.931 -22.109  0.00  0.00    +0.073 C 
ATOM      3  C   UNL     1      32.409 -11.958 -21.173  0.00  0.00    +0.011 C 
ATOM      4  C   UNL     1      33.349 -11.022 -23.147  0.00  0.00    +0.107 C 
ATOM      5  C   UNL     1      33.285 -13.031 -21.301  0.00  0.00    +0.058 C 
ATOM      6  C   UNL     1      34.160 -13.028 -22.375  0.00  0.00    +0.225 C 
ENDROOT
BRANCH   2  16
ATOM      7  S   UNL     1      32.874  -6.067 -23.734  0.00  0.00    -0.007 S 
ATOM      8  O   UNL     1      32.906  -5.749 -25.148  0.00  0.00    -0.173 OA
ATOM      9  O   UNL     1      33.290  -5.093 -22.743  0.00  0.00    -0.173 OA
ATOM     10  O   UNL     1      30.327 -10.053 -21.907  0.00  0.00    -0.270 OA
ATOM     11  N   UNL     1      32.074  -8.502 -22.023  0.00  0.00    -0.272 N 
ATOM     12  C   UNL     1      31.219  -6.601 -23.330  0.00  0.00    +0.172 C 
ATOM     13  C   UNL     1      33.822  -7.559 -23.484  0.00  0.00    +0.172 C 
ATOM     14  C   UNL     1      31.185  -7.337 -21.999  0.00  0.00    +0.119 C 
ATOM     15  C   UNL     1      33.508  -8.193 -22.137  0.00  0.00    +0.119 C 
ATOM     16  C   UNL     1      31.523  -9.785 -22.001  0.00  0.00    +0.251 C 
ENDBRANCH   2  16
BRANCH   6  17
ATOM     17  O   UNL     1      35.034 -14.074 -22.523  0.00  0.00    -0.455 OA
BRANCH  17  18
ATOM     18  C   UNL     1      34.616 -15.334 -22.014  0.00  0.00    +0.238 C 
BRANCH  18  21
ATOM     19  O   UNL     1      34.077 -17.186 -25.158  0.00  0.00    -0.358 OA
ATOM     20  N   UNL     1      34.531 -18.231 -24.362  0.00  0.00    -0.078 NA
ATOM     21  C   UNL     1      34.483 -16.303 -23.151  0.00  0.00    +0.075 A 
ATOM     22  C   UNL     1      34.767 -17.680 -23.168  0.00  0.00    +0.122 A 
ATOM     23  C   UNL     1      34.053 -16.044 -24.426  0.00  0.00    +0.154 A 
ATOM     24  C   UNL     1      33.594 -14.833 -25.120  0.00  0.00    +0.075 C 
BRANCH  22  26
ATOM     25  F   UNL     1      36.663 -20.796 -18.961  0.00  0.00    -0.204 F 
ATOM     26  C   UNL     1      35.257 -18.485 -22.081  0.00  0.00    +0.021 C 
ATOM     27  C   UNL     1      36.579 -18.356 -21.658  0.00  0.00    +0.004 C 
ATOM     28  C   UNL     1      34.409 -19.396 -21.450  0.00  0.00    +0.004 C 
ATOM     29  C   UNL     1      37.054 -19.135 -20.603  0.00  0.00    +0.030 C 
ATOM     30  C   UNL     1      34.885 -20.177 -20.395  0.00  0.00    +0.030 C 
ATOM     31  C   UNL     1      36.207 -20.046 -19.973  0.00  0.00    +0.140 C 
ENDBRANCH  22  26
ENDBRANCH  18  21
ENDBRANCH  17  18
ENDBRANCH   6  17
TORSDOF 5
ENDMDL
MODEL 6
REMARK VINA RESULT:     -10.0      9.590     13.739
REMARK  Name = 57336276
REMARK  5 active torsions:
REMARK  status: ('A' for Active; 'I' for Inactive)
REMARK    1  A    between atoms: C_2  and  C_16
REMARK    2  A    between atoms: C_6  and  O_17
REMARK    3  A    between atoms: O_17  and  C_18
REMARK    4  A    between atoms: C_18  and  C_21
REMARK    5  A    between atoms: C_22  and  C_26
REMARK                            x       y       z     vdW  Elec       q    Type
REMARK                         _______ _______ _______ _____ _____    ______ ____
ROOT
ATOM      1  N   UNL     1      32.395 -12.553 -21.958  0.00  0.00    -0.210 NA
ATOM      2  C   UNL     1      33.562 -13.817 -23.658  0.00  0.00    +0.073 C 
ATOM      3  C   UNL     1      34.010 -12.635 -24.238  0.00  0.00    +0.011 C 
ATOM      4  C   UNL     1      32.764 -13.723 -22.528  0.00  0.00    +0.107 C 
ATOM      5  C   UNL     1      33.652 -11.413 -23.679  0.00  0.00    +0.058 C 
ATOM      6  C   UNL     1      32.850 -11.427 -22.550  0.00  0.00    +0.225 C 
ENDROOT
BRANCH   2  16
ATOM      7  S   UNL     1      35.254 -18.139 -21.433  0.00  0.00    -0.007 S 
ATOM      8  O   UNL     1      34.408 -18.901 -20.535  0.00  0.00    -0.173 OA
ATOM      9  O   UNL     1      36.685 -18.369 -21.479  0.00  0.00    -0.173 OA
ATOM     10  O   UNL     1      33.375 -15.423 -25.282  0.00  0.00    -0.270 OA
ATOM     11  N   UNL     1      34.838 -15.912 -23.522  0.00  0.00    -0.272 N 
ATOM     12  C   UNL     1      34.606 -18.322 -23.086  0.00  0.00    +0.172 C 
ATOM     13  C   UNL     1      34.976 -16.405 -21.110  0.00  0.00    +0.172 C 
ATOM     14  C   UNL     1      35.157 -17.254 -24.018  0.00  0.00    +0.119 C 
ATOM     15  C   UNL     1      35.487 -15.542 -22.255  0.00  0.00    +0.119 C 
ATOM     16  C   UNL     1      33.923 -15.122 -24.223  0.00  0.00    +0.251 C 
ENDBRANCH   2  16
BRANCH   6  17
ATOM     17  O   UNL     1      32.484 -10.235 -21.981  0.00  0.00    -0.455 OA
BRANCH  17  18
ATOM     18  C   UNL     1      33.118  -9.065 -22.481  0.00  0.00    +0.238 C 
BRANCH  18  21
ATOM     19  O   UNL     1      32.046  -6.633 -19.924  0.00  0.00    -0.358 OA
ATOM     20  N   UNL     1      32.254  -5.759 -20.984  0.00  0.00    -0.078 NA
ATOM     21  C   UNL     1      32.718  -7.891 -21.637  0.00  0.00    +0.075 A 
ATOM     22  C   UNL     1      32.654  -6.533 -21.996  0.00  0.00    +0.122 A 
ATOM     23  C   UNL     1      32.325  -7.899 -20.325  0.00  0.00    +0.154 A 
ATOM     24  C   UNL     1      32.156  -8.956 -19.318  0.00  0.00    +0.075 C 
BRANCH  22  26
ATOM     25  F   UNL     1      33.857  -4.283 -26.945  0.00  0.00    -0.204 F 
ATOM     26  C   UNL     1      32.965  -5.952 -23.275  0.00  0.00    +0.021 C 
ATOM     27  C   UNL     1      34.295  -5.792 -23.665  0.00  0.00    +0.004 C 
ATOM     28  C   UNL     1      31.936  -5.547 -24.127  0.00  0.00    +0.004 C 
ATOM     29  C   UNL     1      34.596  -5.230 -24.905  0.00  0.00    +0.030 C 
ATOM     30  C   UNL     1      32.238  -4.983 -25.366  0.00  0.00    +0.030 C 
ATOM     31  C   UNL     1      33.567  -4.824 -25.755  0.00  0.00    +0.140 C 
ENDBRANCH  22  26
ENDBRANCH  18  21
ENDBRANCH  17  18
ENDBRANCH   6  17
TORSDOF 5
ENDMDL
MODEL 7
REMARK VINA RESULT:     -10.0      8.737     14.128
REMARK  Name = 57336276
REMARK  5 active torsions:
REMARK  status: ('A' for Active; 'I' for Inactive)
REMARK    1  A    between atoms: C_2  and  C_16
REMARK    2  A    between atoms: C_6  and  O_17
REMARK    3  A    between atoms: O_17  and  C_18
REMARK    4  A    between atoms: C_18  and  C_21
REMARK    5  A    between atoms: C_22  and  C_26
REMARK                            x       y       z     vdW  Elec       q    Type
REMARK                         _______ _______ _______ _____ _____    ______ ____
ROOT
ATOM      1  N   UNL     1      32.382 -12.857 -21.465  0.00  0.00    -0.210 NA
ATOM      2  C   UNL     1      32.955 -10.846 -22.680  0.00  0.00    +0.073 C 
ATOM      3  C   UNL     1      34.077 -11.477 -23.207  0.00  0.00    +0.011 C 
ATOM      4  C   UNL     1      32.146 -11.574 -21.821  0.00  0.00    +0.107 C 
ATOM      5  C   UNL     1      34.351 -12.797 -22.864  0.00  0.00    +0.058 C 
ATOM      6  C   UNL     1      33.480 -13.436 -21.997  0.00  0.00    +0.225 C 
ENDROOT
BRANCH   2  16
ATOM      7  S   UNL     1      32.290  -6.683 -19.727  0.00  0.00    -0.007 S 
ATOM      8  O   UNL     1      33.390  -6.116 -18.972  0.00  0.00    -0.173 OA
ATOM      9  O   UNL     1      30.918  -6.318 -19.430  0.00  0.00    -0.173 OA
ATOM     10  O   UNL     1      32.980  -9.081 -24.142  0.00  0.00    -0.270 OA
ATOM     11  N   UNL     1      31.991  -8.673 -22.062  0.00  0.00    -0.272 N 
ATOM     12  C   UNL     1      32.590  -6.364 -21.458  0.00  0.00    +0.172 C 
ATOM     13  C   UNL     1      32.425  -8.462 -19.643  0.00  0.00    +0.172 C 
ATOM     14  C   UNL     1      31.733  -7.258 -22.342  0.00  0.00    +0.119 C 
ATOM     15  C   UNL     1      31.586  -9.130 -20.723  0.00  0.00    +0.119 C 
ATOM     16  C   UNL     1      32.638  -9.455 -23.021  0.00  0.00    +0.251 C 
ENDBRANCH   2  16
BRANCH   6  17
ATOM     17  O   UNL     1      33.729 -14.737 -21.645  0.00  0.00    -0.455 OA
BRANCH  17  18
ATOM     18  C   UNL     1      34.938 -15.311 -22.128  0.00  0.00    +0.238 C 
BRANCH  18  21
ATOM     19  O   UNL     1      33.957 -17.235 -25.118  0.00  0.00    -0.358 OA
ATOM     20  N   UNL     1      34.358 -18.286 -24.302  0.00  0.00    -0.078 NA
ATOM     21  C   UNL     1      34.613 -16.311 -23.198  0.00  0.00    +0.075 A 
ATOM     22  C   UNL     1      34.745 -17.710 -23.161  0.00  0.00    +0.122 A 
ATOM     23  C   UNL     1      34.113 -16.064 -24.449  0.00  0.00    +0.154 A 
ATOM     24  C   UNL     1      33.732 -14.843 -25.173  0.00  0.00    +0.075 C 
BRANCH  22  26
ATOM     25  F   UNL     1      36.625 -20.817 -18.940  0.00  0.00    -0.204 F 
ATOM     26  C   UNL     1      35.231 -18.513 -22.071  0.00  0.00    +0.021 C 
ATOM     27  C   UNL     1      34.372 -19.396 -21.417  0.00  0.00    +0.004 C 
ATOM     28  C   UNL     1      36.562 -18.408 -21.665  0.00  0.00    +0.004 C 
ATOM     29  C   UNL     1      34.843 -20.175 -20.361  0.00  0.00    +0.030 C 
ATOM     30  C   UNL     1      37.033 -19.187 -20.607  0.00  0.00    +0.030 C 
ATOM     31  C   UNL     1      36.173 -20.069 -19.955  0.00  0.00    +0.140 C 
ENDBRANCH  22  26
ENDBRANCH  18  21
ENDBRANCH  17  18
ENDBRANCH   6  17
TORSDOF 5
ENDMDL
MODEL 8
REMARK VINA RESULT:      -9.8      4.697      9.384
REMARK  Name = 57336276
REMARK  5 active torsions:
REMARK  status: ('A' for Active; 'I' for Inactive)
REMARK    1  A    between atoms: C_2  and  C_16
REMARK    2  A    between atoms: C_6  and  O_17
REMARK    3  A    between atoms: O_17  and  C_18
REMARK    4  A    between atoms: C_18  and  C_21
REMARK    5  A    between atoms: C_22  and  C_26
REMARK                            x       y       z     vdW  Elec       q    Type
REMARK                         _______ _______ _______ _____ _____    ______ ____
ROOT
ATOM      1  N   UNL     1      32.762 -20.874 -19.424  0.00  0.00    -0.210 NA
ATOM      2  C   UNL     1      35.023 -20.166 -19.906  0.00  0.00    +0.073 C 
ATOM      3  C   UNL     1      35.522 -21.215 -19.143  0.00  0.00    +0.011 C 
ATOM      4  C   UNL     1      33.647 -20.039 -20.015  0.00  0.00    +0.107 C 
ATOM      5  C   UNL     1      34.642 -22.094 -18.520  0.00  0.00    +0.058 C 
ATOM      6  C   UNL     1      33.284 -21.882 -18.690  0.00  0.00    +0.225 C 
ENDROOT
BRANCH   2  16
ATOM      7  S   UNL     1      34.364 -17.188 -24.052  0.00  0.00    -0.007 S 
ATOM      8  O   UNL     1      33.420 -16.087 -24.042  0.00  0.00    -0.173 OA
ATOM      9  O   UNL     1      34.902 -17.694 -25.300  0.00  0.00    -0.173 OA
ATOM     10  O   UNL     1      36.797 -18.714 -19.872  0.00  0.00    -0.270 OA
ATOM     11  N   UNL     1      35.722 -18.969 -21.935  0.00  0.00    -0.272 N 
ATOM     12  C   UNL     1      35.732 -16.747 -22.993  0.00  0.00    +0.172 C 
ATOM     13  C   UNL     1      33.627 -18.552 -23.167  0.00  0.00    +0.172 C 
ATOM     14  C   UNL     1      36.553 -17.970 -22.612  0.00  0.00    +0.119 C 
ATOM     15  C   UNL     1      34.674 -19.580 -22.767  0.00  0.00    +0.119 C 
ATOM     16  C   UNL     1      35.925 -19.221 -20.576  0.00  0.00    +0.251 C 
ENDBRANCH   2  16
BRANCH   6  17
ATOM     17  O   UNL     1      32.398 -22.735 -18.087  0.00  0.00    -0.455 OA
BRANCH  17  18
ATOM     18  C   UNL     1      32.947 -23.732 -17.234  0.00  0.00    +0.238 C 
BRANCH  18  21
ATOM     19  O   UNL     1      31.485 -22.856 -13.963  0.00  0.00    -0.358 OA
ATOM     20  N   UNL     1      32.811 -23.011 -13.577  0.00  0.00    -0.078 NA
ATOM     21  C   UNL     1      32.607 -23.402 -15.811  0.00  0.00    +0.075 A 
ATOM     22  C   UNL     1      33.462 -23.336 -14.697  0.00  0.00    +0.122 A 
ATOM     23  C   UNL     1      31.377 -23.091 -15.295  0.00  0.00    +0.154 A 
ATOM     24  C   UNL     1      30.031 -22.969 -15.872  0.00  0.00    +0.075 C 
BRANCH  22  26
ATOM     25  F   UNL     1      38.951 -24.264 -14.589  0.00  0.00    -0.204 F 
ATOM     26  C   UNL     1      34.880 -23.576 -14.669  0.00  0.00    +0.021 C 
ATOM     27  C   UNL     1      35.769 -22.542 -14.963  0.00  0.00    +0.004 C 
ATOM     28  C   UNL     1      35.369 -24.843 -14.348  0.00  0.00    +0.004 C 
ATOM     29  C   UNL     1      37.144 -22.774 -14.935  0.00  0.00    +0.030 C 
ATOM     30  C   UNL     1      36.744 -25.075 -14.321  0.00  0.00    +0.030 C 
ATOM     31  C   UNL     1      37.631 -24.041 -14.615  0.00  0.00    +0.140 C 
ENDBRANCH  22  26
ENDBRANCH  18  21
ENDBRANCH  17  18
ENDBRANCH   6  17
TORSDOF 5
ENDMDL
MODEL 9
REMARK VINA RESULT:      -9.4      2.997      4.171
REMARK  Name = 57336276
REMARK  5 active torsions:
REMARK  status: ('A' for Active; 'I' for Inactive)
REMARK    1  A    between atoms: C_2  and  C_16
REMARK    2  A    between atoms: C_6  and  O_17
REMARK    3  A    between atoms: O_17  and  C_18
REMARK    4  A    between atoms: C_18  and  C_21
REMARK    5  A    between atoms: C_22  and  C_26
REMARK                            x       y       z     vdW  Elec       q    Type
REMARK                         _______ _______ _______ _____ _____    ______ ____
ROOT
ATOM      1  N   UNL     1      35.674 -23.267 -13.034  0.00  0.00    -0.210 NA
ATOM      2  C   UNL     1      37.318 -24.707 -14.068  0.00  0.00    +0.073 C 
ATOM      3  C   UNL     1      36.302 -25.465 -14.641  0.00  0.00    +0.011 C 
ATOM      4  C   UNL     1      36.954 -23.627 -13.279  0.00  0.00    +0.107 C 
ATOM      5  C   UNL     1      34.974 -25.125 -14.412  0.00  0.00    +0.058 C 
ATOM      6  C   UNL     1      34.716 -24.026 -13.608  0.00  0.00    +0.225 C 
ENDROOT
BRANCH   2  16
ATOM      7  S   UNL     1      39.644 -29.195 -15.034  0.00  0.00    -0.007 S 
ATOM      8  O   UNL     1      39.409 -29.910 -16.273  0.00  0.00    -0.173 OA
ATOM      9  O   UNL     1      40.264 -29.856 -13.901  0.00  0.00    -0.173 OA
ATOM     10  O   UNL     1      39.435 -24.137 -14.737  0.00  0.00    -0.270 OA
ATOM     11  N   UNL     1      39.154 -26.337 -13.991  0.00  0.00    -0.272 N 
ATOM     12  C   UNL     1      40.595 -27.733 -15.416  0.00  0.00    +0.172 C 
ATOM     13  C   UNL     1      38.089 -28.503 -14.496  0.00  0.00    +0.172 C 
ATOM     14  C   UNL     1      40.538 -26.724 -14.279  0.00  0.00    +0.119 C 
ATOM     15  C   UNL     1      38.302 -27.411 -13.458  0.00  0.00    +0.119 C 
ATOM     16  C   UNL     1      38.729 -25.041 -14.291  0.00  0.00    +0.251 C 
ENDBRANCH   2  16
BRANCH   6  17
ATOM     17  O   UNL     1      33.414 -23.671 -13.367  0.00  0.00    -0.455 OA
BRANCH  17  18
ATOM     18  C   UNL     1      32.903 -22.571 -14.110  0.00  0.00    +0.238 C 
BRANCH  18  21
ATOM     19  O   UNL     1      29.922 -23.957 -15.783  0.00  0.00    -0.358 OA
ATOM     20  N   UNL     1      30.624 -23.529 -16.903  0.00  0.00    -0.078 NA
ATOM     21  C   UNL     1      31.814 -23.057 -15.020  0.00  0.00    +0.075 A 
ATOM     22  C   UNL     1      31.751 -22.995 -16.423  0.00  0.00    +0.122 A 
ATOM     23  C   UNL     1      30.641 -23.671 -14.668  0.00  0.00    +0.154 A 
ATOM     24  C   UNL     1      30.039 -24.059 -13.385  0.00  0.00    +0.075 C 
BRANCH  22  26
ATOM     25  F   UNL     1      35.546 -20.854 -19.888  0.00  0.00    -0.204 F 
ATOM     26  C   UNL     1      32.731 -22.442 -17.318  0.00  0.00    +0.021 C 
ATOM     27  C   UNL     1      34.086 -22.708 -17.120  0.00  0.00    +0.004 C 
ATOM     28  C   UNL     1      32.328 -21.639 -18.386  0.00  0.00    +0.004 C 
ATOM     29  C   UNL     1      35.037 -22.172 -17.988  0.00  0.00    +0.030 C 
ATOM     30  C   UNL     1      33.279 -21.103 -19.254  0.00  0.00    +0.030 C 
ATOM     31  C   UNL     1      34.633 -21.369 -19.055  0.00  0.00    +0.140 C 
ENDBRANCH  22  26
ENDBRANCH  18  21
ENDBRANCH  17  18
ENDBRANCH   6  17
TORSDOF 5
ENDMDL
