MODEL 1
REMARK VINA RESULT:     -10.9      0.000      0.000
REMARK  Name = 12087505
REMARK  3 active torsions:
REMARK  status: ('A' for Active; 'I' for Inactive)
REMARK    1  A    between atoms: C_1  and  S_18
REMARK    2  A    between atoms: C_4  and  N_9
REMARK    3  A    between atoms: S_18  and  N_21
REMARK                            x       y       z     vdW  Elec       q    Type
REMARK                         _______ _______ _______ _____ _____    ______ ____
ROOT
ATOM      1  C   UNL     1      34.857 -19.631 -21.361  0.00  0.00    +0.123 C 
ATOM      2  C   UNL     1      35.586 -20.156 -20.307  0.00  0.00    +0.035 C 
ATOM      3  C   UNL     1      33.476 -19.719 -21.399  0.00  0.00    +0.020 C 
ATOM      4  C   UNL     1      34.914 -20.787 -19.260  0.00  0.00    +0.053 C 
ATOM      5  C   UNL     1      32.803 -20.350 -20.352  0.00  0.00    +0.003 C 
ATOM      6  C   UNL     1      33.523 -20.883 -19.282  0.00  0.00    +0.015 C 
ENDROOT
BRANCH   4   9
ATOM      7  S   UNL     1      37.690 -23.535 -14.374  0.00  0.00    -0.051 S 
ATOM      8  O   UNL     1      34.196 -22.970 -17.356  0.00  0.00    -0.252 OA
ATOM      9  N   UNL     1      35.633 -21.321 -18.190  0.00  0.00    -0.268 N 
ATOM     10  N   UNL     1      36.286 -22.580 -16.370  0.00  0.00    -0.248 N 
ATOM     11  N   UNL     1      35.339 -24.363 -15.057  0.00  0.00    -0.222 NA
ATOM     12  C   UNL     1      35.261 -22.361 -17.303  0.00  0.00    +0.310 C 
ATOM     13  C   UNL     1      36.285 -23.521 -15.338  0.00  0.00    +0.167 C 
ATOM     14  C   UNL     1      36.990 -24.804 -13.458  0.00  0.00    +0.059 C 
ATOM     15  C   UNL     1      35.744 -25.109 -13.967  0.00  0.00    +0.108 C 
ATOM     16  H   UNL     1      36.518 -20.919 -18.029  0.00  0.00    +0.156 HD
ATOM     17  H   UNL     1      37.086 -22.011 -16.451  0.00  0.00    +0.158 HD
ENDBRANCH   4   9
BRANCH   1  18
ATOM     18  S   UNL     1      35.708 -18.835 -22.688  0.00  0.00    +0.063 S 
ATOM     19  O   UNL     1      37.086 -18.652 -22.285  0.00  0.00    -0.153 OA
ATOM     20  O   UNL     1      35.375 -19.530 -23.913  0.00  0.00    -0.153 OA
BRANCH  18  21
ATOM     21  N   UNL     1      34.918 -17.315 -22.678  0.00  0.00    -0.152 NA
ATOM     22  N   UNL     1      34.161 -14.585 -22.811  0.00  0.00    -0.290 N 
ATOM     23  C   UNL     1      35.369 -16.366 -21.621  0.00  0.00    +0.117 C 
ATOM     24  C   UNL     1      34.820 -16.635 -24.000  0.00  0.00    +0.117 C 
ATOM     25  C   UNL     1      34.368 -15.222 -21.503  0.00  0.00    +0.111 C 
ATOM     26  C   UNL     1      33.815 -15.490 -23.914  0.00  0.00    +0.111 C 
ATOM     27  N   UNL     1      32.897 -12.810 -21.814  0.00  0.00    -0.229 NA
ATOM     28  C   UNL     1      33.697 -13.265 -22.827  0.00  0.00    +0.132 C 
ATOM     29  C   UNL     1      34.071 -12.438 -23.894  0.00  0.00    +0.034 C 
ATOM     30  C   UNL     1      33.618 -11.124 -23.925  0.00  0.00    +0.004 C 
ATOM     31  C   UNL     1      32.477 -11.526 -21.877  0.00  0.00    +0.100 C 
ATOM     32  C   UNL     1      32.806 -10.651 -22.901  0.00  0.00    +0.021 C 
ENDBRANCH  18  21
ENDBRANCH   1  18
TORSDOF 3
ENDMDL
MODEL 2
REMARK VINA RESULT:      -9.9      2.253     10.958
REMARK  Name = 12087505
REMARK  3 active torsions:
REMARK  status: ('A' for Active; 'I' for Inactive)
REMARK    1  A    between atoms: C_1  and  S_18
REMARK    2  A    between atoms: C_4  and  N_9
REMARK    3  A    between atoms: S_18  and  N_21
REMARK                            x       y       z     vdW  Elec       q    Type
REMARK                         _______ _______ _______ _____ _____    ______ ____
ROOT
ATOM      1  C   UNL     1      34.931 -21.085 -19.390  0.00  0.00    +0.123 C 
ATOM      2  C   UNL     1      34.528 -20.133 -20.312  0.00  0.00    +0.035 C 
ATOM      3  C   UNL     1      36.257 -21.209 -19.013  0.00  0.00    +0.020 C 
ATOM      4  C   UNL     1      35.480 -19.281 -20.873  0.00  0.00    +0.053 C 
ATOM      5  C   UNL     1      37.209 -20.356 -19.573  0.00  0.00    +0.003 C 
ATOM      6  C   UNL     1      36.819 -19.392 -20.503  0.00  0.00    +0.015 C 
ENDROOT
BRANCH   4   9
ATOM      7  S   UNL     1      33.790 -14.564 -24.619  0.00  0.00    -0.051 S 
ATOM      8  O   UNL     1      35.141 -16.333 -20.560  0.00  0.00    -0.252 OA
ATOM      9  N   UNL     1      35.090 -18.316 -21.803  0.00  0.00    -0.268 N 
ATOM     10  N   UNL     1      34.528 -16.324 -22.823  0.00  0.00    -0.248 N 
ATOM     11  N   UNL     1      34.375 -14.013 -22.161  0.00  0.00    -0.222 NA
ATOM     12  C   UNL     1      34.939 -16.919 -21.620  0.00  0.00    +0.310 C 
ATOM     13  C   UNL     1      34.275 -14.967 -23.035  0.00  0.00    +0.167 C 
ATOM     14  C   UNL     1      33.690 -12.926 -24.118  0.00  0.00    +0.059 C 
ATOM     15  C   UNL     1      34.036 -12.828 -22.786  0.00  0.00    +0.108 C 
ATOM     16  H   UNL     1      34.893 -18.651 -22.708  0.00  0.00    +0.156 HD
ATOM     17  H   UNL     1      34.406 -16.924 -23.594  0.00  0.00    +0.158 HD
ENDBRANCH   4   9
BRANCH   1  18
ATOM     18  S   UNL     1      33.727 -22.166 -18.682  0.00  0.00    +0.063 S 
ATOM     19  O   UNL     1      32.486 -21.431 -18.564  0.00  0.00    -0.153 OA
ATOM     20  O   UNL     1      33.784 -23.425 -19.394  0.00  0.00    -0.153 OA
BRANCH  18  21
ATOM     21  N   UNL     1      34.400 -22.379 -17.122  0.00  0.00    -0.152 NA
ATOM     22  N   UNL     1      35.672 -23.281 -14.753  0.00  0.00    -0.290 N 
ATOM     23  C   UNL     1      33.752 -23.426 -16.283  0.00  0.00    +0.117 C 
ATOM     24  C   UNL     1      35.884 -22.500 -17.075  0.00  0.00    +0.117 C 
ATOM     25  C   UNL     1      34.205 -23.270 -14.834  0.00  0.00    +0.111 C 
ATOM     26  C   UNL     1      36.367 -22.337 -15.637  0.00  0.00    +0.111 C 
ATOM     27  N   UNL     1      35.598 -23.387 -12.360  0.00  0.00    -0.229 NA
ATOM     28  C   UNL     1      36.255 -23.644 -13.533  0.00  0.00    +0.132 C 
ATOM     29  C   UNL     1      37.509 -24.267 -13.551  0.00  0.00    +0.034 C 
ATOM     30  C   UNL     1      38.101 -24.632 -12.347  0.00  0.00    +0.004 C 
ATOM     31  C   UNL     1      36.204 -23.758 -11.210  0.00  0.00    +0.100 C 
ATOM     32  C   UNL     1      37.442 -24.378 -11.150  0.00  0.00    +0.021 C 
ENDBRANCH  18  21
ENDBRANCH   1  18
TORSDOF 3
ENDMDL
MODEL 3
REMARK VINA RESULT:      -9.5      5.040     12.399
REMARK  Name = 12087505
REMARK  3 active torsions:
REMARK  status: ('A' for Active; 'I' for Inactive)
REMARK    1  A    between atoms: C_1  and  S_18
REMARK    2  A    between atoms: C_4  and  N_9
REMARK    3  A    between atoms: S_18  and  N_21
REMARK                            x       y       z     vdW  Elec       q    Type
REMARK                         _______ _______ _______ _____ _____    ______ ____
ROOT
ATOM      1  C   UNL     1      33.715 -24.278 -13.231  0.00  0.00    +0.123 C 
ATOM      2  C   UNL     1      33.661 -23.534 -14.399  0.00  0.00    +0.035 C 
ATOM      3  C   UNL     1      32.634 -25.030 -12.805  0.00  0.00    +0.020 C 
ATOM      4  C   UNL     1      32.493 -23.543 -15.161  0.00  0.00    +0.053 C 
ATOM      5  C   UNL     1      31.465 -25.041 -13.567  0.00  0.00    +0.003 C 
ATOM      6  C   UNL     1      31.395 -24.297 -14.745  0.00  0.00    +0.015 C 
ENDROOT
BRANCH   4   9
ATOM      7  S   UNL     1      32.755 -20.246 -20.471  0.00  0.00    -0.051 S 
ATOM      8  O   UNL     1      34.667 -22.602 -16.974  0.00  0.00    -0.252 OA
ATOM      9  N   UNL     1      32.422 -22.800 -16.340  0.00  0.00    -0.268 N 
ATOM     10  N   UNL     1      32.959 -21.645 -18.264  0.00  0.00    -0.248 N 
ATOM     11  N   UNL     1      34.979 -21.081 -19.449  0.00  0.00    -0.222 NA
ATOM     12  C   UNL     1      33.479 -22.369 -17.180  0.00  0.00    +0.310 C 
ATOM     13  C   UNL     1      33.690 -21.060 -19.300  0.00  0.00    +0.167 C 
ATOM     14  C   UNL     1      34.210 -19.861 -21.293  0.00  0.00    +0.059 C 
ATOM     15  C   UNL     1      35.284 -20.387 -20.604  0.00  0.00    +0.108 C 
ATOM     16  H   UNL     1      31.517 -22.540 -16.626  0.00  0.00    +0.156 HD
ATOM     17  H   UNL     1      31.981 -21.538 -18.295  0.00  0.00    +0.158 HD
ENDBRANCH   4   9
BRANCH   1  18
ATOM     18  S   UNL     1      35.193 -24.264 -12.265  0.00  0.00    +0.063 S 
ATOM     19  O   UNL     1      35.854 -22.996 -12.486  0.00  0.00    -0.153 OA
ATOM     20  O   UNL     1      34.856 -24.708 -10.930  0.00  0.00    -0.153 OA
BRANCH  18  21
ATOM     21  N   UNL     1      36.076 -25.499 -13.056  0.00  0.00    -0.152 NA
ATOM     22  N   UNL     1      37.911 -27.087 -14.524  0.00  0.00    -0.290 N 
ATOM     23  C   UNL     1      36.119 -25.403 -14.543  0.00  0.00    +0.117 C 
ATOM     24  C   UNL     1      37.430 -25.775 -12.500  0.00  0.00    +0.117 C 
ATOM     25  C   UNL     1      36.621 -26.722 -15.124  0.00  0.00    +0.111 C 
ATOM     26  C   UNL     1      37.953 -27.097 -13.057  0.00  0.00    +0.111 C 
ATOM     27  N   UNL     1      38.199 -28.879 -16.089  0.00  0.00    -0.229 NA
ATOM     28  C   UNL     1      38.745 -27.950 -15.246  0.00  0.00    +0.132 C 
ATOM     29  C   UNL     1      40.131 -27.832 -15.080  0.00  0.00    +0.034 C 
ATOM     30  C   UNL     1      40.972 -28.683 -15.790  0.00  0.00    +0.004 C 
ATOM     31  C   UNL     1      39.048 -29.687 -16.763  0.00  0.00    +0.100 C 
ATOM     32  C   UNL     1      40.429 -29.630 -16.650  0.00  0.00    +0.021 C 
ENDBRANCH  18  21
ENDBRANCH   1  18
TORSDOF 3
ENDMDL
MODEL 4
REMARK VINA RESULT:      -9.4      1.891      2.335
REMARK  Name = 12087505
REMARK  3 active torsions:
REMARK  status: ('A' for Active; 'I' for Inactive)
REMARK    1  A    between atoms: C_1  and  S_18
REMARK    2  A    between atoms: C_4  and  N_9
REMARK    3  A    between atoms: S_18  and  N_21
REMARK                            x       y       z     vdW  Elec       q    Type
REMARK                         _______ _______ _______ _____ _____    ______ ____
ROOT
ATOM      1  C   UNL     1      34.976 -19.510 -21.119  0.00  0.00    +0.123 C 
ATOM      2  C   UNL     1      35.129 -20.241 -19.953  0.00  0.00    +0.035 C 
ATOM      3  C   UNL     1      33.757 -19.442 -21.773  0.00  0.00    +0.020 C 
ATOM      4  C   UNL     1      34.031 -20.921 -19.424  0.00  0.00    +0.053 C 
ATOM      5  C   UNL     1      32.659 -20.121 -21.244  0.00  0.00    +0.003 C 
ATOM      6  C   UNL     1      32.797 -20.860 -20.069  0.00  0.00    +0.015 C 
ENDROOT
BRANCH   4   9
ATOM      7  S   UNL     1      34.070 -24.274 -14.143  0.00  0.00    -0.051 S 
ATOM      8  O   UNL     1      31.955 -22.156 -17.674  0.00  0.00    -0.252 OA
ATOM      9  N   UNL     1      34.169 -21.660 -18.249  0.00  0.00    -0.268 N 
ATOM     10  N   UNL     1      33.740 -22.894 -16.346  0.00  0.00    -0.248 N 
ATOM     11  N   UNL     1      31.783 -23.727 -15.217  0.00  0.00    -0.222 NA
ATOM     12  C   UNL     1      33.157 -22.234 -17.439  0.00  0.00    +0.310 C 
ATOM     13  C   UNL     1      33.067 -23.578 -15.332  0.00  0.00    +0.167 C 
ATOM     14  C   UNL     1      32.658 -24.855 -13.362  0.00  0.00    +0.059 C 
ATOM     15  C   UNL     1      31.542 -24.467 -14.075  0.00  0.00    +0.108 C 
ATOM     16  H   UNL     1      35.093 -21.800 -17.939  0.00  0.00    +0.156 HD
ATOM     17  H   UNL     1      34.723 -22.871 -16.289  0.00  0.00    +0.158 HD
ENDBRANCH   4   9
BRANCH   1  18
ATOM     18  S   UNL     1      36.366 -18.652 -21.790  0.00  0.00    +0.063 S 
ATOM     19  O   UNL     1      37.437 -18.717 -20.820  0.00  0.00    -0.153 OA
ATOM     20  O   UNL     1      36.559 -19.111 -23.149  0.00  0.00    -0.153 OA
BRANCH  18  21
ATOM     21  N   UNL     1      35.740 -17.057 -21.825  0.00  0.00    -0.152 NA
ATOM     22  N   UNL     1      34.164 -14.700 -21.868  0.00  0.00    -0.290 N 
ATOM     23  C   UNL     1      34.975 -16.698 -23.053  0.00  0.00    +0.117 C 
ATOM     24  C   UNL     1      35.015 -16.627 -20.598  0.00  0.00    +0.117 C 
ATOM     25  C   UNL     1      34.785 -15.185 -23.108  0.00  0.00    +0.111 C 
ATOM     26  C   UNL     1      34.821 -15.113 -20.622  0.00  0.00    +0.111 C 
ATOM     27  N   UNL     1      33.860 -12.515 -22.803  0.00  0.00    -0.229 NA
ATOM     28  C   UNL     1      33.474 -13.483 -21.917  0.00  0.00    +0.132 C 
ATOM     29  C   UNL     1      32.395 -13.292 -21.045  0.00  0.00    +0.034 C 
ATOM     30  C   UNL     1      31.700 -12.088 -21.081  0.00  0.00    +0.004 C 
ATOM     31  C   UNL     1      33.160 -11.358 -22.811  0.00  0.00    +0.100 C 
ATOM     32  C   UNL     1      32.083 -11.098 -21.978  0.00  0.00    +0.021 C 
ENDBRANCH  18  21
ENDBRANCH   1  18
TORSDOF 3
ENDMDL
MODEL 5
REMARK VINA RESULT:      -9.4      5.626     10.048
REMARK  Name = 12087505
REMARK  3 active torsions:
REMARK  status: ('A' for Active; 'I' for Inactive)
REMARK    1  A    between atoms: C_1  and  S_18
REMARK    2  A    between atoms: C_4  and  N_9
REMARK    3  A    between atoms: S_18  and  N_21
REMARK                            x       y       z     vdW  Elec       q    Type
REMARK                         _______ _______ _______ _____ _____    ______ ____
ROOT
ATOM      1  C   UNL     1      32.855 -10.275 -22.544  0.00  0.00    +0.123 C 
ATOM      2  C   UNL     1      32.871 -11.640 -22.780  0.00  0.00    +0.035 C 
ATOM      3  C   UNL     1      33.678  -9.412 -23.247  0.00  0.00    +0.020 C 
ATOM      4  C   UNL     1      33.734 -12.156 -23.747  0.00  0.00    +0.053 C 
ATOM      5  C   UNL     1      34.542  -9.927 -24.215  0.00  0.00    +0.003 C 
ATOM      6  C   UNL     1      34.569 -11.300 -24.464  0.00  0.00    +0.015 C 
ENDROOT
BRANCH   4   9
ATOM      7  S   UNL     1      34.154 -18.366 -24.376  0.00  0.00    -0.051 S 
ATOM      8  O   UNL     1      34.946 -14.377 -22.165  0.00  0.00    -0.252 OA
ATOM      9  N   UNL     1      33.761 -13.528 -23.997  0.00  0.00    -0.268 N 
ATOM     10  N   UNL     1      34.140 -15.800 -23.845  0.00  0.00    -0.248 N 
ATOM     11  N   UNL     1      35.240 -17.281 -22.295  0.00  0.00    -0.222 NA
ATOM     12  C   UNL     1      34.348 -14.559 -23.221  0.00  0.00    +0.310 C 
ATOM     13  C   UNL     1      34.571 -17.045 -23.383  0.00  0.00    +0.167 C 
ATOM     14  C   UNL     1      34.945 -19.395 -23.255  0.00  0.00    +0.059 C 
ATOM     15  C   UNL     1      35.458 -18.642 -22.218  0.00  0.00    +0.108 C 
ATOM     16  H   UNL     1      33.313 -13.820 -24.824  0.00  0.00    +0.156 HD
ATOM     17  H   UNL     1      33.641 -15.790 -24.693  0.00  0.00    +0.158 HD
ENDBRANCH   4   9
BRANCH   1  18
ATOM     18  S   UNL     1      31.764  -9.622 -21.319  0.00  0.00    +0.063 S 
ATOM     19  O   UNL     1      30.532 -10.379 -21.374  0.00  0.00    -0.153 OA
ATOM     20  O   UNL     1      32.507  -9.493 -20.084  0.00  0.00    -0.153 OA
BRANCH  18  21
ATOM     21  N   UNL     1      31.489  -8.061 -21.968  0.00  0.00    -0.152 NA
ATOM     22  N   UNL     1      31.596  -5.544 -23.271  0.00  0.00    -0.290 N 
ATOM     23  C   UNL     1      32.359  -6.980 -21.425  0.00  0.00    +0.117 C 
ATOM     24  C   UNL     1      31.413  -7.990 -23.454  0.00  0.00    +0.117 C 
ATOM     25  C   UNL     1      31.786  -5.621 -21.816  0.00  0.00    +0.111 C 
ATOM     26  C   UNL     1      30.832  -6.643 -23.874  0.00  0.00    +0.111 C 
ATOM     27  N   UNL     1      31.098  -3.204 -23.142  0.00  0.00    -0.229 NA
ATOM     28  C   UNL     1      31.563  -4.274 -23.857  0.00  0.00    +0.132 C 
ATOM     29  C   UNL     1      32.013  -4.136 -25.177  0.00  0.00    +0.034 C 
ATOM     30  C   UNL     1      31.985  -2.880 -25.773  0.00  0.00    +0.004 C 
ATOM     31  C   UNL     1      31.088  -1.999 -23.755  0.00  0.00    +0.100 C 
ATOM     32  C   UNL     1      31.517  -1.786 -25.056  0.00  0.00    +0.021 C 
ENDBRANCH  18  21
ENDBRANCH   1  18
TORSDOF 3
ENDMDL
MODEL 6
REMARK VINA RESULT:      -9.1      3.922     12.431
REMARK  Name = 12087505
REMARK  3 active torsions:
REMARK  status: ('A' for Active; 'I' for Inactive)
REMARK    1  A    between atoms: C_1  and  S_18
REMARK    2  A    between atoms: C_4  and  N_9
REMARK    3  A    between atoms: S_18  and  N_21
REMARK                            x       y       z     vdW  Elec       q    Type
REMARK                         _______ _______ _______ _____ _____    ______ ____
ROOT
ATOM      1  C   UNL     1      34.978 -23.460 -14.801  0.00  0.00    +0.123 C 
ATOM      2  C   UNL     1      35.532 -22.656 -15.783  0.00  0.00    +0.035 C 
ATOM      3  C   UNL     1      33.692 -23.959 -14.918  0.00  0.00    +0.020 C 
ATOM      4  C   UNL     1      34.779 -22.343 -16.915  0.00  0.00    +0.053 C 
ATOM      5  C   UNL     1      32.938 -23.648 -16.050  0.00  0.00    +0.003 C 
ATOM      6  C   UNL     1      33.483 -22.840 -17.049  0.00  0.00    +0.015 C 
ENDROOT
BRANCH   4   9
ATOM      7  S   UNL     1      36.703 -18.746 -21.658  0.00  0.00    -0.051 S 
ATOM      8  O   UNL     1      33.537 -21.259 -19.402  0.00  0.00    -0.252 OA
ATOM      9  N   UNL     1      35.323 -21.535 -17.914  0.00  0.00    -0.268 N 
ATOM     10  N   UNL     1      35.618 -20.263 -19.816  0.00  0.00    -0.248 N 
ATOM     11  N   UNL     1      34.261 -19.595 -21.692  0.00  0.00    -0.222 NA
ATOM     12  C   UNL     1      34.702 -21.037 -19.087  0.00  0.00    +0.310 C 
ATOM     13  C   UNL     1      35.375 -19.608 -21.025  0.00  0.00    +0.167 C 
ATOM     14  C   UNL     1      35.712 -18.287 -22.980  0.00  0.00    +0.059 C 
ATOM     15  C   UNL     1      34.453 -18.830 -22.826  0.00  0.00    +0.108 C 
ATOM     16  H   UNL     1      36.265 -21.278 -17.788  0.00  0.00    +0.156 HD
ATOM     17  H   UNL     1      36.522 -20.173 -19.437  0.00  0.00    +0.158 HD
ENDBRANCH   4   9
BRANCH   1  18
ATOM     18  S   UNL     1      35.931 -23.853 -13.367  0.00  0.00    +0.063 S 
ATOM     19  O   UNL     1      36.694 -22.677 -13.006  0.00  0.00    -0.153 OA
ATOM     20  O   UNL     1      35.054 -24.496 -12.412  0.00  0.00    -0.153 OA
BRANCH  18  21
ATOM     21  N   UNL     1      36.991 -25.025 -14.027  0.00  0.00    -0.152 NA
ATOM     22  N   UNL     1      38.996 -26.958 -14.563  0.00  0.00    -0.290 N 
ATOM     23  C   UNL     1      38.416 -24.604 -14.146  0.00  0.00    +0.117 C 
ATOM     24  C   UNL     1      36.884 -26.389 -13.438  0.00  0.00    +0.117 C 
ATOM     25  C   UNL     1      39.161 -25.582 -15.050  0.00  0.00    +0.111 C 
ATOM     26  C   UNL     1      37.613 -27.391 -14.329  0.00  0.00    +0.111 C 
ATOM     27  N   UNL     1      40.626 -27.769 -16.121  0.00  0.00    -0.229 NA
ATOM     28  C   UNL     1      39.964 -27.900 -14.931  0.00  0.00    +0.132 C 
ATOM     29  C   UNL     1      40.227 -28.963 -14.058  0.00  0.00    +0.034 C 
ATOM     30  C   UNL     1      41.185 -29.907 -14.410  0.00  0.00    +0.004 C 
ATOM     31  C   UNL     1      41.552 -28.705 -16.429  0.00  0.00    +0.100 C 
ATOM     32  C   UNL     1      41.865 -29.783 -15.616  0.00  0.00    +0.021 C 
ENDBRANCH  18  21
ENDBRANCH   1  18
TORSDOF 3
ENDMDL
MODEL 7
REMARK VINA RESULT:      -9.0      4.781     10.633
REMARK  Name = 12087505
REMARK  3 active torsions:
REMARK  status: ('A' for Active; 'I' for Inactive)
REMARK    1  A    between atoms: C_1  and  S_18
REMARK    2  A    between atoms: C_4  and  N_9
REMARK    3  A    between atoms: S_18  and  N_21
REMARK                            x       y       z     vdW  Elec       q    Type
REMARK                         _______ _______ _______ _____ _____    ______ ____
ROOT
ATOM      1  C   UNL     1      37.309 -24.004 -13.347  0.00  0.00    +0.123 C 
ATOM      2  C   UNL     1      37.088 -23.113 -14.384  0.00  0.00    +0.035 C 
ATOM      3  C   UNL     1      38.390 -24.869 -13.357  0.00  0.00    +0.020 C 
ATOM      4  C   UNL     1      37.973 -23.086 -15.462  0.00  0.00    +0.053 C 
ATOM      5  C   UNL     1      39.277 -24.842 -14.434  0.00  0.00    +0.003 C 
ATOM      6  C   UNL     1      39.068 -23.950 -15.486  0.00  0.00    +0.015 C 
ENDROOT
BRANCH   4   9
ATOM      7  S   UNL     1      36.505 -19.304 -20.224  0.00  0.00    -0.051 S 
ATOM      8  O   UNL     1      35.564 -22.649 -17.165  0.00  0.00    -0.252 OA
ATOM      9  N   UNL     1      37.765 -22.194 -16.514  0.00  0.00    -0.268 N 
ATOM     10  N   UNL     1      36.829 -21.005 -18.256  0.00  0.00    -0.248 N 
ATOM     11  N   UNL     1      34.706 -20.964 -19.393  0.00  0.00    -0.222 NA
ATOM     12  C   UNL     1      36.603 -22.012 -17.305  0.00  0.00    +0.310 C 
ATOM     13  C   UNL     1      35.921 -20.545 -19.212  0.00  0.00    +0.167 C 
ATOM     14  C   UNL     1      34.983 -19.299 -21.014  0.00  0.00    +0.059 C 
ATOM     15  C   UNL     1      34.159 -20.244 -20.437  0.00  0.00    +0.108 C 
ATOM     16  H   UNL     1      38.528 -21.613 -16.738  0.00  0.00    +0.156 HD
ATOM     17  H   UNL     1      37.717 -20.580 -18.248  0.00  0.00    +0.158 HD
ENDBRANCH   4   9
BRANCH   1  18
ATOM     18  S   UNL     1      36.186 -24.041 -11.984  0.00  0.00    +0.063 S 
ATOM     19  O   UNL     1      36.161 -25.392 -11.467  0.00  0.00    -0.153 OA
ATOM     20  O   UNL     1      36.492 -22.917 -11.125  0.00  0.00    -0.153 OA
BRANCH  18  21
ATOM     21  N   UNL     1      34.715 -23.730 -12.804  0.00  0.00    -0.152 NA
ATOM     22  N   UNL     1      32.200 -23.819 -14.111  0.00  0.00    -0.290 N 
ATOM     23  C   UNL     1      34.608 -24.316 -14.170  0.00  0.00    +0.117 C 
ATOM     24  C   UNL     1      33.477 -23.983 -12.015  0.00  0.00    +0.117 C 
ATOM     25  C   UNL     1      33.429 -23.683 -14.904  0.00  0.00    +0.111 C 
ATOM     26  C   UNL     1      32.281 -23.351 -12.722  0.00  0.00    +0.111 C 
ATOM     27  N   UNL     1      30.864 -23.022 -15.934  0.00  0.00    -0.229 NA
ATOM     28  C   UNL     1      30.977 -23.764 -14.790  0.00  0.00    +0.132 C 
ATOM     29  C   UNL     1      29.891 -24.479 -14.269  0.00  0.00    +0.034 C 
ATOM     30  C   UNL     1      28.669 -24.433 -14.932  0.00  0.00    +0.004 C 
ATOM     31  C   UNL     1      29.662 -23.002 -16.552  0.00  0.00    +0.100 C 
ATOM     32  C   UNL     1      28.544 -23.684 -16.096  0.00  0.00    +0.021 C 
ENDBRANCH  18  21
ENDBRANCH   1  18
TORSDOF 3
ENDMDL
MODEL 8
REMARK VINA RESULT:      -8.9      2.426      3.130
REMARK  Name = 12087505
REMARK  3 active torsions:
REMARK  status: ('A' for Active; 'I' for Inactive)
REMARK    1  A    between atoms: C_1  and  S_18
REMARK    2  A    between atoms: C_4  and  N_9
REMARK    3  A    between atoms: S_18  and  N_21
REMARK                            x       y       z     vdW  Elec       q    Type
REMARK                         _______ _______ _______ _____ _____    ______ ____
ROOT
ATOM      1  C   UNL     1      35.372 -19.011 -22.336  0.00  0.00    +0.123 C 
ATOM      2  C   UNL     1      34.909 -19.851 -21.337  0.00  0.00    +0.035 C 
ATOM      3  C   UNL     1      36.617 -18.411 -22.255  0.00  0.00    +0.020 C 
ATOM      4  C   UNL     1      35.714 -20.098 -20.226  0.00  0.00    +0.053 C 
ATOM      5  C   UNL     1      37.424 -18.659 -21.144  0.00  0.00    +0.003 C 
ATOM      6  C   UNL     1      36.972 -19.503 -20.129  0.00  0.00    +0.015 C 
ENDROOT
BRANCH   4   9
ATOM      7  S   UNL     1      33.153 -23.723 -15.817  0.00  0.00    -0.051 S 
ATOM      8  O   UNL     1      32.938 -20.690 -19.307  0.00  0.00    -0.252 OA
ATOM      9  N   UNL     1      35.263 -20.943 -19.211  0.00  0.00    -0.268 N 
ATOM     10  N   UNL     1      33.932 -22.119 -17.738  0.00  0.00    -0.248 N 
ATOM     11  N   UNL     1      31.571 -22.320 -17.305  0.00  0.00    -0.222 NA
ATOM     12  C   UNL     1      33.932 -21.201 -18.800  0.00  0.00    +0.310 C 
ATOM     13  C   UNL     1      32.812 -22.616 -17.067  0.00  0.00    +0.167 C 
ATOM     14  C   UNL     1      31.466 -23.845 -15.533  0.00  0.00    +0.059 C 
ATOM     15  C   UNL     1      30.788 -23.031 -16.417  0.00  0.00    +0.108 C 
ATOM     16  H   UNL     1      35.964 -21.423 -18.713  0.00  0.00    +0.156 HD
ATOM     17  H   UNL     1      34.811 -22.445 -17.435  0.00  0.00    +0.158 HD
ENDBRANCH   4   9
BRANCH   1  18
ATOM     18  S   UNL     1      34.351 -18.695 -23.742  0.00  0.00    +0.063 S 
ATOM     19  O   UNL     1      35.060 -19.156 -24.917  0.00  0.00    -0.153 OA
ATOM     20  O   UNL     1      33.018 -19.169 -23.440  0.00  0.00    -0.153 OA
BRANCH  18  21
ATOM     21  N   UNL     1      34.349 -16.982 -23.728  0.00  0.00    -0.152 NA
ATOM     22  N   UNL     1      33.773 -14.214 -23.504  0.00  0.00    -0.290 N 
ATOM     23  C   UNL     1      33.418 -16.336 -24.697  0.00  0.00    +0.117 C 
ATOM     24  C   UNL     1      34.241 -16.352 -22.383  0.00  0.00    +0.117 C 
ATOM     25  C   UNL     1      33.765 -14.856 -24.826  0.00  0.00    +0.111 C 
ATOM     26  C   UNL     1      34.595 -14.871 -22.480  0.00  0.00    +0.111 C 
ATOM     27  N   UNL     1      33.982 -12.041 -24.493  0.00  0.00    -0.229 NA
ATOM     28  C   UNL     1      33.576 -12.829 -23.451  0.00  0.00    +0.132 C 
ATOM     29  C   UNL     1      32.962 -12.285 -22.315  0.00  0.00    +0.034 C 
ATOM     30  C   UNL     1      32.760 -10.911 -22.248  0.00  0.00    +0.004 C 
ATOM     31  C   UNL     1      33.768 -10.710 -24.392  0.00  0.00    +0.100 C 
ATOM     32  C   UNL     1      33.167 -10.102 -23.301  0.00  0.00    +0.021 C 
ENDBRANCH  18  21
ENDBRANCH   1  18
TORSDOF 3
ENDMDL
MODEL 9
REMARK VINA RESULT:      -8.8      1.743      2.535
REMARK  Name = 12087505
REMARK  3 active torsions:
REMARK  status: ('A' for Active; 'I' for Inactive)
REMARK    1  A    between atoms: C_1  and  S_18
REMARK    2  A    between atoms: C_4  and  N_9
REMARK    3  A    between atoms: S_18  and  N_21
REMARK                            x       y       z     vdW  Elec       q    Type
REMARK                         _______ _______ _______ _____ _____    ______ ____
ROOT
ATOM      1  C   UNL     1      35.293 -18.810 -22.470  0.00  0.00    +0.123 C 
ATOM      2  C   UNL     1      34.733 -19.598 -21.479  0.00  0.00    +0.035 C 
ATOM      3  C   UNL     1      36.587 -18.330 -22.365  0.00  0.00    +0.020 C 
ATOM      4  C   UNL     1      35.489 -19.916 -20.350  0.00  0.00    +0.053 C 
ATOM      5  C   UNL     1      37.345 -18.648 -21.237  0.00  0.00    +0.003 C 
ATOM      6  C   UNL     1      36.795 -19.442 -20.230  0.00  0.00    +0.015 C 
ENDROOT
BRANCH   4   9
ATOM      7  S   UNL     1      33.568 -23.572 -15.652  0.00  0.00    -0.051 S 
ATOM      8  O   UNL     1      36.823 -21.442 -18.160  0.00  0.00    -0.252 OA
ATOM      9  N   UNL     1      34.940 -20.710 -19.343  0.00  0.00    -0.268 N 
ATOM     10  N   UNL     1      34.665 -22.094 -17.517  0.00  0.00    -0.248 N 
ATOM     11  N   UNL     1      36.108 -23.171 -15.917  0.00  0.00    -0.222 NA
ATOM     12  C   UNL     1      35.605 -21.423 -18.315  0.00  0.00    +0.310 C 
ATOM     13  C   UNL     1      34.938 -22.899 -16.409  0.00  0.00    +0.167 C 
ATOM     14  C   UNL     1      34.620 -24.326 -14.527  0.00  0.00    +0.059 C 
ATOM     15  C   UNL     1      35.927 -23.999 -14.826  0.00  0.00    +0.108 C 
ATOM     16  H   UNL     1      33.958 -20.786 -19.348  0.00  0.00    +0.156 HD
ATOM     17  H   UNL     1      33.718 -21.986 -17.764  0.00  0.00    +0.158 HD
ENDBRANCH   4   9
BRANCH   1  18
ATOM     18  S   UNL     1      34.334 -18.405 -23.897  0.00  0.00    +0.063 S 
ATOM     19  O   UNL     1      35.091 -18.800 -25.065  0.00  0.00    -0.153 OA
ATOM     20  O   UNL     1      32.987 -18.888 -23.681  0.00  0.00    -0.153 OA
BRANCH  18  21
ATOM     21  N   UNL     1      34.338 -16.696 -23.781  0.00  0.00    -0.152 NA
ATOM     22  N   UNL     1      33.756 -13.941 -23.438  0.00  0.00    -0.290 N 
ATOM     23  C   UNL     1      33.488 -15.986 -24.779  0.00  0.00    +0.117 C 
ATOM     24  C   UNL     1      34.128 -16.146 -22.413  0.00  0.00    +0.117 C 
ATOM     25  C   UNL     1      33.850 -14.504 -24.792  0.00  0.00    +0.111 C 
ATOM     26  C   UNL     1      34.493 -14.664 -22.394  0.00  0.00    +0.111 C 
ATOM     27  N   UNL     1      34.050 -11.716 -24.277  0.00  0.00    -0.229 NA
ATOM     28  C   UNL     1      33.561 -12.560 -23.318  0.00  0.00    +0.132 C 
ATOM     29  C   UNL     1      32.863 -12.079 -22.203  0.00  0.00    +0.034 C 
ATOM     30  C   UNL     1      32.662 -10.710 -22.070  0.00  0.00    +0.004 C 
ATOM     31  C   UNL     1      33.835 -10.391 -24.114  0.00  0.00    +0.100 C 
ATOM     32  C   UNL     1      33.153  -9.843 -23.039  0.00  0.00    +0.021 C 
ENDBRANCH  18  21
ENDBRANCH   1  18
TORSDOF 3
ENDMDL
