MODEL 1
REMARK VINA RESULT:     -12.2      0.000      0.000
REMARK  Name = 51039095
REMARK  7 active torsions:
REMARK  status: ('A' for Active; 'I' for Inactive)
REMARK    1  A    between atoms: C_5  and  C_16
REMARK    2  A    between atoms: C_6  and  C_27
REMARK    3  A    between atoms: C_11  and  N_17
REMARK    4  A    between atoms: C_27  and  C_28
REMARK    5  A    between atoms: C_28  and  C_29
REMARK    6  A    between atoms: C_32  and  O_35
REMARK    7  A    between atoms: C_33  and  O_37
REMARK                            x       y       z     vdW  Elec       q    Type
REMARK                         _______ _______ _______ _____ _____    ______ ____
ROOT
ATOM      1  O   UNL     1      33.432 -13.719 -20.886  0.00  0.00    -0.270 OA
ATOM      2  N   UNL     1      34.011 -13.889 -23.154  0.00  0.00    -0.265 N 
ATOM      3  N   UNL     1      35.280 -16.994 -24.051  0.00  0.00    -0.239 N 
ATOM      4  N   UNL     1      34.932 -15.744 -24.403  0.00  0.00    -0.166 NA
ATOM      5  C   UNL     1      33.522 -13.223 -22.021  0.00  0.00    +0.251 C 
ATOM      6  C   UNL     1      35.072 -17.273 -22.731  0.00  0.00    +0.046 C 
ATOM      7  C   UNL     1      34.490 -15.218 -23.258  0.00  0.00    +0.153 C 
ATOM      8  C   UNL     1      34.553 -16.125 -22.183  0.00  0.00    +0.048 C 
ATOM      9  H   UNL     1      34.023 -13.364 -23.987  0.00  0.00    +0.157 HD
ATOM     10  H   UNL     1      35.649 -17.648 -24.687  0.00  0.00    +0.174 HD
ENDROOT
BRANCH   5  16
ATOM     11  C   UNL     1      32.368  -9.181 -22.603  0.00  0.00    +0.048 C 
ATOM     12  C   UNL     1      33.355  -9.747 -23.409  0.00  0.00    +0.015 C 
ATOM     13  C   UNL     1      31.758  -9.943 -21.606  0.00  0.00    +0.015 C 
ATOM     14  C   UNL     1      33.734 -11.076 -23.218  0.00  0.00    +0.006 C 
ATOM     15  C   UNL     1      32.138 -11.272 -21.415  0.00  0.00    +0.006 C 
ATOM     16  C   UNL     1      33.125 -11.838 -22.221  0.00  0.00    +0.054 C 
BRANCH  11  17
ATOM     17  N   UNL     1      31.986  -7.849 -22.794  0.00  0.00    -0.312 N 
ATOM     18  N   UNL     1      31.431  -5.075 -23.148  0.00  0.00    +0.389 N 
ATOM     19  C   UNL     1      30.772  -5.826 -22.074  0.00  0.00    -0.042 C 
ATOM     20  C   UNL     1      31.657  -5.934 -24.315  0.00  0.00    -0.042 C 
ATOM     21  C   UNL     1      31.633  -7.020 -21.636  0.00  0.00    +0.069 C 
ATOM     22  C   UNL     1      32.548  -7.129 -23.945  0.00  0.00    +0.069 C 
ATOM     23  C   UNL     1      32.302  -5.107 -25.426  0.00  0.00    -0.022 C 
ATOM     24  C   UNL     1      30.514  -4.890 -20.895  0.00  0.00    -0.022 C 
ATOM     25  H   UNL     1      32.328  -4.726 -22.810  0.00  0.00    -0.084 HD
ATOM     26  H   UNL     1      30.830  -4.299 -23.423  0.00  0.00    -0.084 HD
ENDBRANCH  11  17
ENDBRANCH   5  16
BRANCH   6  27
ATOM     27  C   UNL     1      35.387 -18.586 -22.148  0.00  0.00    +0.047 C 
BRANCH  27  28
ATOM     28  C   UNL     1      34.155 -19.481 -21.862  0.00  0.00    +0.033 C 
BRANCH  28  29
ATOM     29  C   UNL     1      34.297 -20.291 -20.596  0.00  0.00    -0.016 C 
ATOM     30  C   UNL     1      35.563 -20.541 -20.065  0.00  0.00    +0.033 C 
ATOM     31  C   UNL     1      33.162 -20.788 -19.956  0.00  0.00    +0.033 C 
ATOM     32  C   UNL     1      33.291 -21.535 -18.785  0.00  0.00    +0.141 C 
ATOM     33  C   UNL     1      35.693 -21.288 -18.894  0.00  0.00    +0.141 C 
ATOM     34  C   UNL     1      34.558 -21.786 -18.255  0.00  0.00    +0.074 C 
BRANCH  32  35
ATOM     35  O   UNL     1      32.184 -22.020 -18.160  0.00  0.00    -0.471 OA
ATOM     36  C   UNL     1      32.394 -22.799 -16.983  0.00  0.00    +0.252 C 
ENDBRANCH  32  35
BRANCH  33  37
ATOM     37  O   UNL     1      36.927 -21.531 -18.375  0.00  0.00    -0.471 OA
ATOM     38  C   UNL     1      37.017 -21.689 -16.960  0.00  0.00    +0.252 C 
ENDBRANCH  33  37
ENDBRANCH  28  29
ENDBRANCH  27  28
ENDBRANCH   6  27
TORSDOF 7
ENDMDL
MODEL 2
REMARK VINA RESULT:     -12.2      0.058      2.012
REMARK  Name = 51039095
REMARK  7 active torsions:
REMARK  status: ('A' for Active; 'I' for Inactive)
REMARK    1  A    between atoms: C_5  and  C_16
REMARK    2  A    between atoms: C_6  and  C_27
REMARK    3  A    between atoms: C_11  and  N_17
REMARK    4  A    between atoms: C_27  and  C_28
REMARK    5  A    between atoms: C_28  and  C_29
REMARK    6  A    between atoms: C_32  and  O_35
REMARK    7  A    between atoms: C_33  and  O_37
REMARK                            x       y       z     vdW  Elec       q    Type
REMARK                         _______ _______ _______ _____ _____    ______ ____
ROOT
ATOM      1  O   UNL     1      33.412 -13.671 -20.887  0.00  0.00    -0.270 OA
ATOM      2  N   UNL     1      33.978 -13.843 -23.157  0.00  0.00    -0.265 N 
ATOM      3  N   UNL     1      35.230 -16.953 -24.060  0.00  0.00    -0.239 N 
ATOM      4  N   UNL     1      34.886 -15.702 -24.410  0.00  0.00    -0.166 NA
ATOM      5  C   UNL     1      33.499 -13.175 -22.022  0.00  0.00    +0.251 C 
ATOM      6  C   UNL     1      35.027 -17.231 -22.739  0.00  0.00    +0.046 C 
ATOM      7  C   UNL     1      34.451 -15.174 -23.264  0.00  0.00    +0.153 C 
ATOM      8  C   UNL     1      34.516 -16.081 -22.188  0.00  0.00    +0.048 C 
ATOM      9  H   UNL     1      33.988 -13.319 -23.990  0.00  0.00    +0.157 HD
ATOM     10  H   UNL     1      35.593 -17.609 -24.697  0.00  0.00    +0.174 HD
ENDROOT
BRANCH   5  16
ATOM     11  C   UNL     1      32.349  -9.131 -22.602  0.00  0.00    +0.048 C 
ATOM     12  C   UNL     1      31.749  -9.890 -21.596  0.00  0.00    +0.015 C 
ATOM     13  C   UNL     1      33.328  -9.701 -23.416  0.00  0.00    +0.015 C 
ATOM     14  C   UNL     1      32.127 -11.218 -21.406  0.00  0.00    +0.006 C 
ATOM     15  C   UNL     1      33.706 -11.030 -23.225  0.00  0.00    +0.006 C 
ATOM     16  C   UNL     1      33.106 -11.789 -22.220  0.00  0.00    +0.054 C 
BRANCH  11  17
ATOM     17  N   UNL     1      31.971  -7.798 -22.794  0.00  0.00    -0.312 N 
ATOM     18  N   UNL     1      31.425  -5.023 -23.154  0.00  0.00    +0.389 N 
ATOM     19  C   UNL     1      30.782  -5.764 -22.064  0.00  0.00    -0.042 C 
ATOM     20  C   UNL     1      31.625  -5.891 -24.320  0.00  0.00    -0.042 C 
ATOM     21  C   UNL     1      31.645  -6.960 -21.634  0.00  0.00    +0.069 C 
ATOM     22  C   UNL     1      32.516  -7.088 -23.959  0.00  0.00    +0.069 C 
ATOM     23  C   UNL     1      32.253  -5.074 -25.448  0.00  0.00    -0.022 C 
ATOM     24  C   UNL     1      30.551  -4.819 -20.885  0.00  0.00    -0.022 C 
ATOM     25  H   UNL     1      32.330  -4.677 -22.835  0.00  0.00    -0.084 HD
ATOM     26  H   UNL     1      30.823  -4.245 -23.422  0.00  0.00    -0.084 HD
ENDBRANCH  11  17
ENDBRANCH   5  16
BRANCH   6  27
ATOM     27  C   UNL     1      35.340 -18.546 -22.157  0.00  0.00    +0.047 C 
BRANCH  27  28
ATOM     28  C   UNL     1      34.106 -19.435 -21.863  0.00  0.00    +0.033 C 
BRANCH  28  29
ATOM     29  C   UNL     1      34.264 -20.265 -20.611  0.00  0.00    -0.016 C 
ATOM     30  C   UNL     1      33.140 -20.796 -19.979  0.00  0.00    +0.033 C 
ATOM     31  C   UNL     1      35.535 -20.503 -20.089  0.00  0.00    +0.033 C 
ATOM     32  C   UNL     1      35.683 -21.270 -18.934  0.00  0.00    +0.141 C 
ATOM     33  C   UNL     1      33.287 -21.564 -18.824  0.00  0.00    +0.141 C 
ATOM     34  C   UNL     1      34.558 -21.801 -18.301  0.00  0.00    +0.074 C 
BRANCH  32  35
ATOM     35  O   UNL     1      36.923 -21.503 -18.424  0.00  0.00    -0.471 OA
ATOM     36  C   UNL     1      37.027 -21.630 -17.006  0.00  0.00    +0.252 C 
ENDBRANCH  32  35
BRANCH  33  37
ATOM     37  O   UNL     1      32.190 -22.082 -18.207  0.00  0.00    -0.471 OA
ATOM     38  C   UNL     1      32.399 -22.739 -16.957  0.00  0.00    +0.252 C 
ENDBRANCH  33  37
ENDBRANCH  28  29
ENDBRANCH  27  28
ENDBRANCH   6  27
TORSDOF 7
ENDMDL
MODEL 3
REMARK VINA RESULT:     -11.4      4.538     13.643
REMARK  Name = 51039095
REMARK  7 active torsions:
REMARK  status: ('A' for Active; 'I' for Inactive)
REMARK    1  A    between atoms: C_5  and  C_16
REMARK    2  A    between atoms: C_6  and  C_27
REMARK    3  A    between atoms: C_11  and  N_17
REMARK    4  A    between atoms: C_27  and  C_28
REMARK    5  A    between atoms: C_28  and  C_29
REMARK    6  A    between atoms: C_32  and  O_35
REMARK    7  A    between atoms: C_33  and  O_37
REMARK                            x       y       z     vdW  Elec       q    Type
REMARK                         _______ _______ _______ _____ _____    ______ ____
ROOT
ATOM      1  O   UNL     1      33.926 -21.304 -19.296  0.00  0.00    -0.270 OA
ATOM      2  N   UNL     1      36.052 -20.331 -19.484  0.00  0.00    -0.265 N 
ATOM      3  N   UNL     1      36.402 -18.241 -22.235  0.00  0.00    -0.239 N 
ATOM      4  N   UNL     1      36.939 -18.806 -21.139  0.00  0.00    -0.166 NA
ATOM      5  C   UNL     1      35.083 -21.143 -18.878  0.00  0.00    +0.251 C 
ATOM      6  C   UNL     1      35.103 -18.595 -22.457  0.00  0.00    +0.046 C 
ATOM      7  C   UNL     1      35.936 -19.544 -20.657  0.00  0.00    +0.153 C 
ATOM      8  C   UNL     1      34.768 -19.452 -21.437  0.00  0.00    +0.048 C 
ATOM      9  H   UNL     1      36.929 -20.303 -19.036  0.00  0.00    +0.157 HD
ATOM     10  H   UNL     1      36.900 -17.627 -22.821  0.00  0.00    +0.174 HD
ENDROOT
BRANCH   5  16
ATOM     11  C   UNL     1      36.327 -23.225 -15.395  0.00  0.00    +0.048 C 
ATOM     12  C   UNL     1      35.012 -23.343 -15.847  0.00  0.00    +0.015 C 
ATOM     13  C   UNL     1      37.234 -22.424 -16.089  0.00  0.00    +0.015 C 
ATOM     14  C   UNL     1      34.604 -22.659 -16.991  0.00  0.00    +0.006 C 
ATOM     15  C   UNL     1      36.825 -21.740 -17.234  0.00  0.00    +0.006 C 
ATOM     16  C   UNL     1      35.511 -21.857 -17.685  0.00  0.00    +0.054 C 
BRANCH  11  17
ATOM     17  N   UNL     1      36.738 -23.912 -14.247  0.00  0.00    -0.312 N 
ATOM     18  N   UNL     1      37.417 -25.472 -11.960  0.00  0.00    +0.389 N 
ATOM     19  C   UNL     1      36.925 -24.100 -11.795  0.00  0.00    -0.042 C 
ATOM     20  C   UNL     1      38.202 -25.594 -13.193  0.00  0.00    -0.042 C 
ATOM     21  C   UNL     1      36.033 -23.694 -12.979  0.00  0.00    +0.069 C 
ATOM     22  C   UNL     1      37.348 -25.237 -14.418  0.00  0.00    +0.069 C 
ATOM     23  C   UNL     1      38.734 -27.022 -13.306  0.00  0.00    -0.022 C 
ATOM     24  C   UNL     1      36.150 -24.000 -10.482  0.00  0.00    -0.022 C 
ATOM     25  H   UNL     1      36.621 -26.109 -12.005  0.00  0.00    -0.084 HD
ATOM     26  H   UNL     1      38.012 -25.705 -11.166  0.00  0.00    -0.084 HD
ENDBRANCH  11  17
ENDBRANCH   5  16
BRANCH   6  27
ATOM     27  C   UNL     1      34.337 -18.084 -23.604  0.00  0.00    +0.047 C 
BRANCH  27  28
ATOM     28  C   UNL     1      34.990 -16.885 -24.338  0.00  0.00    +0.033 C 
BRANCH  28  29
ATOM     29  C   UNL     1      34.455 -15.551 -23.877  0.00  0.00    -0.016 C 
ATOM     30  C   UNL     1      34.369 -15.266 -22.514  0.00  0.00    +0.033 C 
ATOM     31  C   UNL     1      34.050 -14.601 -24.814  0.00  0.00    +0.033 C 
ATOM     32  C   UNL     1      33.557 -13.367 -24.390  0.00  0.00    +0.141 C 
ATOM     33  C   UNL     1      33.876 -14.033 -22.089  0.00  0.00    +0.141 C 
ATOM     34  C   UNL     1      33.470 -13.083 -23.026  0.00  0.00    +0.074 C 
BRANCH  32  35
ATOM     35  O   UNL     1      33.161 -12.440 -25.304  0.00  0.00    -0.471 OA
ATOM     36  C   UNL     1      33.831 -11.180 -25.281  0.00  0.00    +0.252 C 
ENDBRANCH  32  35
BRANCH  33  37
ATOM     37  O   UNL     1      33.792 -13.754 -20.759  0.00  0.00    -0.471 OA
ATOM     38  C   UNL     1      32.518 -13.347 -20.261  0.00  0.00    +0.252 C 
ENDBRANCH  33  37
ENDBRANCH  28  29
ENDBRANCH  27  28
ENDBRANCH   6  27
TORSDOF 7
ENDMDL
MODEL 4
REMARK VINA RESULT:     -11.4      4.627     13.661
REMARK  Name = 51039095
REMARK  7 active torsions:
REMARK  status: ('A' for Active; 'I' for Inactive)
REMARK    1  A    between atoms: C_5  and  C_16
REMARK    2  A    between atoms: C_6  and  C_27
REMARK    3  A    between atoms: C_11  and  N_17
REMARK    4  A    between atoms: C_27  and  C_28
REMARK    5  A    between atoms: C_28  and  C_29
REMARK    6  A    between atoms: C_32  and  O_35
REMARK    7  A    between atoms: C_33  and  O_37
REMARK                            x       y       z     vdW  Elec       q    Type
REMARK                         _______ _______ _______ _____ _____    ______ ____
ROOT
ATOM      1  O   UNL     1      33.915 -21.348 -19.219  0.00  0.00    -0.270 OA
ATOM      2  N   UNL     1      36.057 -20.406 -19.402  0.00  0.00    -0.265 N 
ATOM      3  N   UNL     1      36.445 -18.327 -22.156  0.00  0.00    -0.239 N 
ATOM      4  N   UNL     1      36.970 -18.898 -21.058  0.00  0.00    -0.166 NA
ATOM      5  C   UNL     1      35.074 -21.203 -18.798  0.00  0.00    +0.251 C 
ATOM      6  C   UNL     1      35.142 -18.663 -22.382  0.00  0.00    +0.046 C 
ATOM      7  C   UNL     1      35.956 -19.620 -20.577  0.00  0.00    +0.153 C 
ATOM      8  C   UNL     1      34.791 -19.513 -21.361  0.00  0.00    +0.048 C 
ATOM      9  H   UNL     1      36.932 -20.390 -18.952  0.00  0.00    +0.157 HD
ATOM     10  H   UNL     1      36.954 -17.722 -22.742  0.00  0.00    +0.174 HD
ENDROOT
BRANCH   5  16
ATOM     11  C   UNL     1      36.282 -23.301 -15.312  0.00  0.00    +0.048 C 
ATOM     12  C   UNL     1      37.188 -22.476 -15.979  0.00  0.00    +0.015 C 
ATOM     13  C   UNL     1      34.978 -23.436 -15.790  0.00  0.00    +0.015 C 
ATOM     14  C   UNL     1      36.791 -21.786 -17.124  0.00  0.00    +0.006 C 
ATOM     15  C   UNL     1      34.582 -22.746 -16.936  0.00  0.00    +0.006 C 
ATOM     16  C   UNL     1      35.487 -21.921 -17.603  0.00  0.00    +0.054 C 
BRANCH  11  17
ATOM     17  N   UNL     1      36.679 -23.993 -14.163  0.00  0.00    -0.312 N 
ATOM     18  N   UNL     1      37.319 -25.557 -11.867  0.00  0.00    +0.389 N 
ATOM     19  C   UNL     1      36.907 -24.158 -11.713  0.00  0.00    -0.042 C 
ATOM     20  C   UNL     1      38.070 -25.739 -13.113  0.00  0.00    -0.042 C 
ATOM     21  C   UNL     1      36.014 -23.720 -12.883  0.00  0.00    +0.069 C 
ATOM     22  C   UNL     1      37.212 -25.352 -14.326  0.00  0.00    +0.069 C 
ATOM     23  C   UNL     1      38.521 -27.195 -13.216  0.00  0.00    -0.022 C 
ATOM     24  C   UNL     1      36.166 -23.998 -10.386  0.00  0.00    -0.022 C 
ATOM     25  H   UNL     1      36.489 -26.150 -11.887  0.00  0.00    -0.084 HD
ATOM     26  H   UNL     1      37.917 -25.812 -11.082  0.00  0.00    -0.084 HD
ENDBRANCH  11  17
ENDBRANCH   5  16
BRANCH   6  27
ATOM     27  C   UNL     1      34.387 -18.143 -23.533  0.00  0.00    +0.047 C 
BRANCH  27  28
ATOM     28  C   UNL     1      35.045 -16.937 -24.249  0.00  0.00    +0.033 C 
BRANCH  28  29
ATOM     29  C   UNL     1      34.469 -15.610 -23.817  0.00  0.00    -0.016 C 
ATOM     30  C   UNL     1      34.038 -14.691 -24.774  0.00  0.00    +0.033 C 
ATOM     31  C   UNL     1      34.366 -15.303 -22.461  0.00  0.00    +0.033 C 
ATOM     32  C   UNL     1      33.834 -14.078 -22.060  0.00  0.00    +0.141 C 
ATOM     33  C   UNL     1      33.505 -13.466 -24.375  0.00  0.00    +0.141 C 
ATOM     34  C   UNL     1      33.403 -13.159 -23.018  0.00  0.00    +0.074 C 
BRANCH  32  35
ATOM     35  O   UNL     1      33.733 -13.778 -20.736  0.00  0.00    -0.471 OA
ATOM     36  C   UNL     1      32.472 -13.291 -20.277  0.00  0.00    +0.252 C 
ENDBRANCH  32  35
BRANCH  33  37
ATOM     37  O   UNL     1      33.084 -12.569 -25.308  0.00  0.00    -0.471 OA
ATOM     38  C   UNL     1      33.855 -11.378 -25.458  0.00  0.00    +0.252 C 
ENDBRANCH  33  37
ENDBRANCH  28  29
ENDBRANCH  27  28
ENDBRANCH   6  27
TORSDOF 7
ENDMDL
MODEL 5
REMARK VINA RESULT:     -11.1      5.022     13.936
REMARK  Name = 51039095
REMARK  7 active torsions:
REMARK  status: ('A' for Active; 'I' for Inactive)
REMARK    1  A    between atoms: C_5  and  C_16
REMARK    2  A    between atoms: C_6  and  C_27
REMARK    3  A    between atoms: C_11  and  N_17
REMARK    4  A    between atoms: C_27  and  C_28
REMARK    5  A    between atoms: C_28  and  C_29
REMARK    6  A    between atoms: C_32  and  O_35
REMARK    7  A    between atoms: C_33  and  O_37
REMARK                            x       y       z     vdW  Elec       q    Type
REMARK                         _______ _______ _______ _____ _____    ______ ____
ROOT
ATOM      1  O   UNL     1      37.093 -20.758 -18.850  0.00  0.00    -0.270 OA
ATOM      2  N   UNL     1      34.792 -21.217 -18.835  0.00  0.00    -0.265 N 
ATOM      3  N   UNL     1      33.063 -19.814 -21.499  0.00  0.00    -0.239 N 
ATOM      4  N   UNL     1      33.050 -20.551 -20.375  0.00  0.00    -0.166 NA
ATOM      5  C   UNL     1      36.098 -21.291 -18.332  0.00  0.00    +0.251 C 
ATOM      6  C   UNL     1      34.300 -19.351 -21.840  0.00  0.00    +0.046 C 
ATOM      7  C   UNL     1      34.330 -20.549 -19.996  0.00  0.00    +0.153 C 
ATOM      8  C   UNL     1      35.155 -19.817 -20.871  0.00  0.00    +0.048 C 
ATOM      9  H   UNL     1      34.105 -21.691 -18.313  0.00  0.00    +0.157 HD
ATOM     10  H   UNL     1      32.254 -19.627 -22.028  0.00  0.00    +0.174 HD
ENDROOT
BRANCH   5  16
ATOM     11  C   UNL     1      36.571 -23.463 -14.717  0.00  0.00    +0.048 C 
ATOM     12  C   UNL     1      37.656 -22.780 -15.267  0.00  0.00    +0.015 C 
ATOM     13  C   UNL     1      35.331 -23.433 -15.354  0.00  0.00    +0.015 C 
ATOM     14  C   UNL     1      37.500 -22.066 -16.455  0.00  0.00    +0.006 C 
ATOM     15  C   UNL     1      35.176 -22.718 -16.542  0.00  0.00    +0.006 C 
ATOM     16  C   UNL     1      36.259 -22.034 -17.093  0.00  0.00    +0.054 C 
BRANCH  11  17
ATOM     17  N   UNL     1      36.726 -24.180 -13.525  0.00  0.00    -0.312 N 
ATOM     18  N   UNL     1      36.842 -25.749 -11.149  0.00  0.00    +0.389 N 
ATOM     19  C   UNL     1      36.778 -24.287 -11.062  0.00  0.00    -0.042 C 
ATOM     20  C   UNL     1      37.590 -26.164 -12.340  0.00  0.00    -0.042 C 
ATOM     21  C   UNL     1      36.083 -23.697 -12.298  0.00  0.00    +0.069 C 
ATOM     22  C   UNL     1      36.917 -25.634 -13.615  0.00  0.00    +0.069 C 
ATOM     23  C   UNL     1      37.675 -27.688 -12.371  0.00  0.00    -0.022 C 
ATOM     24  C   UNL     1      36.031 -23.893  -9.788  0.00  0.00    -0.022 C 
ATOM     25  H   UNL     1      35.894 -26.123 -11.201  0.00  0.00    -0.084 HD
ATOM     26  H   UNL     1      37.318 -26.107 -10.321  0.00  0.00    -0.084 HD
ENDBRANCH  11  17
ENDBRANCH   5  16
BRANCH   6  27
ATOM     27  C   UNL     1      34.526 -18.526 -23.037  0.00  0.00    +0.047 C 
BRANCH  27  28
ATOM     28  C   UNL     1      35.471 -17.316 -22.822  0.00  0.00    +0.033 C 
BRANCH  28  29
ATOM     29  C   UNL     1      34.763 -15.988 -22.945  0.00  0.00    -0.016 C 
ATOM     30  C   UNL     1      34.528 -15.214 -21.808  0.00  0.00    +0.033 C 
ATOM     31  C   UNL     1      34.346 -15.534 -24.195  0.00  0.00    +0.033 C 
ATOM     32  C   UNL     1      33.693 -14.307 -24.311  0.00  0.00    +0.141 C 
ATOM     33  C   UNL     1      33.876 -13.987 -21.923  0.00  0.00    +0.141 C 
ATOM     34  C   UNL     1      33.457 -13.533 -23.174  0.00  0.00    +0.074 C 
BRANCH  32  35
ATOM     35  O   UNL     1      33.286 -13.863 -25.532  0.00  0.00    -0.471 OA
ATOM     36  C   UNL     1      33.356 -12.458 -25.766  0.00  0.00    +0.252 C 
ENDBRANCH  32  35
BRANCH  33  37
ATOM     37  O   UNL     1      33.647 -13.231 -20.815  0.00  0.00    -0.471 OA
ATOM     38  C   UNL     1      32.285 -12.965 -20.480  0.00  0.00    +0.252 C 
ENDBRANCH  33  37
ENDBRANCH  28  29
ENDBRANCH  27  28
ENDBRANCH   6  27
TORSDOF 7
ENDMDL
MODEL 6
REMARK VINA RESULT:     -11.1      5.050     13.935
REMARK  Name = 51039095
REMARK  7 active torsions:
REMARK  status: ('A' for Active; 'I' for Inactive)
REMARK    1  A    between atoms: C_5  and  C_16
REMARK    2  A    between atoms: C_6  and  C_27
REMARK    3  A    between atoms: C_11  and  N_17
REMARK    4  A    between atoms: C_27  and  C_28
REMARK    5  A    between atoms: C_28  and  C_29
REMARK    6  A    between atoms: C_32  and  O_35
REMARK    7  A    between atoms: C_33  and  O_37
REMARK                            x       y       z     vdW  Elec       q    Type
REMARK                         _______ _______ _______ _____ _____    ______ ____
ROOT
ATOM      1  O   UNL     1      37.072 -20.795 -18.900  0.00  0.00    -0.270 OA
ATOM      2  N   UNL     1      34.767 -21.230 -18.845  0.00  0.00    -0.265 N 
ATOM      3  N   UNL     1      33.010 -19.829 -21.493  0.00  0.00    -0.239 N 
ATOM      4  N   UNL     1      33.007 -20.558 -20.363  0.00  0.00    -0.166 NA
ATOM      5  C   UNL     1      36.080 -21.313 -18.363  0.00  0.00    +0.251 C 
ATOM      6  C   UNL     1      34.247 -19.381 -21.856  0.00  0.00    +0.046 C 
ATOM      7  C   UNL     1      34.293 -20.566 -20.004  0.00  0.00    +0.153 C 
ATOM      8  C   UNL     1      35.112 -19.849 -20.897  0.00  0.00    +0.048 C 
ATOM      9  H   UNL     1      34.083 -21.693 -18.310  0.00  0.00    +0.157 HD
ATOM     10  H   UNL     1      32.195 -19.638 -22.010  0.00  0.00    +0.174 HD
ENDROOT
BRANCH   5  16
ATOM     11  C   UNL     1      36.583 -23.458 -14.735  0.00  0.00    +0.048 C 
ATOM     12  C   UNL     1      35.343 -23.451 -15.375  0.00  0.00    +0.015 C 
ATOM     13  C   UNL     1      37.658 -22.762 -15.287  0.00  0.00    +0.015 C 
ATOM     14  C   UNL     1      35.178 -22.746 -16.567  0.00  0.00    +0.006 C 
ATOM     15  C   UNL     1      37.492 -22.058 -16.480  0.00  0.00    +0.006 C 
ATOM     16  C   UNL     1      36.253 -22.050 -17.120  0.00  0.00    +0.054 C 
BRANCH  11  17
ATOM     17  N   UNL     1      36.750 -24.165 -13.539  0.00  0.00    -0.312 N 
ATOM     18  N   UNL     1      36.890 -25.715 -11.151  0.00  0.00    +0.389 N 
ATOM     19  C   UNL     1      36.835 -24.251 -11.076  0.00  0.00    -0.042 C 
ATOM     20  C   UNL     1      37.620 -26.143 -12.349  0.00  0.00    -0.042 C 
ATOM     21  C   UNL     1      36.125 -23.669 -12.307  0.00  0.00    +0.069 C 
ATOM     22  C   UNL     1      36.932 -25.621 -13.618  0.00  0.00    +0.069 C 
ATOM     23  C   UNL     1      37.696 -27.669 -12.368  0.00  0.00    -0.022 C 
ATOM     24  C   UNL     1      36.107 -23.843  -9.796  0.00  0.00    -0.022 C 
ATOM     25  H   UNL     1      35.940 -26.084 -11.187  0.00  0.00    -0.084 HD
ATOM     26  H   UNL     1      37.375 -26.068 -10.326  0.00  0.00    -0.084 HD
ENDBRANCH  11  17
ENDBRANCH   5  16
BRANCH   6  27
ATOM     27  C   UNL     1      34.462 -18.567 -23.062  0.00  0.00    +0.047 C 
BRANCH  27  28
ATOM     28  C   UNL     1      35.441 -17.380 -22.877  0.00  0.00    +0.033 C 
BRANCH  28  29
ATOM     29  C   UNL     1      34.766 -16.035 -23.003  0.00  0.00    -0.016 C 
ATOM     30  C   UNL     1      34.358 -15.572 -24.254  0.00  0.00    +0.033 C 
ATOM     31  C   UNL     1      34.549 -15.257 -21.866  0.00  0.00    +0.033 C 
ATOM     32  C   UNL     1      33.925 -14.014 -21.980  0.00  0.00    +0.141 C 
ATOM     33  C   UNL     1      33.734 -14.331 -24.368  0.00  0.00    +0.141 C 
ATOM     34  C   UNL     1      33.517 -13.551 -23.232  0.00  0.00    +0.074 C 
BRANCH  32  35
ATOM     35  O   UNL     1      33.712 -13.254 -20.871  0.00  0.00    -0.471 OA
ATOM     36  C   UNL     1      32.357 -13.072 -20.461  0.00  0.00    +0.252 C 
ENDBRANCH  32  35
BRANCH  33  37
ATOM     37  O   UNL     1      33.335 -13.879 -25.588  0.00  0.00    -0.471 OA
ATOM     38  C   UNL     1      33.341 -12.466 -25.791  0.00  0.00    +0.252 C 
ENDBRANCH  33  37
ENDBRANCH  28  29
ENDBRANCH  27  28
ENDBRANCH   6  27
TORSDOF 7
ENDMDL
MODEL 7
REMARK VINA RESULT:     -10.7      1.436      2.330
REMARK  Name = 51039095
REMARK  7 active torsions:
REMARK  status: ('A' for Active; 'I' for Inactive)
REMARK    1  A    between atoms: C_5  and  C_16
REMARK    2  A    between atoms: C_6  and  C_27
REMARK    3  A    between atoms: C_11  and  N_17
REMARK    4  A    between atoms: C_27  and  C_28
REMARK    5  A    between atoms: C_28  and  C_29
REMARK    6  A    between atoms: C_32  and  O_35
REMARK    7  A    between atoms: C_33  and  O_37
REMARK                            x       y       z     vdW  Elec       q    Type
REMARK                         _______ _______ _______ _____ _____    ______ ____
ROOT
ATOM      1  O   UNL     1      33.935 -12.943 -24.447  0.00  0.00    -0.270 OA
ATOM      2  N   UNL     1      34.110 -13.052 -22.110  0.00  0.00    -0.265 N 
ATOM      3  N   UNL     1      34.948 -16.201 -20.910  0.00  0.00    -0.239 N 
ATOM      4  N   UNL     1      34.652 -14.913 -20.663  0.00  0.00    -0.166 NA
ATOM      5  C   UNL     1      33.876 -12.404 -23.330  0.00  0.00    +0.251 C 
ATOM      6  C   UNL     1      34.943 -16.523 -22.236  0.00  0.00    +0.046 C 
ATOM      7  C   UNL     1      34.453 -14.408 -21.882  0.00  0.00    +0.153 C 
ATOM      8  C   UNL     1      34.620 -15.365 -22.901  0.00  0.00    +0.048 C 
ATOM      9  H   UNL     1      34.025 -12.493 -21.304  0.00  0.00    +0.157 HD
ATOM     10  H   UNL     1      35.151 -16.851 -20.200  0.00  0.00    +0.174 HD
ENDROOT
BRANCH   5  16
ATOM     11  C   UNL     1      32.810  -8.304 -23.075  0.00  0.00    +0.048 C 
ATOM     12  C   UNL     1      32.062  -9.263 -22.391  0.00  0.00    +0.015 C 
ATOM     13  C   UNL     1      33.908  -8.692 -23.842  0.00  0.00    +0.015 C 
ATOM     14  C   UNL     1      32.413 -10.610 -22.475  0.00  0.00    +0.006 C 
ATOM     15  C   UNL     1      34.259 -10.040 -23.926  0.00  0.00    +0.006 C 
ATOM     16  C   UNL     1      33.512 -10.999 -23.242  0.00  0.00    +0.054 C 
BRANCH  11  17
ATOM     17  N   UNL     1      32.459  -6.952 -22.992  0.00  0.00    -0.312 N 
ATOM     18  N   UNL     1      31.530  -4.259 -22.888  0.00  0.00    +0.389 N 
ATOM     19  C   UNL     1      32.625  -4.625 -23.793  0.00  0.00    -0.042 C 
ATOM     20  C   UNL     1      31.578  -5.068 -21.665  0.00  0.00    -0.042 C 
ATOM     21  C   UNL     1      32.533  -6.107 -24.189  0.00  0.00    +0.069 C 
ATOM     22  C   UNL     1      31.451  -6.561 -21.997  0.00  0.00    +0.069 C 
ATOM     23  C   UNL     1      30.453  -4.626 -20.731  0.00  0.00    -0.022 C 
ATOM     24  C   UNL     1      32.568  -3.735 -25.033  0.00  0.00    -0.022 C 
ATOM     25  H   UNL     1      30.639  -4.418 -23.360  0.00  0.00    -0.084 HD
ATOM     26  H   UNL     1      31.627  -3.276 -22.637  0.00  0.00    -0.084 HD
ENDBRANCH  11  17
ENDBRANCH   5  16
BRANCH   6  27
ATOM     27  C   UNL     1      35.242 -17.882 -22.714  0.00  0.00    +0.047 C 
BRANCH  27  28
ATOM     28  C   UNL     1      36.359 -18.614 -21.929  0.00  0.00    +0.033 C 
BRANCH  28  29
ATOM     29  C   UNL     1      35.819 -19.559 -20.882  0.00  0.00    -0.016 C 
ATOM     30  C   UNL     1      36.697 -20.249 -20.045  0.00  0.00    +0.033 C 
ATOM     31  C   UNL     1      34.443 -19.740 -20.749  0.00  0.00    +0.033 C 
ATOM     32  C   UNL     1      33.943 -20.611 -19.782  0.00  0.00    +0.141 C 
ATOM     33  C   UNL     1      36.198 -21.120 -19.078  0.00  0.00    +0.141 C 
ATOM     34  C   UNL     1      34.821 -21.302 -18.946  0.00  0.00    +0.074 C 
BRANCH  32  35
ATOM     35  O   UNL     1      32.600 -20.788 -19.652  0.00  0.00    -0.471 OA
ATOM     36  C   UNL     1      32.151 -21.526 -18.516  0.00  0.00    +0.252 C 
ENDBRANCH  32  35
BRANCH  33  37
ATOM     37  O   UNL     1      37.053 -21.794 -18.261  0.00  0.00    -0.471 OA
ATOM     38  C   UNL     1      37.031 -21.453 -16.875  0.00  0.00    +0.252 C 
ENDBRANCH  33  37
ENDBRANCH  28  29
ENDBRANCH  27  28
ENDBRANCH   6  27
TORSDOF 7
ENDMDL
MODEL 8
REMARK VINA RESULT:     -10.0      4.070     13.466
REMARK  Name = 51039095
REMARK  7 active torsions:
REMARK  status: ('A' for Active; 'I' for Inactive)
REMARK    1  A    between atoms: C_5  and  C_16
REMARK    2  A    between atoms: C_6  and  C_27
REMARK    3  A    between atoms: C_11  and  N_17
REMARK    4  A    between atoms: C_27  and  C_28
REMARK    5  A    between atoms: C_28  and  C_29
REMARK    6  A    between atoms: C_32  and  O_35
REMARK    7  A    between atoms: C_33  and  O_37
REMARK                            x       y       z     vdW  Elec       q    Type
REMARK                         _______ _______ _______ _____ _____    ______ ____
ROOT
ATOM      1  O   UNL     1      33.556 -10.765 -24.751  0.00  0.00    -0.270 OA
ATOM      2  N   UNL     1      32.790 -10.650 -22.536  0.00  0.00    -0.265 N 
ATOM      3  N   UNL     1      31.639  -7.507 -21.610  0.00  0.00    -0.239 N 
ATOM      4  N   UNL     1      31.876  -8.790 -21.287  0.00  0.00    -0.166 NA
ATOM      5  C   UNL     1      33.334 -11.300 -23.652  0.00  0.00    +0.251 C 
ATOM      6  C   UNL     1      31.979  -7.190 -22.893  0.00  0.00    +0.046 C 
ATOM      7  C   UNL     1      32.386  -9.297 -22.413  0.00  0.00    +0.153 C 
ATOM      8  C   UNL     1      32.473  -8.346 -23.447  0.00  0.00    +0.048 C 
ATOM      9  H   UNL     1      32.673 -11.205 -21.732  0.00  0.00    +0.157 HD
ATOM     10  H   UNL     1      31.254  -6.857 -20.979  0.00  0.00    +0.174 HD
ENDROOT
BRANCH   5  16
ATOM     11  C   UNL     1      34.337 -15.387 -23.106  0.00  0.00    +0.048 C 
ATOM     12  C   UNL     1      33.835 -14.950 -24.332  0.00  0.00    +0.015 C 
ATOM     13  C   UNL     1      34.511 -14.482 -22.060  0.00  0.00    +0.015 C 
ATOM     14  C   UNL     1      33.506 -13.607 -24.511  0.00  0.00    +0.006 C 
ATOM     15  C   UNL     1      34.181 -13.138 -22.240  0.00  0.00    +0.006 C 
ATOM     16  C   UNL     1      33.679 -12.700 -23.465  0.00  0.00    +0.054 C 
BRANCH  11  17
ATOM     17  N   UNL     1      34.668 -16.735 -22.925  0.00  0.00    -0.312 N 
ATOM     18  N   UNL     1      35.555 -19.428 -22.636  0.00  0.00    +0.389 N 
ATOM     19  C   UNL     1      34.429 -19.116 -23.522  0.00  0.00    -0.042 C 
ATOM     20  C   UNL     1      35.573 -18.521 -21.484  0.00  0.00    -0.042 C 
ATOM     21  C   UNL     1      34.529 -17.674 -24.044  0.00  0.00    +0.069 C 
ATOM     22  C   UNL     1      35.711 -17.062 -21.944  0.00  0.00    +0.069 C 
ATOM     23  C   UNL     1      36.729 -18.906 -20.563  0.00  0.00    -0.022 C 
ATOM     24  C   UNL     1      34.417 -20.107 -24.685  0.00  0.00    -0.022 C 
ATOM     25  H   UNL     1      36.428 -19.327 -23.155  0.00  0.00    -0.084 HD
ATOM     26  H   UNL     1      35.453 -20.385 -22.300  0.00  0.00    -0.084 HD
ENDBRANCH  11  17
ENDBRANCH   5  16
BRANCH   6  27
ATOM     27  C   UNL     1      31.797  -5.837 -23.441  0.00  0.00    +0.047 C 
BRANCH  27  28
ATOM     28  C   UNL     1      33.064  -4.945 -23.401  0.00  0.00    +0.033 C 
BRANCH  28  29
ATOM     29  C   UNL     1      33.492  -4.471 -24.769  0.00  0.00    -0.016 C 
ATOM     30  C   UNL     1      34.736  -4.843 -25.279  0.00  0.00    +0.033 C 
ATOM     31  C   UNL     1      32.643  -3.661 -25.522  0.00  0.00    +0.033 C 
ATOM     32  C   UNL     1      33.037  -3.222 -26.786  0.00  0.00    +0.141 C 
ATOM     33  C   UNL     1      35.130  -4.405 -26.543  0.00  0.00    +0.141 C 
ATOM     34  C   UNL     1      34.282  -3.594 -27.297  0.00  0.00    +0.074 C 
BRANCH  32  35
ATOM     35  O   UNL     1      32.209  -2.432 -27.523  0.00  0.00    -0.471 OA
ATOM     36  C   UNL     1      30.996  -2.010 -26.903  0.00  0.00    +0.252 C 
ENDBRANCH  32  35
BRANCH  33  37
ATOM     37  O   UNL     1      36.344  -4.768 -27.042  0.00  0.00    -0.471 OA
ATOM     38  C   UNL     1      37.425  -3.858 -26.846  0.00  0.00    +0.252 C 
ENDBRANCH  33  37
ENDBRANCH  28  29
ENDBRANCH  27  28
ENDBRANCH   6  27
TORSDOF 7
ENDMDL
MODEL 9
REMARK VINA RESULT:     -10.0      4.064     13.631
REMARK  Name = 51039095
REMARK  7 active torsions:
REMARK  status: ('A' for Active; 'I' for Inactive)
REMARK    1  A    between atoms: C_5  and  C_16
REMARK    2  A    between atoms: C_6  and  C_27
REMARK    3  A    between atoms: C_11  and  N_17
REMARK    4  A    between atoms: C_27  and  C_28
REMARK    5  A    between atoms: C_28  and  C_29
REMARK    6  A    between atoms: C_32  and  O_35
REMARK    7  A    between atoms: C_33  and  O_37
REMARK                            x       y       z     vdW  Elec       q    Type
REMARK                         _______ _______ _______ _____ _____    ______ ____
ROOT
ATOM      1  O   UNL     1      33.504 -10.770 -24.722  0.00  0.00    -0.270 OA
ATOM      2  N   UNL     1      32.778 -10.656 -22.494  0.00  0.00    -0.265 N 
ATOM      3  N   UNL     1      31.633  -7.517 -21.549  0.00  0.00    -0.239 N 
ATOM      4  N   UNL     1      31.881  -8.799 -21.230  0.00  0.00    -0.166 NA
ATOM      5  C   UNL     1      33.304 -11.305 -23.619  0.00  0.00    +0.251 C 
ATOM      6  C   UNL     1      31.949  -7.200 -22.838  0.00  0.00    +0.046 C 
ATOM      7  C   UNL     1      32.371  -9.305 -22.364  0.00  0.00    +0.153 C 
ATOM      8  C   UNL     1      32.437  -8.354 -23.400  0.00  0.00    +0.048 C 
ATOM      9  H   UNL     1      32.677 -11.212 -21.687  0.00  0.00    +0.157 HD
ATOM     10  H   UNL     1      31.258  -6.868 -20.912  0.00  0.00    +0.174 HD
ENDROOT
BRANCH   5  16
ATOM     11  C   UNL     1      34.330 -15.389 -23.089  0.00  0.00    +0.048 C 
ATOM     12  C   UNL     1      33.822 -14.950 -24.312  0.00  0.00    +0.015 C 
ATOM     13  C   UNL     1      34.502 -14.486 -22.040  0.00  0.00    +0.015 C 
ATOM     14  C   UNL     1      33.485 -13.608 -24.486  0.00  0.00    +0.006 C 
ATOM     15  C   UNL     1      34.165 -13.143 -22.215  0.00  0.00    +0.006 C 
ATOM     16  C   UNL     1      33.657 -12.704 -23.437  0.00  0.00    +0.054 C 
BRANCH  11  17
ATOM     17  N   UNL     1      34.668 -16.735 -22.913  0.00  0.00    -0.312 N 
ATOM     18  N   UNL     1      35.571 -19.424 -22.633  0.00  0.00    +0.389 N 
ATOM     19  C   UNL     1      34.447 -19.114 -23.523  0.00  0.00    -0.042 C 
ATOM     20  C   UNL     1      35.578 -18.522 -21.476  0.00  0.00    -0.042 C 
ATOM     21  C   UNL     1      34.540 -17.670 -24.037  0.00  0.00    +0.069 C 
ATOM     22  C   UNL     1      35.709 -17.061 -21.928  0.00  0.00    +0.069 C 
ATOM     23  C   UNL     1      36.733 -18.905 -20.552  0.00  0.00    -0.022 C 
ATOM     24  C   UNL     1      34.447 -20.100 -24.690  0.00  0.00    -0.022 C 
ATOM     25  H   UNL     1      36.446 -19.315 -23.148  0.00  0.00    -0.084 HD
ATOM     26  H   UNL     1      35.474 -20.383 -22.302  0.00  0.00    -0.084 HD
ENDBRANCH  11  17
ENDBRANCH   5  16
BRANCH   6  27
ATOM     27  C   UNL     1      31.753  -5.847 -23.383  0.00  0.00    +0.047 C 
BRANCH  27  28
ATOM     28  C   UNL     1      33.017  -4.952 -23.367  0.00  0.00    +0.033 C 
BRANCH  28  29
ATOM     29  C   UNL     1      33.399  -4.448 -24.739  0.00  0.00    -0.016 C 
ATOM     30  C   UNL     1      32.509  -3.657 -25.465  0.00  0.00    +0.033 C 
ATOM     31  C   UNL     1      34.644  -4.773 -25.277  0.00  0.00    +0.033 C 
ATOM     32  C   UNL     1      34.999  -4.308 -26.544  0.00  0.00    +0.141 C 
ATOM     33  C   UNL     1      32.864  -3.192 -26.731  0.00  0.00    +0.141 C 
ATOM     34  C   UNL     1      34.108  -3.517 -27.271  0.00  0.00    +0.074 C 
BRANCH  32  35
ATOM     35  O   UNL     1      36.213  -4.624 -27.071  0.00  0.00    -0.471 OA
ATOM     36  C   UNL     1      36.422  -4.316 -28.448  0.00  0.00    +0.252 C 
ENDBRANCH  32  35
BRANCH  33  37
ATOM     37  O   UNL     1      31.996  -2.420 -27.440  0.00  0.00    -0.471 OA
ATOM     38  C   UNL     1      32.269  -2.246 -28.831  0.00  0.00    +0.252 C 
ENDBRANCH  33  37
ENDBRANCH  28  29
ENDBRANCH  27  28
ENDBRANCH   6  27
TORSDOF 7
ENDMDL
