MODEL 1
REMARK VINA RESULT:     -11.1      0.000      0.000
REMARK  Name = 24779675
REMARK  4 active torsions:
REMARK  status: ('A' for Active; 'I' for Inactive)
REMARK    1  A    between atoms: N_1  and  C_22
REMARK    2  A    between atoms: N_5  and  C_14
REMARK    3  A    between atoms: C_10  and  C_21
REMARK    4  A    between atoms: C_22  and  C_23
REMARK                            x       y       z     vdW  Elec       q    Type
REMARK                         _______ _______ _______ _____ _____    ______ ____
ROOT
ATOM      1  N   UNL     1      33.954 -22.782 -17.029  0.00  0.00    -0.259 N 
ATOM      2  N   UNL     1      32.071 -23.368 -15.851  0.00  0.00    -0.314 NA
ATOM      3  N   UNL     1      34.235 -23.717 -14.903  0.00  0.00    -0.295 NA
ATOM      4  N   UNL     1      32.370 -24.307 -13.714  0.00  0.00    -0.123 N 
ATOM      5  N   UNL     1      34.495 -24.666 -12.747  0.00  0.00    -0.274 N 
ATOM      6  N   UNL     1      31.728 -24.805 -12.643  0.00  0.00    -0.170 NA
ATOM      7  C   UNL     1      33.382 -23.294 -15.919  0.00  0.00    +0.203 C 
ATOM      8  C   UNL     1      31.546 -23.888 -14.717  0.00  0.00    +0.219 C 
ATOM      9  C   UNL     1      33.751 -24.221 -13.806  0.00  0.00    +0.279 C 
ATOM     10  C   UNL     1      30.267 -24.128 -14.267  0.00  0.00    +0.203 C 
ATOM     11  C   UNL     1      30.441 -24.692 -12.987  0.00  0.00    +0.116 C 
ATOM     12  H   UNL     1      34.936 -22.732 -17.067  0.00  0.00    +0.160 HD
ATOM     13  H   UNL     1      33.995 -25.025 -11.978  0.00  0.00    +0.156 HD
ENDROOT
BRANCH   5  14
ATOM     14  C   UNL     1      35.887 -24.666 -12.641  0.00  0.00    +0.051 C 
ATOM     15  C   UNL     1      36.637 -25.635 -13.309  0.00  0.00    +0.015 C 
ATOM     16  C   UNL     1      36.527 -23.698 -11.868  0.00  0.00    +0.015 C 
ATOM     17  C   UNL     1      38.028 -25.636 -13.203  0.00  0.00    +0.001 C 
ATOM     18  C   UNL     1      37.919 -23.699 -11.763  0.00  0.00    +0.001 C 
ATOM     19  C   UNL     1      38.669 -24.667 -12.430  0.00  0.00    +0.000 C 
ENDBRANCH   5  14
BRANCH  10  21
ATOM     20  N   UNL     1      28.068 -23.639 -15.526  0.00  0.00    -0.195 NA
ATOM     21  C   UNL     1      29.057 -23.860 -14.960  0.00  0.00    +0.087 C 
ENDBRANCH  10  21
BRANCH   1  22
ATOM     22  C   UNL     1      33.199 -22.306 -18.157  0.00  0.00    +0.099 C 
BRANCH  22  23
ATOM     23  C   UNL     1      34.151 -21.766 -19.223  0.00  0.00    +0.020 C 
ATOM     24  C   UNL     1      33.589 -20.485 -19.854  0.00  0.00    +0.002 C 
ATOM     25  C   UNL     1      35.544 -21.517 -18.629  0.00  0.00    +0.002 C 
ATOM     26  C   UNL     1      34.548 -19.896 -20.885  0.00  0.00    +0.000 C 
ATOM     27  C   UNL     1      36.500 -20.926 -19.663  0.00  0.00    +0.000 C 
ATOM     28  C   UNL     1      35.934 -19.658 -20.295  0.00  0.00    +0.000 C 
ENDBRANCH  22  23
ENDBRANCH   1  22
TORSDOF 4
ENDMDL
MODEL 2
REMARK VINA RESULT:     -10.3      1.472      5.551
REMARK  Name = 24779675
REMARK  4 active torsions:
REMARK  status: ('A' for Active; 'I' for Inactive)
REMARK    1  A    between atoms: N_1  and  C_22
REMARK    2  A    between atoms: N_5  and  C_14
REMARK    3  A    between atoms: C_10  and  C_21
REMARK    4  A    between atoms: C_22  and  C_23
REMARK                            x       y       z     vdW  Elec       q    Type
REMARK                         _______ _______ _______ _____ _____    ______ ____
ROOT
ATOM      1  N   UNL     1      34.246 -22.411 -17.600  0.00  0.00    -0.259 N 
ATOM      2  N   UNL     1      35.185 -23.129 -15.630  0.00  0.00    -0.314 NA
ATOM      3  N   UNL     1      32.810 -23.088 -15.882  0.00  0.00    -0.295 NA
ATOM      4  N   UNL     1      33.728 -23.808 -13.912  0.00  0.00    -0.123 N 
ATOM      5  N   UNL     1      31.376 -23.781 -14.126  0.00  0.00    -0.274 N 
ATOM      6  N   UNL     1      33.672 -24.281 -12.655  0.00  0.00    -0.170 NA
ATOM      7  C   UNL     1      34.108 -22.886 -16.344  0.00  0.00    +0.203 C 
ATOM      8  C   UNL     1      34.994 -23.605 -14.378  0.00  0.00    +0.219 C 
ATOM      9  C   UNL     1      32.605 -23.544 -14.680  0.00  0.00    +0.279 C 
ATOM     10  C   UNL     1      35.829 -23.975 -13.348  0.00  0.00    +0.203 C 
ATOM     11  C   UNL     1      34.960 -24.382 -12.315  0.00  0.00    +0.116 C 
ATOM     12  H   UNL     1      33.432 -22.233 -18.124  0.00  0.00    +0.160 HD
ATOM     13  H   UNL     1      31.368 -24.127 -13.205  0.00  0.00    +0.156 HD
ENDROOT
BRANCH   5  14
ATOM     14  C   UNL     1      30.133 -23.583 -14.729  0.00  0.00    +0.051 C 
ATOM     15  C   UNL     1      29.584 -24.578 -15.539  0.00  0.00    +0.015 C 
ATOM     16  C   UNL     1      29.438 -22.391 -14.521  0.00  0.00    +0.015 C 
ATOM     17  C   UNL     1      28.342 -24.380 -16.143  0.00  0.00    +0.001 C 
ATOM     18  C   UNL     1      28.196 -22.194 -15.125  0.00  0.00    +0.001 C 
ATOM     19  C   UNL     1      27.648 -23.188 -15.935  0.00  0.00    +0.000 C 
ENDBRANCH   5  14
BRANCH  10  21
ATOM     20  N   UNL     1      38.409 -23.917 -13.355  0.00  0.00    -0.195 NA
ATOM     21  C   UNL     1      37.249 -23.943 -13.351  0.00  0.00    +0.087 C 
ENDBRANCH  10  21
BRANCH   1  22
ATOM     22  C   UNL     1      35.523 -22.153 -18.210  0.00  0.00    +0.099 C 
BRANCH  22  23
ATOM     23  C   UNL     1      35.325 -21.383 -19.514  0.00  0.00    +0.020 C 
ATOM     24  C   UNL     1      33.910 -20.791 -19.583  0.00  0.00    +0.002 C 
ATOM     25  C   UNL     1      36.384 -20.282 -19.661  0.00  0.00    +0.002 C 
ATOM     26  C   UNL     1      33.703 -19.971 -20.855  0.00  0.00    +0.000 C 
ATOM     27  C   UNL     1      36.173 -19.462 -20.932  0.00  0.00    +0.000 C 
ATOM     28  C   UNL     1      34.763 -18.884 -21.002  0.00  0.00    +0.000 C 
ENDBRANCH  22  23
ENDBRANCH   1  22
TORSDOF 4
ENDMDL
MODEL 3
REMARK VINA RESULT:     -10.0      1.589      5.734
REMARK  Name = 24779675
REMARK  4 active torsions:
REMARK  status: ('A' for Active; 'I' for Inactive)
REMARK    1  A    between atoms: N_1  and  C_22
REMARK    2  A    between atoms: N_5  and  C_14
REMARK    3  A    between atoms: C_10  and  C_21
REMARK    4  A    between atoms: C_22  and  C_23
REMARK                            x       y       z     vdW  Elec       q    Type
REMARK                         _______ _______ _______ _____ _____    ______ ____
ROOT
ATOM      1  N   UNL     1      34.055 -22.301 -18.140  0.00  0.00    -0.259 N 
ATOM      2  N   UNL     1      35.230 -23.059 -16.316  0.00  0.00    -0.314 NA
ATOM      3  N   UNL     1      32.842 -23.030 -16.278  0.00  0.00    -0.295 NA
ATOM      4  N   UNL     1      33.994 -23.789 -14.451  0.00  0.00    -0.123 N 
ATOM      5  N   UNL     1      31.634 -23.774 -14.379  0.00  0.00    -0.274 N 
ATOM      6  N   UNL     1      34.093 -24.293 -13.208  0.00  0.00    -0.170 NA
ATOM      7  C   UNL     1      34.073 -22.807 -16.889  0.00  0.00    +0.203 C 
ATOM      8  C   UNL     1      35.194 -23.566 -15.062  0.00  0.00    +0.219 C 
ATOM      9  C   UNL     1      32.785 -23.516 -15.072  0.00  0.00    +0.279 C 
ATOM     10  C   UNL     1      36.149 -23.954 -14.150  0.00  0.00    +0.203 C 
ATOM     11  C   UNL     1      35.414 -24.392 -13.030  0.00  0.00    +0.116 C 
ATOM     12  H   UNL     1      33.184 -22.117 -18.557  0.00  0.00    +0.160 HD
ATOM     13  H   UNL     1      31.739 -24.142 -13.472  0.00  0.00    +0.156 HD
ENDROOT
BRANCH   5  14
ATOM     14  C   UNL     1      30.326 -23.572 -14.822  0.00  0.00    +0.051 C 
ATOM     15  C   UNL     1      29.661 -22.384 -14.515  0.00  0.00    +0.015 C 
ATOM     16  C   UNL     1      29.683 -24.557 -15.571  0.00  0.00    +0.015 C 
ATOM     17  C   UNL     1      28.353 -22.182 -14.956  0.00  0.00    +0.001 C 
ATOM     18  C   UNL     1      28.375 -24.354 -16.013  0.00  0.00    +0.001 C 
ATOM     19  C   UNL     1      27.710 -23.167 -15.706  0.00  0.00    +0.000 C 
ENDBRANCH   5  14
BRANCH  10  21
ATOM     20  N   UNL     1      38.710 -23.877 -14.464  0.00  0.00    -0.195 NA
ATOM     21  C   UNL     1      37.558 -23.911 -14.324  0.00  0.00    +0.087 C 
ENDBRANCH  10  21
BRANCH   1  22
ATOM     22  C   UNL     1      35.249 -22.019 -18.893  0.00  0.00    +0.099 C 
BRANCH  22  23
ATOM     23  C   UNL     1      35.130 -20.645 -19.549  0.00  0.00    +0.020 C 
ATOM     24  C   UNL     1      36.493 -20.177 -20.078  0.00  0.00    +0.002 C 
ATOM     25  C   UNL     1      34.087 -20.670 -20.675  0.00  0.00    +0.002 C 
ATOM     26  C   UNL     1      36.390 -18.828 -20.786  0.00  0.00    +0.000 C 
ATOM     27  C   UNL     1      33.989 -19.320 -21.383  0.00  0.00    +0.000 C 
ATOM     28  C   UNL     1      35.347 -18.854 -21.899  0.00  0.00    +0.000 C 
ENDBRANCH  22  23
ENDBRANCH   1  22
TORSDOF 4
ENDMDL
MODEL 4
REMARK VINA RESULT:      -9.9      1.758      7.080
REMARK  Name = 24779675
REMARK  4 active torsions:
REMARK  status: ('A' for Active; 'I' for Inactive)
REMARK    1  A    between atoms: N_1  and  C_22
REMARK    2  A    between atoms: N_5  and  C_14
REMARK    3  A    between atoms: C_10  and  C_21
REMARK    4  A    between atoms: C_22  and  C_23
REMARK                            x       y       z     vdW  Elec       q    Type
REMARK                         _______ _______ _______ _____ _____    ______ ____
ROOT
ATOM      1  N   UNL     1      32.885 -22.998 -14.253  0.00  0.00    -0.259 N 
ATOM      2  N   UNL     1      34.894 -23.808 -13.484  0.00  0.00    -0.314 NA
ATOM      3  N   UNL     1      34.780 -22.681 -15.587  0.00  0.00    -0.295 NA
ATOM      4  N   UNL     1      36.790 -23.481 -14.838  0.00  0.00    -0.123 N 
ATOM      5  N   UNL     1      36.715 -22.372 -16.922  0.00  0.00    -0.274 N 
ATOM      6  N   UNL     1      38.114 -23.700 -14.930  0.00  0.00    -0.170 NA
ATOM      7  C   UNL     1      34.212 -23.180 -14.417  0.00  0.00    +0.203 C 
ATOM      8  C   UNL     1      36.221 -23.964 -13.696  0.00  0.00    +0.219 C 
ATOM      9  C   UNL     1      36.055 -22.822 -15.810  0.00  0.00    +0.279 C 
ATOM     10  C   UNL     1      37.250 -24.542 -12.988  0.00  0.00    +0.203 C 
ATOM     11  C   UNL     1      38.389 -24.349 -13.795  0.00  0.00    +0.116 C 
ATOM     12  H   UNL     1      32.387 -22.526 -14.958  0.00  0.00    +0.160 HD
ATOM     13  H   UNL     1      37.683 -22.548 -16.959  0.00  0.00    +0.156 HD
ENDROOT
BRANCH   5  14
ATOM     14  C   UNL     1      36.162 -21.689 -18.006  0.00  0.00    +0.051 C 
ATOM     15  C   UNL     1      34.824 -21.890 -18.348  0.00  0.00    +0.015 C 
ATOM     16  C   UNL     1      36.946 -20.807 -18.749  0.00  0.00    +0.015 C 
ATOM     17  C   UNL     1      34.271 -21.210 -19.432  0.00  0.00    +0.001 C 
ATOM     18  C   UNL     1      36.392 -20.126 -19.833  0.00  0.00    +0.001 C 
ATOM     19  C   UNL     1      35.055 -20.327 -20.175  0.00  0.00    +0.000 C 
ENDBRANCH   5  14
BRANCH  10  21
ATOM     20  N   UNL     1      37.080 -25.710 -10.692  0.00  0.00    -0.195 NA
ATOM     21  C   UNL     1      37.157 -25.186 -11.725  0.00  0.00    +0.087 C 
ENDBRANCH  10  21
BRANCH   1  22
ATOM     22  C   UNL     1      32.164 -23.459 -13.096  0.00  0.00    +0.099 C 
BRANCH  22  23
ATOM     23  C   UNL     1      30.698 -23.684 -13.461  0.00  0.00    +0.020 C 
ATOM     24  C   UNL     1      30.244 -22.676 -14.525  0.00  0.00    +0.002 C 
ATOM     25  C   UNL     1      30.472 -25.124 -13.940  0.00  0.00    +0.002 C 
ATOM     26  C   UNL     1      28.795 -22.913 -14.946  0.00  0.00    +0.000 C 
ATOM     27  C   UNL     1      29.023 -25.357 -14.362  0.00  0.00    +0.000 C 
ATOM     28  C   UNL     1      28.573 -24.347 -15.414  0.00  0.00    +0.000 C 
ENDBRANCH  22  23
ENDBRANCH   1  22
TORSDOF 4
ENDMDL
MODEL 5
REMARK VINA RESULT:      -9.3      1.781      7.229
REMARK  Name = 24779675
REMARK  4 active torsions:
REMARK  status: ('A' for Active; 'I' for Inactive)
REMARK    1  A    between atoms: N_1  and  C_22
REMARK    2  A    between atoms: N_5  and  C_14
REMARK    3  A    between atoms: C_10  and  C_21
REMARK    4  A    between atoms: C_22  and  C_23
REMARK                            x       y       z     vdW  Elec       q    Type
REMARK                         _______ _______ _______ _____ _____    ______ ____
ROOT
ATOM      1  N   UNL     1      35.773 -23.441 -15.238  0.00  0.00    -0.259 N 
ATOM      2  N   UNL     1      35.462 -22.270 -17.190  0.00  0.00    -0.314 NA
ATOM      3  N   UNL     1      33.588 -23.198 -16.036  0.00  0.00    -0.295 NA
ATOM      4  N   UNL     1      33.258 -22.034 -17.979  0.00  0.00    -0.123 N 
ATOM      5  N   UNL     1      31.382 -22.938 -16.864  0.00  0.00    -0.274 N 
ATOM      6  N   UNL     1      32.503 -21.513 -18.962  0.00  0.00    -0.170 NA
ATOM      7  C   UNL     1      34.950 -22.948 -16.187  0.00  0.00    +0.203 C 
ATOM      8  C   UNL     1      34.595 -21.797 -18.114  0.00  0.00    +0.219 C 
ATOM      9  C   UNL     1      32.737 -22.753 -16.914  0.00  0.00    +0.279 C 
ATOM     10  C   UNL     1      34.723 -21.064 -19.272  0.00  0.00    +0.203 C 
ATOM     11  C   UNL     1      33.405 -20.920 -19.750  0.00  0.00    +0.116 C 
ATOM     12  H   UNL     1      35.378 -23.947 -14.492  0.00  0.00    +0.160 HD
ATOM     13  H   UNL     1      30.857 -22.545 -17.598  0.00  0.00    +0.156 HD
ENDROOT
BRANCH   5  14
ATOM     14  C   UNL     1      30.666 -23.626 -15.883  0.00  0.00    +0.051 C 
ATOM     15  C   UNL     1      29.294 -23.828 -16.035  0.00  0.00    +0.015 C 
ATOM     16  C   UNL     1      31.322 -24.110 -14.752  0.00  0.00    +0.015 C 
ATOM     17  C   UNL     1      28.577 -24.514 -15.054  0.00  0.00    +0.001 C 
ATOM     18  C   UNL     1      30.605 -24.797 -13.771  0.00  0.00    +0.001 C 
ATOM     19  C   UNL     1      29.234 -24.999 -13.922  0.00  0.00    +0.000 C 
ENDBRANCH   5  14
BRANCH  10  21
ATOM     20  N   UNL     1      36.916 -20.173 -20.302  0.00  0.00    -0.195 NA
ATOM     21  C   UNL     1      35.930 -20.574 -19.840  0.00  0.00    +0.087 C 
ENDBRANCH  10  21
BRANCH   1  22
ATOM     22  C   UNL     1      37.201 -23.262 -15.263  0.00  0.00    +0.099 C 
BRANCH  22  23
ATOM     23  C   UNL     1      37.822 -23.911 -14.027  0.00  0.00    +0.020 C 
ATOM     24  C   UNL     1      37.201 -23.340 -12.746  0.00  0.00    +0.002 C 
ATOM     25  C   UNL     1      37.664 -25.436 -14.078  0.00  0.00    +0.002 C 
ATOM     26  C   UNL     1      37.768 -24.011 -11.496  0.00  0.00    +0.000 C 
ATOM     27  C   UNL     1      38.230 -26.104 -12.827  0.00  0.00    +0.000 C 
ATOM     28  C   UNL     1      37.617 -25.528 -11.554  0.00  0.00    +0.000 C 
ENDBRANCH  22  23
ENDBRANCH   1  22
TORSDOF 4
ENDMDL
MODEL 6
REMARK VINA RESULT:      -9.0      2.157      7.528
REMARK  Name = 24779675
REMARK  4 active torsions:
REMARK  status: ('A' for Active; 'I' for Inactive)
REMARK    1  A    between atoms: N_1  and  C_22
REMARK    2  A    between atoms: N_5  and  C_14
REMARK    3  A    between atoms: C_10  and  C_21
REMARK    4  A    between atoms: C_22  and  C_23
REMARK                            x       y       z     vdW  Elec       q    Type
REMARK                         _______ _______ _______ _____ _____    ______ ____
ROOT
ATOM      1  N   UNL     1      32.363 -22.800 -17.354  0.00  0.00    -0.259 N 
ATOM      2  N   UNL     1      34.254 -23.189 -16.108  0.00  0.00    -0.314 NA
ATOM      3  N   UNL     1      34.367 -21.827 -18.066  0.00  0.00    -0.295 NA
ATOM      4  N   UNL     1      36.262 -22.203 -16.837  0.00  0.00    -0.123 N 
ATOM      5  N   UNL     1      36.411 -20.850 -18.767  0.00  0.00    -0.274 N 
ATOM      6  N   UNL     1      37.572 -22.069 -16.565  0.00  0.00    -0.170 NA
ATOM      7  C   UNL     1      33.684 -22.619 -17.147  0.00  0.00    +0.203 C 
ATOM      8  C   UNL     1      35.580 -22.977 -15.944  0.00  0.00    +0.219 C 
ATOM      9  C   UNL     1      35.643 -21.611 -17.927  0.00  0.00    +0.279 C 
ATOM     10  C   UNL     1      36.515 -23.379 -15.017  0.00  0.00    +0.203 C 
ATOM     11  C   UNL     1      37.720 -22.790 -15.449  0.00  0.00    +0.116 C 
ATOM     12  H   UNL     1      31.949 -22.368 -18.135  0.00  0.00    +0.160 HD
ATOM     13  H   UNL     1      37.366 -20.772 -18.541  0.00  0.00    +0.156 HD
ENDROOT
BRANCH   5  14
ATOM     14  C   UNL     1      35.983 -20.174 -19.911  0.00  0.00    +0.051 C 
ATOM     15  C   UNL     1      36.851 -19.305 -20.573  0.00  0.00    +0.015 C 
ATOM     16  C   UNL     1      34.688 -20.366 -20.392  0.00  0.00    +0.015 C 
ATOM     17  C   UNL     1      36.424 -18.628 -21.715  0.00  0.00    +0.001 C 
ATOM     18  C   UNL     1      34.261 -19.689 -21.534  0.00  0.00    +0.001 C 
ATOM     19  C   UNL     1      35.128 -18.820 -22.196  0.00  0.00    +0.000 C 
ENDBRANCH   5  14
BRANCH  10  21
ATOM     20  N   UNL     1      36.104 -24.881 -12.958  0.00  0.00    -0.195 NA
ATOM     21  C   UNL     1      36.288 -24.205 -13.884  0.00  0.00    +0.087 C 
ENDBRANCH  10  21
BRANCH   1  22
ATOM     22  C   UNL     1      31.531 -23.593 -16.489  0.00  0.00    +0.099 C 
BRANCH  22  23
ATOM     23  C   UNL     1      30.266 -22.813 -16.135  0.00  0.00    +0.020 C 
ATOM     24  C   UNL     1      29.054 -23.376 -16.890  0.00  0.00    +0.002 C 
ATOM     25  C   UNL     1      30.023 -22.831 -14.620  0.00  0.00    +0.002 C 
ATOM     26  C   UNL     1      27.766 -22.647 -16.513  0.00  0.00    +0.000 C 
ATOM     27  C   UNL     1      28.734 -22.103 -14.247  0.00  0.00    +0.000 C 
ATOM     28  C   UNL     1      27.532 -22.659 -15.006  0.00  0.00    +0.000 C 
ENDBRANCH  22  23
ENDBRANCH   1  22
TORSDOF 4
ENDMDL
