MODEL 1
REMARK VINA RESULT:     -11.8      0.000      0.000
REMARK  Name = 44814409
REMARK  5 active torsions:
REMARK  status: ('A' for Active; 'I' for Inactive)
REMARK    1  A    between atoms: N_2  and  C_22
REMARK    2  A    between atoms: C_3  and  C_7
REMARK    3  A    between atoms: C_9  and  C_14
REMARK    4  A    between atoms: C_21  and  C_26
REMARK    5  A    between atoms: C_29  and  N_33
REMARK                            x       y       z     vdW  Elec       q    Type
REMARK                         _______ _______ _______ _____ _____    ______ ____
ROOT
ATOM      1  O   UNL     1      32.345 -21.644 -19.630  0.00  0.00    -0.267 OA
ATOM      2  N   UNL     1      33.480 -21.997 -17.601  0.00  0.00    -0.278 N 
ATOM      3  C   UNL     1      33.346 -21.560 -18.926  0.00  0.00    +0.275 C 
ATOM      4  H   UNL     1      34.360 -21.849 -17.185  0.00  0.00    +0.155 HD
ENDROOT
BRANCH   3   7
ATOM      5  F   UNL     1      37.742 -19.030 -21.186  0.00  0.00    -0.202 F 
ATOM      6  N   UNL     1      34.310 -19.972 -20.453  0.00  0.00    -0.399 NA
ATOM      7  C   UNL     1      34.549 -20.907 -19.506  0.00  0.00    +0.167 C 
ATOM      8  C   UNL     1      35.815 -21.267 -19.073  0.00  0.00    +0.092 C 
ATOM      9  C   UNL     1      35.395 -19.369 -20.988  0.00  0.00    +0.162 C 
ATOM     10  C   UNL     1      36.906 -20.625 -19.649  0.00  0.00    +0.014 C 
ATOM     11  C   UNL     1      36.700 -19.656 -20.625  0.00  0.00    +0.166 C 
BRANCH   9  14
ATOM     12  F   UNL     1      35.388 -16.625 -20.410  0.00  0.00    -0.204 F 
ATOM     13  F   UNL     1      34.796 -20.069 -23.637  0.00  0.00    -0.204 F 
ATOM     14  C   UNL     1      35.101 -18.375 -21.994  0.00  0.00    +0.087 C 
ATOM     15  C   UNL     1      35.109 -17.022 -21.661  0.00  0.00    +0.145 C 
ATOM     16  C   UNL     1      34.809 -18.771 -23.300  0.00  0.00    +0.145 C 
ATOM     17  C   UNL     1      34.826 -16.062 -22.633  0.00  0.00    +0.030 C 
ATOM     18  C   UNL     1      34.526 -17.812 -24.273  0.00  0.00    +0.030 C 
ATOM     19  C   UNL     1      34.533 -16.457 -23.938  0.00  0.00    +0.005 C 
ENDBRANCH   9  14
ENDBRANCH   3   7
BRANCH   2  22
ATOM     20  N   UNL     1      30.179 -22.948 -16.297  0.00  0.00    -0.241 NA
ATOM     21  C   UNL     1      32.872 -23.470 -15.760  0.00  0.00    -0.006 C 
ATOM     22  C   UNL     1      32.521 -22.615 -16.799  0.00  0.00    +0.066 C 
ATOM     23  C   UNL     1      31.879 -24.064 -14.990  0.00  0.00    +0.018 C 
ATOM     24  C   UNL     1      31.173 -22.389 -17.025  0.00  0.00    +0.113 C 
ATOM     25  C   UNL     1      30.560 -23.773 -15.296  0.00  0.00    +0.099 C 
BRANCH  21  26
ATOM     26  C   UNL     1      34.305 -23.767 -15.453  0.00  0.00    +0.022 C 
ATOM     27  C   UNL     1      35.922 -24.444 -13.612  0.00  0.00    -0.002 C 
ATOM     28  C   UNL     1      34.453 -24.190 -13.979  0.00  0.00    +0.004 C 
ATOM     29  C   UNL     1      36.646 -22.795 -15.399  0.00  0.00    -0.065 C 
ATOM     30  C   UNL     1      35.178 -22.538 -15.763  0.00  0.00    -0.017 C 
ATOM     31  C   UNL     1      36.786 -23.215 -13.931  0.00  0.00    -0.022 C 
ATOM     32  C   UNL     1      36.049 -24.824 -12.137  0.00  0.00    -0.000 C 
BRANCH  29  33
ATOM     33  N   UNL     1      37.437 -21.592 -15.648  0.00  0.00    +0.382 N 
ATOM     34  H   UNL     1      37.032 -21.073 -16.427  0.00  0.00    -0.089 HD
ATOM     35  H   UNL     1      38.396 -21.856 -15.878  0.00  0.00    -0.089 HD
ATOM     36  H   UNL     1      37.437 -21.005 -14.813  0.00  0.00    -0.089 HD
ENDBRANCH  29  33
ENDBRANCH  21  26
ENDBRANCH   2  22
TORSDOF 5
ENDMDL
MODEL 2
REMARK VINA RESULT:     -11.8      0.015      1.464
REMARK  Name = 44814409
REMARK  5 active torsions:
REMARK  status: ('A' for Active; 'I' for Inactive)
REMARK    1  A    between atoms: N_2  and  C_22
REMARK    2  A    between atoms: C_3  and  C_7
REMARK    3  A    between atoms: C_9  and  C_14
REMARK    4  A    between atoms: C_21  and  C_26
REMARK    5  A    between atoms: C_29  and  N_33
REMARK                            x       y       z     vdW  Elec       q    Type
REMARK                         _______ _______ _______ _____ _____    ______ ____
ROOT
ATOM      1  O   UNL     1      32.344 -21.641 -19.618  0.00  0.00    -0.267 OA
ATOM      2  N   UNL     1      33.485 -22.010 -17.595  0.00  0.00    -0.278 N 
ATOM      3  C   UNL     1      33.347 -21.565 -18.917  0.00  0.00    +0.275 C 
ATOM      4  H   UNL     1      34.367 -21.867 -17.181  0.00  0.00    +0.155 HD
ENDROOT
BRANCH   3   7
ATOM      5  F   UNL     1      37.745 -19.039 -21.180  0.00  0.00    -0.202 F 
ATOM      6  N   UNL     1      34.312 -19.978 -20.444  0.00  0.00    -0.399 NA
ATOM      7  C   UNL     1      34.551 -20.914 -19.498  0.00  0.00    +0.167 C 
ATOM      8  C   UNL     1      35.817 -21.275 -19.066  0.00  0.00    +0.092 C 
ATOM      9  C   UNL     1      35.397 -19.376 -20.980  0.00  0.00    +0.162 C 
ATOM     10  C   UNL     1      36.908 -20.634 -19.643  0.00  0.00    +0.014 C 
ATOM     11  C   UNL     1      36.703 -19.665 -20.618  0.00  0.00    +0.166 C 
BRANCH   9  14
ATOM     12  F   UNL     1      34.803 -20.073 -23.630  0.00  0.00    -0.204 F 
ATOM     13  F   UNL     1      35.389 -16.632 -20.400  0.00  0.00    -0.204 F 
ATOM     14  C   UNL     1      35.104 -18.381 -21.986  0.00  0.00    +0.087 C 
ATOM     15  C   UNL     1      34.814 -18.775 -23.292  0.00  0.00    +0.145 C 
ATOM     16  C   UNL     1      35.111 -17.027 -21.650  0.00  0.00    +0.145 C 
ATOM     17  C   UNL     1      34.530 -17.815 -24.263  0.00  0.00    +0.030 C 
ATOM     18  C   UNL     1      34.828 -16.066 -22.621  0.00  0.00    +0.030 C 
ATOM     19  C   UNL     1      34.538 -16.461 -23.928  0.00  0.00    +0.005 C 
ENDBRANCH   9  14
ENDBRANCH   3   7
BRANCH   2  22
ATOM     20  N   UNL     1      30.185 -22.963 -16.290  0.00  0.00    -0.241 NA
ATOM     21  C   UNL     1      32.879 -23.483 -15.755  0.00  0.00    -0.006 C 
ATOM     22  C   UNL     1      32.526 -22.628 -16.793  0.00  0.00    +0.066 C 
ATOM     23  C   UNL     1      31.886 -24.078 -14.984  0.00  0.00    +0.018 C 
ATOM     24  C   UNL     1      31.178 -22.403 -17.018  0.00  0.00    +0.113 C 
ATOM     25  C   UNL     1      30.566 -23.788 -15.290  0.00  0.00    +0.099 C 
BRANCH  21  26
ATOM     26  C   UNL     1      34.311 -23.780 -15.447  0.00  0.00    +0.022 C 
ATOM     27  C   UNL     1      35.932 -24.442 -13.604  0.00  0.00    -0.002 C 
ATOM     28  C   UNL     1      34.462 -24.189 -13.971  0.00  0.00    +0.004 C 
ATOM     29  C   UNL     1      36.654 -22.811 -15.408  0.00  0.00    -0.065 C 
ATOM     30  C   UNL     1      35.186 -22.555 -15.771  0.00  0.00    -0.017 C 
ATOM     31  C   UNL     1      36.797 -23.217 -13.937  0.00  0.00    -0.022 C 
ATOM     32  C   UNL     1      36.061 -24.809 -12.126  0.00  0.00    -0.000 C 
BRANCH  29  33
ATOM     33  N   UNL     1      37.446 -21.611 -15.670  0.00  0.00    +0.382 N 
ATOM     34  H   UNL     1      36.978 -20.799 -15.268  0.00  0.00    -0.089 HD
ATOM     35  H   UNL     1      37.544 -21.482 -16.678  0.00  0.00    -0.089 HD
ATOM     36  H   UNL     1      38.369 -21.714 -15.250  0.00  0.00    -0.089 HD
ENDBRANCH  29  33
ENDBRANCH  21  26
ENDBRANCH   2  22
TORSDOF 5
ENDMDL
MODEL 3
REMARK VINA RESULT:     -11.4      4.616      8.948
REMARK  Name = 44814409
REMARK  5 active torsions:
REMARK  status: ('A' for Active; 'I' for Inactive)
REMARK    1  A    between atoms: N_2  and  C_22
REMARK    2  A    between atoms: C_3  and  C_7
REMARK    3  A    between atoms: C_9  and  C_14
REMARK    4  A    between atoms: C_21  and  C_26
REMARK    5  A    between atoms: C_29  and  N_33
REMARK                            x       y       z     vdW  Elec       q    Type
REMARK                         _______ _______ _______ _____ _____    ______ ____
ROOT
ATOM      1  O   UNL     1      37.324 -21.433 -15.595  0.00  0.00    -0.267 OA
ATOM      2  N   UNL     1      35.625 -22.945 -16.192  0.00  0.00    -0.278 N 
ATOM      3  C   UNL     1      36.696 -22.472 -15.422  0.00  0.00    +0.275 C 
ATOM      4  H   UNL     1      35.235 -23.804 -15.908  0.00  0.00    +0.155 HD
ENDROOT
BRANCH   3   7
ATOM      5  F   UNL     1      38.172 -25.760 -11.197  0.00  0.00    -0.202 F 
ATOM      6  N   UNL     1      37.721 -24.471 -14.565  0.00  0.00    -0.399 NA
ATOM      7  C   UNL     1      37.073 -23.324 -14.263  0.00  0.00    +0.167 C 
ATOM      8  C   UNL     1      36.758 -22.927 -12.973  0.00  0.00    +0.092 C 
ATOM      9  C   UNL     1      38.071 -25.255 -13.521  0.00  0.00    +0.162 C 
ATOM     10  C   UNL     1      37.135 -23.761 -11.926  0.00  0.00    +0.014 C 
ATOM     11  C   UNL     1      37.804 -24.949 -12.196  0.00  0.00    +0.166 C 
BRANCH   9  14
ATOM     12  F   UNL     1      36.762 -27.733 -13.627  0.00  0.00    -0.204 F 
ATOM     13  F   UNL     1      40.803 -25.280 -14.155  0.00  0.00    -0.204 F 
ATOM     14  C   UNL     1      38.763 -26.471 -13.881  0.00  0.00    +0.087 C 
ATOM     15  C   UNL     1      38.071 -27.681 -13.920  0.00  0.00    +0.145 C 
ATOM     16  C   UNL     1      40.123 -26.435 -14.189  0.00  0.00    +0.145 C 
ATOM     17  C   UNL     1      38.739 -28.856 -14.269  0.00  0.00    +0.030 C 
ATOM     18  C   UNL     1      40.791 -27.609 -14.537  0.00  0.00    +0.030 C 
ATOM     19  C   UNL     1      40.098 -28.819 -14.576  0.00  0.00    +0.005 C 
ENDBRANCH   9  14
ENDBRANCH   3   7
BRANCH   2  22
ATOM     20  N   UNL     1      35.350 -21.086 -19.349  0.00  0.00    -0.241 NA
ATOM     21  C   UNL     1      33.672 -22.399 -17.539  0.00  0.00    -0.006 C 
ATOM     22  C   UNL     1      35.043 -22.350 -17.311  0.00  0.00    +0.066 C 
ATOM     23  C   UNL     1      33.139 -21.792 -18.670  0.00  0.00    +0.018 C 
ATOM     24  C   UNL     1      35.831 -21.688 -18.238  0.00  0.00    +0.113 C 
ATOM     25  C   UNL     1      34.012 -21.155 -19.537  0.00  0.00    +0.099 C 
BRANCH  21  26
ATOM     26  C   UNL     1      32.753 -23.096 -16.588  0.00  0.00    +0.022 C 
ATOM     27  C   UNL     1      30.352 -23.231 -15.764  0.00  0.00    -0.002 C 
ATOM     28  C   UNL     1      31.313 -22.580 -16.769  0.00  0.00    +0.004 C 
ATOM     29  C   UNL     1      32.274 -23.543 -14.138  0.00  0.00    -0.065 C 
ATOM     30  C   UNL     1      33.234 -22.889 -15.140  0.00  0.00    -0.017 C 
ATOM     31  C   UNL     1      30.843 -23.024 -14.324  0.00  0.00    -0.022 C 
ATOM     32  C   UNL     1      28.938 -22.675 -15.936  0.00  0.00    -0.000 C 
BRANCH  29  33
ATOM     33  N   UNL     1      32.725 -23.278 -12.774  0.00  0.00    +0.382 N 
ATOM     34  H   UNL     1      32.980 -24.156 -12.323  0.00  0.00    -0.089 HD
ATOM     35  H   UNL     1      31.973 -22.831 -12.248  0.00  0.00    -0.089 HD
ATOM     36  H   UNL     1      33.536 -22.660 -12.798  0.00  0.00    -0.089 HD
ENDBRANCH  29  33
ENDBRANCH  21  26
ENDBRANCH   2  22
TORSDOF 5
ENDMDL
MODEL 4
REMARK VINA RESULT:     -10.8      4.528      8.651
REMARK  Name = 44814409
REMARK  5 active torsions:
REMARK  status: ('A' for Active; 'I' for Inactive)
REMARK    1  A    between atoms: N_2  and  C_22
REMARK    2  A    between atoms: C_3  and  C_7
REMARK    3  A    between atoms: C_9  and  C_14
REMARK    4  A    between atoms: C_21  and  C_26
REMARK    5  A    between atoms: C_29  and  N_33
REMARK                            x       y       z     vdW  Elec       q    Type
REMARK                         _______ _______ _______ _____ _____    ______ ____
ROOT
ATOM      1  O   UNL     1      33.391 -24.645 -12.328  0.00  0.00    -0.267 OA
ATOM      2  N   UNL     1      33.981 -23.336 -14.191  0.00  0.00    -0.278 N 
ATOM      3  C   UNL     1      34.221 -24.050 -13.009  0.00  0.00    +0.275 C 
ATOM      4  H   UNL     1      34.769 -22.919 -14.610  0.00  0.00    +0.155 HD
ENDROOT
BRANCH   3   7
ATOM      5  F   UNL     1      39.550 -24.357 -11.477  0.00  0.00    -0.202 F 
ATOM      6  N   UNL     1      36.403 -25.048 -13.159  0.00  0.00    -0.399 NA
ATOM      7  C   UNL     1      35.640 -24.100 -12.571  0.00  0.00    +0.167 C 
ATOM      8  C   UNL     1      36.107 -23.210 -11.616  0.00  0.00    +0.092 C 
ATOM      9  C   UNL     1      37.697 -25.103 -12.772  0.00  0.00    +0.162 C 
ATOM     10  C   UNL     1      37.444 -23.300 -11.243  0.00  0.00    +0.014 C 
ATOM     11  C   UNL     1      38.261 -24.261 -11.827  0.00  0.00    +0.166 C 
BRANCH   9  14
ATOM     12  F   UNL     1      37.509 -27.805 -12.045  0.00  0.00    -0.204 F 
ATOM     13  F   UNL     1      39.500 -24.508 -14.836  0.00  0.00    -0.204 F 
ATOM     14  C   UNL     1      38.482 -26.127 -13.422  0.00  0.00    +0.087 C 
ATOM     15  C   UNL     1      38.355 -27.458 -13.027  0.00  0.00    +0.145 C 
ATOM     16  C   UNL     1      39.366 -25.783 -14.445  0.00  0.00    +0.145 C 
ATOM     17  C   UNL     1      39.113 -28.447 -13.656  0.00  0.00    +0.030 C 
ATOM     18  C   UNL     1      40.124 -26.772 -15.073  0.00  0.00    +0.030 C 
ATOM     19  C   UNL     1      39.997 -28.103 -14.677  0.00  0.00    +0.005 C 
ENDBRANCH   9  14
ENDBRANCH   3   7
BRANCH   2  22
ATOM     20  N   UNL     1      30.357 -22.993 -14.692  0.00  0.00    -0.241 NA
ATOM     21  C   UNL     1      32.699 -22.918 -16.217  0.00  0.00    -0.006 C 
ATOM     22  C   UNL     1      32.765 -23.144 -14.847  0.00  0.00    +0.066 C 
ATOM     23  C   UNL     1      31.463 -22.729 -16.826  0.00  0.00    +0.018 C 
ATOM     24  C   UNL     1      31.577 -23.171 -14.136  0.00  0.00    +0.113 C 
ATOM     25  C   UNL     1      30.333 -22.775 -16.026  0.00  0.00    +0.099 C 
BRANCH  21  26
ATOM     26  C   UNL     1      33.936 -22.872 -17.056  0.00  0.00    +0.022 C 
ATOM     27  C   UNL     1      36.413 -22.302 -17.050  0.00  0.00    -0.002 C 
ATOM     28  C   UNL     1      35.136 -22.419 -16.205  0.00  0.00    +0.004 C 
ATOM     29  C   UNL     1      35.001 -21.818 -19.101  0.00  0.00    -0.065 C 
ATOM     30  C   UNL     1      33.726 -21.931 -18.256  0.00  0.00    -0.017 C 
ATOM     31  C   UNL     1      36.192 -21.367 -18.248  0.00  0.00    -0.022 C 
ATOM     32  C   UNL     1      37.581 -21.814 -16.194  0.00  0.00    -0.000 C 
BRANCH  29  33
ATOM     33  N   UNL     1      34.789 -20.873 -20.196  0.00  0.00    +0.382 N 
ATOM     34  H   UNL     1      33.808 -20.891 -20.475  0.00  0.00    -0.089 HD
ATOM     35  H   UNL     1      35.373 -21.136 -20.990  0.00  0.00    -0.089 HD
ATOM     36  H   UNL     1      35.037 -19.934 -19.887  0.00  0.00    -0.089 HD
ENDBRANCH  29  33
ENDBRANCH  21  26
ENDBRANCH   2  22
TORSDOF 5
ENDMDL
MODEL 5
REMARK VINA RESULT:     -10.2      4.933      8.936
REMARK  Name = 44814409
REMARK  5 active torsions:
REMARK  status: ('A' for Active; 'I' for Inactive)
REMARK    1  A    between atoms: N_2  and  C_22
REMARK    2  A    between atoms: C_3  and  C_7
REMARK    3  A    between atoms: C_9  and  C_14
REMARK    4  A    between atoms: C_21  and  C_26
REMARK    5  A    between atoms: C_29  and  N_33
REMARK                            x       y       z     vdW  Elec       q    Type
REMARK                         _______ _______ _______ _____ _____    ______ ____
ROOT
ATOM      1  O   UNL     1      34.833 -23.956 -11.369  0.00  0.00    -0.267 OA
ATOM      2  N   UNL     1      34.432 -24.240 -13.669  0.00  0.00    -0.278 N 
ATOM      3  C   UNL     1      35.206 -24.247 -12.501  0.00  0.00    +0.275 C 
ATOM      4  H   UNL     1      34.896 -24.505 -14.496  0.00  0.00    +0.155 HD
ENDROOT
BRANCH   3   7
ATOM      5  F   UNL     1      40.422 -26.009 -13.228  0.00  0.00    -0.202 F 
ATOM      6  N   UNL     1      36.793 -25.847 -13.340  0.00  0.00    -0.399 NA
ATOM      7  C   UNL     1      36.616 -24.685 -12.674  0.00  0.00    +0.167 C 
ATOM      8  C   UNL     1      37.652 -23.916 -12.166  0.00  0.00    +0.092 C 
ATOM      9  C   UNL     1      38.071 -26.256 -13.506  0.00  0.00    +0.162 C 
ATOM     10  C   UNL     1      38.952 -24.370 -12.357  0.00  0.00    +0.014 C 
ATOM     11  C   UNL     1      39.174 -25.561 -13.038  0.00  0.00    +0.166 C 
BRANCH   9  14
ATOM     12  F   UNL     1      39.499 -26.422 -15.913  0.00  0.00    -0.204 F 
ATOM     13  F   UNL     1      36.951 -28.652 -12.573  0.00  0.00    -0.204 F 
ATOM     14  C   UNL     1      38.221 -27.501 -14.222  0.00  0.00    +0.087 C 
ATOM     15  C   UNL     1      38.940 -27.536 -15.417  0.00  0.00    +0.145 C 
ATOM     16  C   UNL     1      37.646 -28.669 -13.719  0.00  0.00    +0.145 C 
ATOM     17  C   UNL     1      39.085 -28.739 -16.108  0.00  0.00    +0.030 C 
ATOM     18  C   UNL     1      37.791 -29.872 -14.411  0.00  0.00    +0.030 C 
ATOM     19  C   UNL     1      38.510 -29.906 -15.606  0.00  0.00    +0.005 C 
ENDBRANCH   9  14
ENDBRANCH   3   7
BRANCH   2  22
ATOM     20  N   UNL     1      30.918 -23.670 -12.758  0.00  0.00    -0.241 NA
ATOM     21  C   UNL     1      32.552 -23.485 -15.019  0.00  0.00    -0.006 C 
ATOM     22  C   UNL     1      33.085 -23.904 -13.805  0.00  0.00    +0.066 C 
ATOM     23  C   UNL     1      31.203 -23.158 -15.104  0.00  0.00    +0.018 C 
ATOM     24  C   UNL     1      32.234 -23.978 -12.714  0.00  0.00    +0.113 C 
ATOM     25  C   UNL     1      30.436 -23.266 -13.955  0.00  0.00    +0.099 C 
BRANCH  21  26
ATOM     26  C   UNL     1      33.404 -23.376 -16.243  0.00  0.00    +0.022 C 
ATOM     27  C   UNL     1      35.603 -22.485 -17.154  0.00  0.00    -0.002 C 
ATOM     28  C   UNL     1      34.729 -22.668 -15.905  0.00  0.00    +0.004 C 
ATOM     29  C   UNL     1      33.519 -22.445 -18.598  0.00  0.00    -0.065 C 
ATOM     30  C   UNL     1      32.644 -22.623 -17.350  0.00  0.00    -0.017 C 
ATOM     31  C   UNL     1      34.835 -21.739 -18.255  0.00  0.00    -0.022 C 
ATOM     32  C   UNL     1      36.894 -21.746 -16.801  0.00  0.00    -0.000 C 
BRANCH  29  33
ATOM     33  N   UNL     1      32.792 -21.676 -19.606  0.00  0.00    +0.382 N 
ATOM     34  H   UNL     1      31.789 -21.827 -19.492  0.00  0.00    -0.089 HD
ATOM     35  H   UNL     1      33.077 -21.981 -20.538  0.00  0.00    -0.089 HD
ATOM     36  H   UNL     1      33.001 -20.684 -19.494  0.00  0.00    -0.089 HD
ENDBRANCH  29  33
ENDBRANCH  21  26
ENDBRANCH   2  22
TORSDOF 5
ENDMDL
MODEL 6
REMARK VINA RESULT:      -9.9      4.331      8.588
REMARK  Name = 44814409
REMARK  5 active torsions:
REMARK  status: ('A' for Active; 'I' for Inactive)
REMARK    1  A    between atoms: N_2  and  C_22
REMARK    2  A    between atoms: C_3  and  C_7
REMARK    3  A    between atoms: C_9  and  C_14
REMARK    4  A    between atoms: C_21  and  C_26
REMARK    5  A    between atoms: C_29  and  N_33
REMARK                            x       y       z     vdW  Elec       q    Type
REMARK                         _______ _______ _______ _____ _____    ______ ____
ROOT
ATOM      1  O   UNL     1      37.563 -20.717 -16.353  0.00  0.00    -0.267 OA
ATOM      2  N   UNL     1      36.226 -22.446 -17.223  0.00  0.00    -0.278 N 
ATOM      3  C   UNL     1      37.213 -21.892 -16.395  0.00  0.00    +0.275 C 
ATOM      4  H   UNL     1      36.074 -23.413 -17.123  0.00  0.00    +0.155 HD
ENDROOT
BRANCH   3   7
ATOM      5  F   UNL     1      39.551 -25.420 -12.800  0.00  0.00    -0.202 F 
ATOM      6  N   UNL     1      37.272 -22.994 -14.259  0.00  0.00    -0.399 NA
ATOM      7  C   UNL     1      37.870 -22.844 -15.462  0.00  0.00    +0.167 C 
ATOM      8  C   UNL     1      39.022 -23.513 -15.845  0.00  0.00    +0.092 C 
ATOM      9  C   UNL     1      37.858 -23.858 -13.401  0.00  0.00    +0.162 C 
ATOM     10  C   UNL     1      39.596 -24.393 -14.934  0.00  0.00    +0.014 C 
ATOM     11  C   UNL     1      39.009 -24.575 -13.687  0.00  0.00    +0.166 C 
BRANCH   9  14
ATOM     12  F   UNL     1      36.331 -26.120 -12.756  0.00  0.00    -0.204 F 
ATOM     13  F   UNL     1      38.013 -21.875 -11.425  0.00  0.00    -0.204 F 
ATOM     14  C   UNL     1      37.191 -23.993 -12.127  0.00  0.00    +0.087 C 
ATOM     15  C   UNL     1      36.442 -25.136 -11.850  0.00  0.00    +0.145 C 
ATOM     16  C   UNL     1      37.297 -22.981 -11.173  0.00  0.00    +0.145 C 
ATOM     17  C   UNL     1      35.799 -25.267 -10.619  0.00  0.00    +0.030 C 
ATOM     18  C   UNL     1      36.654 -23.110  -9.943  0.00  0.00    +0.030 C 
ATOM     19  C   UNL     1      35.904 -24.254  -9.666  0.00  0.00    +0.005 C 
ENDBRANCH   9  14
ENDBRANCH   3   7
BRANCH   2  22
ATOM     20  N   UNL     1      35.323 -20.300 -20.066  0.00  0.00    -0.241 NA
ATOM     21  C   UNL     1      34.054 -21.953 -18.203  0.00  0.00    -0.006 C 
ATOM     22  C   UNL     1      35.434 -21.795 -18.169  0.00  0.00    +0.066 C 
ATOM     23  C   UNL     1      33.306 -21.285 -19.167  0.00  0.00    +0.018 C 
ATOM     24  C   UNL     1      36.016 -20.966 -19.114  0.00  0.00    +0.113 C 
ATOM     25  C   UNL     1      33.983 -20.478 -20.067  0.00  0.00    +0.099 C 
BRANCH  21  26
ATOM     26  C   UNL     1      33.349 -22.831 -17.219  0.00  0.00    +0.022 C 
ATOM     27  C   UNL     1      31.122 -23.280 -16.078  0.00  0.00    -0.002 C 
ATOM     28  C   UNL     1      31.863 -22.437 -17.126  0.00  0.00    +0.004 C 
ATOM     29  C   UNL     1      33.291 -23.582 -14.798  0.00  0.00    -0.065 C 
ATOM     30  C   UNL     1      34.032 -22.736 -15.842  0.00  0.00    -0.017 C 
ATOM     31  C   UNL     1      31.814 -23.184 -14.710  0.00  0.00    -0.022 C 
ATOM     32  C   UNL     1      29.661 -22.845 -15.975  0.00  0.00    -0.000 C 
BRANCH  29  33
ATOM     33  N   UNL     1      33.927 -23.423 -13.492  0.00  0.00    +0.382 N 
ATOM     34  H   UNL     1      34.674 -22.733 -13.558  0.00  0.00    -0.089 HD
ATOM     35  H   UNL     1      34.316 -24.318 -13.192  0.00  0.00    -0.089 HD
ATOM     36  H   UNL     1      33.234 -23.110 -12.812  0.00  0.00    -0.089 HD
ENDBRANCH  29  33
ENDBRANCH  21  26
ENDBRANCH   2  22
TORSDOF 5
ENDMDL
MODEL 7
REMARK VINA RESULT:      -9.9      4.874      8.936
REMARK  Name = 44814409
REMARK  5 active torsions:
REMARK  status: ('A' for Active; 'I' for Inactive)
REMARK    1  A    between atoms: N_2  and  C_22
REMARK    2  A    between atoms: C_3  and  C_7
REMARK    3  A    between atoms: C_9  and  C_14
REMARK    4  A    between atoms: C_21  and  C_26
REMARK    5  A    between atoms: C_29  and  N_33
REMARK                            x       y       z     vdW  Elec       q    Type
REMARK                         _______ _______ _______ _____ _____    ______ ____
ROOT
ATOM      1  O   UNL     1      34.928 -26.146 -15.261  0.00  0.00    -0.267 OA
ATOM      2  N   UNL     1      34.587 -24.129 -14.100  0.00  0.00    -0.278 N 
ATOM      3  C   UNL     1      35.327 -25.233 -14.545  0.00  0.00    +0.275 C 
ATOM      4  H   UNL     1      35.070 -23.488 -13.529  0.00  0.00    +0.155 HD
ENDROOT
BRANCH   3   7
ATOM      5  F   UNL     1      40.656 -25.491 -13.003  0.00  0.00    -0.202 F 
ATOM      6  N   UNL     1      37.448 -26.365 -14.469  0.00  0.00    -0.399 NA
ATOM      7  C   UNL     1      36.749 -25.264 -14.113  0.00  0.00    +0.167 C 
ATOM      8  C   UNL     1      37.281 -24.207 -13.391  0.00  0.00    +0.092 C 
ATOM      9  C   UNL     1      38.742 -26.405 -14.083  0.00  0.00    +0.162 C 
ATOM     10  C   UNL     1      38.617 -24.286 -13.013  0.00  0.00    +0.014 C 
ATOM     11  C   UNL     1      39.369 -25.402 -13.361  0.00  0.00    +0.166 C 
BRANCH   9  14
ATOM     12  F   UNL     1      38.649 -28.769 -12.577  0.00  0.00    -0.204 F 
ATOM     13  F   UNL     1      40.307 -26.490 -16.409  0.00  0.00    -0.204 F 
ATOM     14  C   UNL     1      39.457 -27.596 -14.482  0.00  0.00    +0.087 C 
ATOM     15  C   UNL     1      39.381 -28.749 -13.702  0.00  0.00    +0.145 C 
ATOM     16  C   UNL     1      40.223 -27.591 -15.648  0.00  0.00    +0.145 C 
ATOM     17  C   UNL     1      40.071 -29.898 -14.087  0.00  0.00    +0.030 C 
ATOM     18  C   UNL     1      40.913 -28.741 -16.034  0.00  0.00    +0.030 C 
ATOM     19  C   UNL     1      40.837 -29.894 -15.252  0.00  0.00    +0.005 C 
ENDBRANCH   9  14
ENDBRANCH   3   7
BRANCH   2  22
ATOM     20  N   UNL     1      30.977 -23.718 -13.557  0.00  0.00    -0.241 NA
ATOM     21  C   UNL     1      32.841 -23.352 -15.607  0.00  0.00    -0.006 C 
ATOM     22  C   UNL     1      33.252 -23.826 -14.367  0.00  0.00    +0.066 C 
ATOM     23  C   UNL     1      31.499 -23.061 -15.824  0.00  0.00    +0.018 C 
ATOM     24  C   UNL     1      32.290 -23.989 -13.384  0.00  0.00    +0.113 C 
ATOM     25  C   UNL     1      30.615 -23.259 -14.776  0.00  0.00    +0.099 C 
BRANCH  21  26
ATOM     26  C   UNL     1      33.818 -23.146 -16.721  0.00  0.00    +0.022 C 
ATOM     27  C   UNL     1      36.080 -22.158 -17.325  0.00  0.00    -0.002 C 
ATOM     28  C   UNL     1      35.081 -22.440 -16.194  0.00  0.00    +0.004 C 
ATOM     29  C   UNL     1      34.164 -22.056 -18.984  0.00  0.00    -0.065 C 
ATOM     30  C   UNL     1      33.164 -22.334 -17.854  0.00  0.00    -0.017 C 
ATOM     31  C   UNL     1      35.418 -21.352 -18.452  0.00  0.00    -0.022 C 
ATOM     32  C   UNL     1      37.307 -21.422 -16.785  0.00  0.00    -0.000 C 
BRANCH  29  33
ATOM     33  N   UNL     1      33.532 -21.234 -20.013  0.00  0.00    +0.382 N 
ATOM     34  H   UNL     1      32.647 -21.657 -20.292  0.00  0.00    -0.089 HD
ATOM     35  H   UNL     1      34.149 -21.171 -20.824  0.00  0.00    -0.089 HD
ATOM     36  H   UNL     1      33.361 -20.299 -19.644  0.00  0.00    -0.089 HD
ENDBRANCH  29  33
ENDBRANCH  21  26
ENDBRANCH   2  22
TORSDOF 5
ENDMDL
MODEL 8
REMARK VINA RESULT:      -9.4      3.171      5.397
REMARK  Name = 44814409
REMARK  5 active torsions:
REMARK  status: ('A' for Active; 'I' for Inactive)
REMARK    1  A    between atoms: N_2  and  C_22
REMARK    2  A    between atoms: C_3  and  C_7
REMARK    3  A    between atoms: C_9  and  C_14
REMARK    4  A    between atoms: C_21  and  C_26
REMARK    5  A    between atoms: C_29  and  N_33
REMARK                            x       y       z     vdW  Elec       q    Type
REMARK                         _______ _______ _______ _____ _____    ______ ____
ROOT
ATOM      1  O   UNL     1      37.227 -21.715 -15.382  0.00  0.00    -0.267 OA
ATOM      2  N   UNL     1      36.192 -23.514 -14.277  0.00  0.00    -0.278 N 
ATOM      3  C   UNL     1      36.346 -22.564 -15.295  0.00  0.00    +0.275 C 
ATOM      4  H   UNL     1      35.424 -24.123 -14.367  0.00  0.00    +0.155 HD
ENDROOT
BRANCH   3   7
ATOM      5  F   UNL     1      32.661 -22.698 -19.448  0.00  0.00    -0.202 F 
ATOM      6  N   UNL     1      35.537 -21.786 -17.422  0.00  0.00    -0.399 NA
ATOM      7  C   UNL     1      35.337 -22.630 -16.386  0.00  0.00    +0.167 C 
ATOM      8  C   UNL     1      34.276 -23.517 -16.301  0.00  0.00    +0.092 C 
ATOM      9  C   UNL     1      34.628 -21.837 -18.421  0.00  0.00    +0.162 C 
ATOM     10  C   UNL     1      33.362 -23.539 -17.349  0.00  0.00    +0.014 C 
ATOM     11  C   UNL     1      33.534 -22.686 -18.433  0.00  0.00    +0.166 C 
BRANCH   9  14
ATOM     12  F   UNL     1      37.186 -21.481 -19.514  0.00  0.00    -0.204 F 
ATOM     13  F   UNL     1      32.577 -20.309 -19.572  0.00  0.00    -0.204 F 
ATOM     14  C   UNL     1      34.874 -20.922 -19.512  0.00  0.00    +0.087 C 
ATOM     15  C   UNL     1      36.164 -20.777 -20.023  0.00  0.00    +0.145 C 
ATOM     16  C   UNL     1      33.822 -20.183 -20.053  0.00  0.00    +0.145 C 
ATOM     17  C   UNL     1      36.401 -19.894 -21.077  0.00  0.00    +0.030 C 
ATOM     18  C   UNL     1      34.059 -19.299 -21.106  0.00  0.00    +0.030 C 
ATOM     19  C   UNL     1      35.349 -19.154 -21.617  0.00  0.00    +0.005 C 
ENDBRANCH   9  14
ENDBRANCH   3   7
BRANCH   2  22
ATOM     20  N   UNL     1      38.025 -22.744 -11.186  0.00  0.00    -0.241 NA
ATOM     21  C   UNL     1      37.548 -24.943 -12.846  0.00  0.00    -0.006 C 
ATOM     22  C   UNL     1      36.995 -23.705 -13.152  0.00  0.00    +0.066 C 
ATOM     23  C   UNL     1      38.339 -25.084 -11.712  0.00  0.00    +0.018 C 
ATOM     24  C   UNL     1      37.260 -22.647 -12.298  0.00  0.00    +0.113 C 
ATOM     25  C   UNL     1      38.545 -23.964 -10.922  0.00  0.00    +0.099 C 
BRANCH  21  26
ATOM     26  C   UNL     1      37.308 -26.135 -13.716  0.00  0.00    +0.022 C 
ATOM     27  C   UNL     1      36.989 -28.657 -13.718  0.00  0.00    -0.002 C 
ATOM     28  C   UNL     1      37.175 -27.403 -12.851  0.00  0.00    +0.004 C 
ATOM     29  C   UNL     1      38.258 -27.534 -15.604  0.00  0.00    -0.065 C 
ATOM     30  C   UNL     1      38.449 -26.282 -14.738  0.00  0.00    -0.017 C 
ATOM     31  C   UNL     1      38.129 -28.792 -14.738  0.00  0.00    -0.022 C 
ATOM     32  C   UNL     1      36.899 -29.906 -12.841  0.00  0.00    -0.000 C 
BRANCH  29  33
ATOM     33  N   UNL     1      39.387 -27.678 -16.522  0.00  0.00    +0.382 N 
ATOM     34  H   UNL     1      39.550 -28.667 -16.709  0.00  0.00    -0.089 HD
ATOM     35  H   UNL     1      40.222 -27.270 -16.100  0.00  0.00    -0.089 HD
ATOM     36  H   UNL     1      39.179 -27.196 -17.396  0.00  0.00    -0.089 HD
ENDBRANCH  29  33
ENDBRANCH  21  26
ENDBRANCH   2  22
TORSDOF 5
ENDMDL
MODEL 9
REMARK VINA RESULT:      -9.1      8.778     14.390
REMARK  Name = 44814409
REMARK  5 active torsions:
REMARK  status: ('A' for Active; 'I' for Inactive)
REMARK    1  A    between atoms: N_2  and  C_22
REMARK    2  A    between atoms: C_3  and  C_7
REMARK    3  A    between atoms: C_9  and  C_14
REMARK    4  A    between atoms: C_21  and  C_26
REMARK    5  A    between atoms: C_29  and  N_33
REMARK                            x       y       z     vdW  Elec       q    Type
REMARK                         _______ _______ _______ _____ _____    ______ ____
ROOT
ATOM      1  O   UNL     1      31.535 -10.558 -21.467  0.00  0.00    -0.267 OA
ATOM      2  N   UNL     1      32.987  -8.802 -22.047  0.00  0.00    -0.278 N 
ATOM      3  C   UNL     1      32.425 -10.081 -22.162  0.00  0.00    +0.275 C 
ATOM      4  H   UNL     1      33.696  -8.582 -22.694  0.00  0.00    +0.155 HD
ENDROOT
BRANCH   3   7
ATOM      5  F   UNL     1      34.452 -13.325 -26.188  0.00  0.00    -0.202 F 
ATOM      6  N   UNL     1      33.299 -12.183 -22.936  0.00  0.00    -0.399 NA
ATOM      7  C   UNL     1      32.964 -10.916 -23.267  0.00  0.00    +0.167 C 
ATOM      8  C   UNL     1      33.098 -10.386 -24.541  0.00  0.00    +0.092 C 
ATOM      9  C   UNL     1      33.789 -12.954 -23.932  0.00  0.00    +0.162 C 
ATOM     10  C   UNL     1      33.607 -11.211 -25.538  0.00  0.00    +0.014 C 
ATOM     11  C   UNL     1      33.961 -12.521 -25.236  0.00  0.00    +0.166 C 
BRANCH   9  14
ATOM     12  F   UNL     1      34.835 -13.545 -21.398  0.00  0.00    -0.204 F 
ATOM     13  F   UNL     1      33.455 -15.136 -25.662  0.00  0.00    -0.204 F 
ATOM     14  C   UNL     1      34.135 -14.302 -23.541  0.00  0.00    +0.087 C 
ATOM     15  C   UNL     1      34.653 -14.548 -22.270  0.00  0.00    +0.145 C 
ATOM     16  C   UNL     1      33.951 -15.356 -24.436  0.00  0.00    +0.145 C 
ATOM     17  C   UNL     1      34.986 -15.849 -21.893  0.00  0.00    +0.030 C 
ATOM     18  C   UNL     1      34.284 -16.657 -24.059  0.00  0.00    +0.030 C 
ATOM     19  C   UNL     1      34.803 -16.903 -22.787  0.00  0.00    +0.005 C 
ENDBRANCH   9  14
ENDBRANCH   3   7
BRANCH   2  22
ATOM     20  N   UNL     1      32.348  -7.168 -18.818  0.00  0.00    -0.241 NA
ATOM     21  C   UNL     1      32.355  -6.507 -21.535  0.00  0.00    -0.006 C 
ATOM     22  C   UNL     1      32.664  -7.801 -21.130  0.00  0.00    +0.066 C 
ATOM     23  C   UNL     1      32.042  -5.544 -20.583  0.00  0.00    +0.018 C 
ATOM     24  C   UNL     1      32.648  -8.078 -19.773  0.00  0.00    +0.113 C 
ATOM     25  C   UNL     1      32.053  -5.921 -19.250  0.00  0.00    +0.099 C 
BRANCH  21  26
ATOM     26  C   UNL     1      32.352  -6.127 -22.981  0.00  0.00    +0.022 C 
ATOM     27  C   UNL     1      33.820  -5.405 -24.927  0.00  0.00    -0.002 C 
ATOM     28  C   UNL     1      33.791  -5.858 -23.460  0.00  0.00    +0.004 C 
ATOM     29  C   UNL     1      31.487  -4.445 -24.668  0.00  0.00    -0.065 C 
ATOM     30  C   UNL     1      31.459  -4.893 -23.201  0.00  0.00    -0.017 C 
ATOM     31  C   UNL     1      32.921  -4.178 -25.138  0.00  0.00    -0.022 C 
ATOM     32  C   UNL     1      35.252  -5.107 -25.369  0.00  0.00    -0.000 C 
BRANCH  29  33
ATOM     33  N   UNL     1      30.678  -3.238 -24.832  0.00  0.00    +0.382 N 
ATOM     34  H   UNL     1      31.282  -2.455 -25.083  0.00  0.00    -0.089 HD
ATOM     35  H   UNL     1      30.197  -3.029 -23.957  0.00  0.00    -0.089 HD
ATOM     36  H   UNL     1      29.990  -3.387 -25.570  0.00  0.00    -0.089 HD
ENDBRANCH  29  33
ENDBRANCH  21  26
ENDBRANCH   2  22
TORSDOF 5
ENDMDL
