MODEL 1
REMARK VINA RESULT:     -12.1      0.000      0.000
REMARK  Name = 60870
REMARK  7 active torsions:
REMARK  status: ('A' for Active; 'I' for Inactive)
REMARK    1  A    between atoms: C_2  and  C_4
REMARK    2  A    between atoms: C_2  and  C_18
REMARK    3  A    between atoms: C_3  and  C_9
REMARK    4  A    between atoms: C_9  and  C_14
REMARK    5  A    between atoms: C_18  and  C_19
REMARK    6  A    between atoms: C_19  and  C_22
REMARK    7  A    between atoms: C_24  and  C_26
REMARK                            x       y       z     vdW  Elec       q    Type
REMARK                         _______ _______ _______ _____ _____    ______ ____
ROOT
ATOM      1  O   UNL     1      34.377 -15.851 -25.122  0.00  0.00    -0.291 OA
ATOM      2  C   UNL     1      34.561 -15.820 -23.888  0.00  0.00    +0.173 C 
ENDROOT
BRANCH   2   4
ATOM      3  C   UNL     1      35.071 -19.395 -21.688  0.00  0.00    -0.021 C 
ATOM      4  C   UNL     1      34.736 -17.050 -23.131  0.00  0.00    +0.035 C 
ATOM      5  C   UNL     1      35.495 -18.192 -21.142  0.00  0.00    -0.004 C 
ATOM      6  C   UNL     1      34.482 -19.445 -22.943  0.00  0.00    -0.004 C 
ATOM      7  C   UNL     1      35.326 -17.013 -21.868  0.00  0.00    +0.003 C 
ATOM      8  C   UNL     1      34.314 -18.266 -23.668  0.00  0.00    +0.003 C 
BRANCH   3   9
ATOM      9  C   UNL     1      35.253 -20.669 -20.904  0.00  0.00    +0.047 C 
BRANCH   9  14
ATOM     10  S   UNL     1      35.317 -21.788 -18.387  0.00  0.00    -0.048 S 
ATOM     11  O   UNL     1      32.307 -20.425 -20.382  0.00  0.00    -0.274 OA
ATOM     12  O   UNL     1      33.706 -23.539 -17.272  0.00  0.00    -0.263 OA
ATOM     13  N   UNL     1      32.810 -22.042 -18.807  0.00  0.00    -0.246 N 
ATOM     14  C   UNL     1      34.569 -20.604 -19.549  0.00  0.00    +0.137 C 
ATOM     15  C   UNL     1      33.110 -20.990 -19.648  0.00  0.00    +0.239 C 
ATOM     16  C   UNL     1      33.806 -22.608 -18.055  0.00  0.00    +0.279 C 
ATOM     17  H   UNL     1      31.890 -22.383 -18.748  0.00  0.00    +0.158 HD
ENDBRANCH   9  14
ENDBRANCH   3   9
ENDBRANCH   2   4
BRANCH   2  18
ATOM     18  C   UNL     1      34.606 -14.460 -23.167  0.00  0.00    +0.076 C 
BRANCH  18  19
ATOM     19  C   UNL     1      33.268 -13.715 -23.184  0.00  0.00    +0.066 C 
BRANCH  19  22
ATOM     20  O   UNL     1      33.666 -10.503 -24.873  0.00  0.00    -0.449 OA
ATOM     21  N   UNL     1      33.355 -11.278 -22.771  0.00  0.00    -0.373 NA
ATOM     22  C   UNL     1      33.410 -12.301 -23.662  0.00  0.00    +0.130 C 
ATOM     23  C   UNL     1      33.596 -11.862 -24.929  0.00  0.00    +0.216 C 
ATOM     24  C   UNL     1      33.514 -10.231 -23.549  0.00  0.00    +0.277 C 
ATOM     25  C   UNL     1      33.728 -12.483 -26.251  0.00  0.00    +0.055 C 
BRANCH  24  26
ATOM     26  C   UNL     1      33.549  -8.837 -23.203  0.00  0.00    +0.066 C 
ATOM     27  C   UNL     1      32.474  -8.251 -22.529  0.00  0.00    +0.006 C 
ATOM     28  C   UNL     1      34.659  -8.057 -23.540  0.00  0.00    +0.006 C 
ATOM     29  C   UNL     1      32.508  -6.897 -22.194  0.00  0.00    +0.000 C 
ATOM     30  C   UNL     1      34.693  -6.702 -23.206  0.00  0.00    +0.000 C 
ATOM     31  C   UNL     1      33.617  -6.123 -22.533  0.00  0.00    +0.000 C 
ENDBRANCH  24  26
ENDBRANCH  19  22
ENDBRANCH  18  19
ENDBRANCH   2  18
TORSDOF 7
ENDMDL
MODEL 2
REMARK VINA RESULT:     -12.1      3.086      5.452
REMARK  Name = 60870
REMARK  7 active torsions:
REMARK  status: ('A' for Active; 'I' for Inactive)
REMARK    1  A    between atoms: C_2  and  C_4
REMARK    2  A    between atoms: C_2  and  C_18
REMARK    3  A    between atoms: C_3  and  C_9
REMARK    4  A    between atoms: C_9  and  C_14
REMARK    5  A    between atoms: C_18  and  C_19
REMARK    6  A    between atoms: C_19  and  C_22
REMARK    7  A    between atoms: C_24  and  C_26
REMARK                            x       y       z     vdW  Elec       q    Type
REMARK                         _______ _______ _______ _____ _____    ______ ____
ROOT
ATOM      1  O   UNL     1      36.714 -19.396 -20.164  0.00  0.00    -0.291 OA
ATOM      2  C   UNL     1      35.557 -19.779 -20.435  0.00  0.00    +0.173 C 
ENDROOT
BRANCH   2   4
ATOM      3  C   UNL     1      33.521 -22.471 -17.888  0.00  0.00    -0.021 C 
ATOM      4  C   UNL     1      34.856 -20.706 -19.559  0.00  0.00    +0.035 C 
ATOM      5  C   UNL     1      32.794 -21.687 -18.772  0.00  0.00    -0.004 C 
ATOM      6  C   UNL     1      34.904 -22.389 -17.826  0.00  0.00    -0.004 C 
ATOM      7  C   UNL     1      33.466 -20.799 -19.612  0.00  0.00    +0.003 C 
ATOM      8  C   UNL     1      35.576 -21.501 -18.667  0.00  0.00    +0.003 C 
BRANCH   3   9
ATOM      9  C   UNL     1      32.795 -23.431 -16.981  0.00  0.00    +0.047 C 
BRANCH   9  14
ATOM     10  S   UNL     1      32.796 -23.458 -14.227  0.00  0.00    -0.048 S 
ATOM     11  O   UNL     1      29.948 -22.539 -16.664  0.00  0.00    -0.274 OA
ATOM     12  O   UNL     1      30.984 -24.347 -12.542  0.00  0.00    -0.263 OA
ATOM     13  N   UNL     1      30.264 -23.458 -14.565  0.00  0.00    -0.246 N 
ATOM     14  C   UNL     1      32.189 -22.729 -15.779  0.00  0.00    +0.137 C 
ATOM     15  C   UNL     1      30.685 -22.886 -15.748  0.00  0.00    +0.239 C 
ATOM     16  C   UNL     1      31.193 -23.829 -13.629  0.00  0.00    +0.279 C 
ATOM     17  H   UNL     1      29.305 -23.598 -14.395  0.00  0.00    +0.158 HD
ENDBRANCH   9  14
ENDBRANCH   3   9
ENDBRANCH   2   4
BRANCH   2  18
ATOM     18  C   UNL     1      34.870 -19.258 -21.711  0.00  0.00    +0.076 C 
BRANCH  18  19
ATOM     19  C   UNL     1      35.740 -18.295 -22.523  0.00  0.00    +0.066 C 
BRANCH  19  22
ATOM     20  O   UNL     1      33.486 -16.314 -24.603  0.00  0.00    -0.449 OA
ATOM     21  N   UNL     1      35.145 -15.966 -23.106  0.00  0.00    -0.373 NA
ATOM     22  C   UNL     1      34.923 -17.293 -23.283  0.00  0.00    +0.130 C 
ATOM     23  C   UNL     1      33.933 -17.528 -24.176  0.00  0.00    +0.216 C 
ATOM     24  C   UNL     1      34.261 -15.430 -23.918  0.00  0.00    +0.277 C 
ATOM     25  C   UNL     1      33.283 -18.715 -24.742  0.00  0.00    +0.055 C 
BRANCH  24  26
ATOM     26  C   UNL     1      33.993 -14.045 -24.186  0.00  0.00    +0.066 C 
ATOM     27  C   UNL     1      33.630 -13.634 -25.472  0.00  0.00    +0.006 C 
ATOM     28  C   UNL     1      34.095 -13.098 -23.162  0.00  0.00    +0.006 C 
ATOM     29  C   UNL     1      33.371 -12.288 -25.732  0.00  0.00    +0.000 C 
ATOM     30  C   UNL     1      33.836 -11.752 -23.422  0.00  0.00    +0.000 C 
ATOM     31  C   UNL     1      33.474 -11.347 -24.708  0.00  0.00    +0.000 C 
ENDBRANCH  24  26
ENDBRANCH  19  22
ENDBRANCH  18  19
ENDBRANCH   2  18
TORSDOF 7
ENDMDL
MODEL 3
REMARK VINA RESULT:     -12.0      3.895     11.256
REMARK  Name = 60870
REMARK  7 active torsions:
REMARK  status: ('A' for Active; 'I' for Inactive)
REMARK    1  A    between atoms: C_2  and  C_4
REMARK    2  A    between atoms: C_2  and  C_18
REMARK    3  A    between atoms: C_3  and  C_9
REMARK    4  A    between atoms: C_9  and  C_14
REMARK    5  A    between atoms: C_18  and  C_19
REMARK    6  A    between atoms: C_19  and  C_22
REMARK    7  A    between atoms: C_24  and  C_26
REMARK                            x       y       z     vdW  Elec       q    Type
REMARK                         _______ _______ _______ _____ _____    ______ ____
ROOT
ATOM      1  O   UNL     1      33.421 -14.661 -24.733  0.00  0.00    -0.291 OA
ATOM      2  C   UNL     1      33.769 -14.101 -23.673  0.00  0.00    +0.173 C 
ENDROOT
BRANCH   2   4
ATOM      3  C   UNL     1      33.347  -9.921 -23.198  0.00  0.00    -0.021 C 
ATOM      4  C   UNL     1      33.625 -12.663 -23.509  0.00  0.00    +0.035 C 
ATOM      5  C   UNL     1      32.725 -10.775 -22.300  0.00  0.00    -0.004 C 
ATOM      6  C   UNL     1      34.106 -10.414 -24.248  0.00  0.00    -0.004 C 
ATOM      7  C   UNL     1      32.865 -12.155 -22.456  0.00  0.00    +0.003 C 
ATOM      8  C   UNL     1      34.246 -11.793 -24.405  0.00  0.00    +0.003 C 
BRANCH   3   9
ATOM      9  C   UNL     1      33.197  -8.431 -23.028  0.00  0.00    +0.047 C 
BRANCH   9  14
ATOM     10  S   UNL     1      30.994  -6.784 -23.176  0.00  0.00    -0.048 S 
ATOM     11  O   UNL     1      32.881  -8.072 -20.065  0.00  0.00    -0.274 OA
ATOM     12  O   UNL     1      30.432  -4.586 -21.848  0.00  0.00    -0.263 OA
ATOM     13  N   UNL     1      31.667  -6.236 -20.773  0.00  0.00    -0.246 N 
ATOM     14  C   UNL     1      31.924  -8.069 -22.284  0.00  0.00    +0.137 C 
ATOM     15  C   UNL     1      32.225  -7.488 -20.921  0.00  0.00    +0.239 C 
ATOM     16  C   UNL     1      30.979  -5.678 -21.819  0.00  0.00    +0.279 C 
ATOM     17  H   UNL     1      31.761  -5.747 -19.925  0.00  0.00    +0.158 HD
ENDBRANCH   9  14
ENDBRANCH   3   9
ENDBRANCH   2   4
BRANCH   2  18
ATOM     18  C   UNL     1      34.355 -14.951 -22.530  0.00  0.00    +0.076 C 
BRANCH  18  19
ATOM     19  C   UNL     1      35.385 -15.982 -23.001  0.00  0.00    +0.066 C 
BRANCH  19  22
ATOM     20  O   UNL     1      34.279 -19.425 -22.495  0.00  0.00    -0.449 OA
ATOM     21  N   UNL     1      35.381 -17.819 -21.345  0.00  0.00    -0.373 NA
ATOM     22  C   UNL     1      35.028 -17.376 -22.578  0.00  0.00    +0.130 C 
ATOM     23  C   UNL     1      34.367 -18.320 -23.288  0.00  0.00    +0.216 C 
ATOM     24  C   UNL     1      34.908 -19.045 -21.350  0.00  0.00    +0.277 C 
ATOM     25  C   UNL     1      33.769 -18.409 -24.624  0.00  0.00    +0.055 C 
BRANCH  24  26
ATOM     26  C   UNL     1      34.960 -20.046 -20.321  0.00  0.00    +0.066 C 
ATOM     27  C   UNL     1      36.192 -20.475 -19.817  0.00  0.00    +0.006 C 
ATOM     28  C   UNL     1      33.779 -20.599 -19.817  0.00  0.00    +0.006 C 
ATOM     29  C   UNL     1      36.242 -21.448 -18.819  0.00  0.00    +0.000 C 
ATOM     30  C   UNL     1      33.829 -21.572 -18.818  0.00  0.00    +0.000 C 
ATOM     31  C   UNL     1      35.061 -21.996 -18.320  0.00  0.00    +0.000 C 
ENDBRANCH  24  26
ENDBRANCH  19  22
ENDBRANCH  18  19
ENDBRANCH   2  18
TORSDOF 7
ENDMDL
MODEL 4
REMARK VINA RESULT:     -11.7      2.631      4.589
REMARK  Name = 60870
REMARK  7 active torsions:
REMARK  status: ('A' for Active; 'I' for Inactive)
REMARK    1  A    between atoms: C_2  and  C_4
REMARK    2  A    between atoms: C_2  and  C_18
REMARK    3  A    between atoms: C_3  and  C_9
REMARK    4  A    between atoms: C_9  and  C_14
REMARK    5  A    between atoms: C_18  and  C_19
REMARK    6  A    between atoms: C_19  and  C_22
REMARK    7  A    between atoms: C_24  and  C_26
REMARK                            x       y       z     vdW  Elec       q    Type
REMARK                         _______ _______ _______ _____ _____    ______ ____
ROOT
ATOM      1  O   UNL     1      34.325 -19.456 -22.371  0.00  0.00    -0.291 OA
ATOM      2  C   UNL     1      34.616 -19.286 -21.169  0.00  0.00    +0.173 C 
ENDROOT
BRANCH   2   4
ATOM      3  C   UNL     1      33.765 -22.271 -18.298  0.00  0.00    -0.021 C 
ATOM      4  C   UNL     1      34.323 -20.312 -20.180  0.00  0.00    +0.035 C 
ATOM      5  C   UNL     1      35.084 -22.012 -18.641  0.00  0.00    -0.004 C 
ATOM      6  C   UNL     1      32.721 -21.568 -18.879  0.00  0.00    -0.004 C 
ATOM      7  C   UNL     1      35.364 -21.026 -19.589  0.00  0.00    +0.003 C 
ATOM      8  C   UNL     1      33.002 -20.582 -19.826  0.00  0.00    +0.003 C 
BRANCH   3   9
ATOM      9  C   UNL     1      33.462 -23.335 -17.274  0.00  0.00    +0.047 C 
BRANCH   9  14
ATOM     10  S   UNL     1      33.809 -23.458 -14.544  0.00  0.00    -0.048 S 
ATOM     11  O   UNL     1      30.602 -22.754 -16.574  0.00  0.00    -0.274 OA
ATOM     12  O   UNL     1      32.318 -24.589 -12.698  0.00  0.00    -0.263 OA
ATOM     13  N   UNL     1      31.267 -23.709 -14.575  0.00  0.00    -0.246 N 
ATOM     14  C   UNL     1      32.944 -22.742 -15.976  0.00  0.00    +0.137 C 
ATOM     15  C   UNL     1      31.479 -23.055 -15.771  0.00  0.00    +0.239 C 
ATOM     16  C   UNL     1      32.337 -24.015 -13.776  0.00  0.00    +0.279 C 
ATOM     17  H   UNL     1      30.355 -23.954 -14.298  0.00  0.00    +0.158 HD
ENDBRANCH   9  14
ENDBRANCH   3   9
ENDBRANCH   2   4
BRANCH   2  18
ATOM     18  C   UNL     1      35.294 -17.972 -20.737  0.00  0.00    +0.076 C 
BRANCH  18  19
ATOM     19  C   UNL     1      35.930 -17.203 -21.898  0.00  0.00    +0.066 C 
BRANCH  19  22
ATOM     20  O   UNL     1      33.661 -14.977 -23.694  0.00  0.00    -0.449 OA
ATOM     21  N   UNL     1      34.767 -15.027 -21.722  0.00  0.00    -0.373 NA
ATOM     22  C   UNL     1      35.019 -16.146 -22.447  0.00  0.00    +0.130 C 
ATOM     23  C   UNL     1      34.368 -16.140 -23.634  0.00  0.00    +0.216 C 
ATOM     24  C   UNL     1      33.953 -14.366 -22.514  0.00  0.00    +0.277 C 
ATOM     25  C   UNL     1      34.263 -17.044 -24.784  0.00  0.00    +0.055 C 
BRANCH  24  26
ATOM     26  C   UNL     1      33.323 -13.090 -22.313  0.00  0.00    +0.066 C 
ATOM     27  C   UNL     1      32.358 -12.931 -21.315  0.00  0.00    +0.006 C 
ATOM     28  C   UNL     1      33.671 -12.001 -23.117  0.00  0.00    +0.006 C 
ATOM     29  C   UNL     1      31.746 -11.692 -21.121  0.00  0.00    +0.000 C 
ATOM     30  C   UNL     1      33.058 -10.762 -22.924  0.00  0.00    +0.000 C 
ATOM     31  C   UNL     1      32.096 -10.608 -21.926  0.00  0.00    +0.000 C 
ENDBRANCH  24  26
ENDBRANCH  19  22
ENDBRANCH  18  19
ENDBRANCH   2  18
TORSDOF 7
ENDMDL
MODEL 5
REMARK VINA RESULT:     -11.7      3.650     11.072
REMARK  Name = 60870
REMARK  7 active torsions:
REMARK  status: ('A' for Active; 'I' for Inactive)
REMARK    1  A    between atoms: C_2  and  C_4
REMARK    2  A    between atoms: C_2  and  C_18
REMARK    3  A    between atoms: C_3  and  C_9
REMARK    4  A    between atoms: C_9  and  C_14
REMARK    5  A    between atoms: C_18  and  C_19
REMARK    6  A    between atoms: C_19  and  C_22
REMARK    7  A    between atoms: C_24  and  C_26
REMARK                            x       y       z     vdW  Elec       q    Type
REMARK                         _______ _______ _______ _____ _____    ______ ____
ROOT
ATOM      1  O   UNL     1      33.450 -14.913 -24.387  0.00  0.00    -0.291 OA
ATOM      2  C   UNL     1      33.810 -14.462 -23.280  0.00  0.00    +0.173 C 
ENDROOT
BRANCH   2   4
ATOM      3  C   UNL     1      32.106 -10.918 -21.726  0.00  0.00    -0.021 C 
ATOM      4  C   UNL     1      33.222 -13.243 -22.746  0.00  0.00    +0.035 C 
ATOM      5  C   UNL     1      32.922 -10.848 -22.845  0.00  0.00    -0.004 C 
ATOM      6  C   UNL     1      31.837 -12.131 -21.109  0.00  0.00    -0.004 C 
ATOM      7  C   UNL     1      33.484 -12.018 -23.358  0.00  0.00    +0.003 C 
ATOM      8  C   UNL     1      32.399 -13.300 -21.622  0.00  0.00    +0.003 C 
BRANCH   3   9
ATOM      9  C   UNL     1      31.497  -9.655 -21.173  0.00  0.00    +0.047 C 
BRANCH   9  14
ATOM     10  S   UNL     1      32.676  -7.453 -20.011  0.00  0.00    -0.048 S 
ATOM     11  O   UNL     1      31.167  -7.844 -23.542  0.00  0.00    -0.274 OA
ATOM     12  O   UNL     1      31.947  -4.928 -20.047  0.00  0.00    -0.263 OA
ATOM     13  N   UNL     1      31.478  -6.235 -21.910  0.00  0.00    -0.246 N 
ATOM     14  C   UNL     1      32.330  -8.430 -21.507  0.00  0.00    +0.137 C 
ATOM     15  C   UNL     1      31.594  -7.501 -22.445  0.00  0.00    +0.239 C 
ATOM     16  C   UNL     1      31.974  -5.985 -20.657  0.00  0.00    +0.279 C 
ATOM     17  H   UNL     1      31.042  -5.517 -22.423  0.00  0.00    +0.158 HD
ENDBRANCH   9  14
ENDBRANCH   3   9
ENDBRANCH   2   4
BRANCH   2  18
ATOM     18  C   UNL     1      34.888 -15.213 -22.476  0.00  0.00    +0.076 C 
BRANCH  18  19
ATOM     19  C   UNL     1      35.477 -16.415 -23.219  0.00  0.00    +0.066 C 
BRANCH  19  22
ATOM     20  O   UNL     1      33.927 -19.634 -22.463  0.00  0.00    -0.449 OA
ATOM     21  N   UNL     1      35.297 -18.142 -21.457  0.00  0.00    -0.373 NA
ATOM     22  C   UNL     1      34.951 -17.720 -22.699  0.00  0.00    +0.130 C 
ATOM     23  C   UNL     1      34.129 -18.597 -23.323  0.00  0.00    +0.216 C 
ATOM     24  C   UNL     1      34.658 -19.287 -21.369  0.00  0.00    +0.277 C 
ATOM     25  C   UNL     1      33.460 -18.671 -24.627  0.00  0.00    +0.055 C 
BRANCH  24  26
ATOM     26  C   UNL     1      34.620 -20.228 -20.285  0.00  0.00    +0.066 C 
ATOM     27  C   UNL     1      35.808 -20.744 -19.758  0.00  0.00    +0.006 C 
ATOM     28  C   UNL     1      33.394 -20.636 -19.751  0.00  0.00    +0.006 C 
ATOM     29  C   UNL     1      35.770 -21.659 -18.706  0.00  0.00    +0.000 C 
ATOM     30  C   UNL     1      33.357 -21.551 -18.698  0.00  0.00    +0.000 C 
ATOM     31  C   UNL     1      34.545 -22.062 -18.176  0.00  0.00    +0.000 C 
ENDBRANCH  24  26
ENDBRANCH  19  22
ENDBRANCH  18  19
ENDBRANCH   2  18
TORSDOF 7
ENDMDL
MODEL 6
REMARK VINA RESULT:     -11.2      5.435     13.737
REMARK  Name = 60870
REMARK  7 active torsions:
REMARK  status: ('A' for Active; 'I' for Inactive)
REMARK    1  A    between atoms: C_2  and  C_4
REMARK    2  A    between atoms: C_2  and  C_18
REMARK    3  A    between atoms: C_3  and  C_9
REMARK    4  A    between atoms: C_9  and  C_14
REMARK    5  A    between atoms: C_18  and  C_19
REMARK    6  A    between atoms: C_19  and  C_22
REMARK    7  A    between atoms: C_24  and  C_26
REMARK                            x       y       z     vdW  Elec       q    Type
REMARK                         _______ _______ _______ _____ _____    ______ ____
ROOT
ATOM      1  O   UNL     1      31.718 -22.611 -16.938  0.00  0.00    -0.291 OA
ATOM      2  C   UNL     1      32.936 -22.732 -17.180  0.00  0.00    +0.173 C 
ENDROOT
BRANCH   2   4
ATOM      3  C   UNL     1      34.761 -20.486 -20.263  0.00  0.00    -0.021 C 
ATOM      4  C   UNL     1      33.564 -21.958 -18.240  0.00  0.00    +0.035 C 
ATOM      5  C   UNL     1      33.385 -20.428 -20.101  0.00  0.00    -0.004 C 
ATOM      6  C   UNL     1      35.549 -21.267 -19.431  0.00  0.00    -0.004 C 
ATOM      7  C   UNL     1      32.783 -21.168 -19.083  0.00  0.00    +0.003 C 
ATOM      8  C   UNL     1      34.947 -22.008 -18.413  0.00  0.00    +0.003 C 
BRANCH   3   9
ATOM      9  C   UNL     1      35.412 -19.685 -21.362  0.00  0.00    +0.047 C 
BRANCH   9  14
ATOM     10  S   UNL     1      34.321 -18.582 -23.638  0.00  0.00    -0.048 S 
ATOM     11  O   UNL     1      35.469 -16.847 -20.387  0.00  0.00    -0.274 OA
ATOM     12  O   UNL     1      35.000 -16.415 -24.961  0.00  0.00    -0.263 OA
ATOM     13  N   UNL     1      35.298 -16.436 -22.656  0.00  0.00    -0.246 N 
ATOM     14  C   UNL     1      34.528 -18.542 -21.831  0.00  0.00    +0.137 C 
ATOM     15  C   UNL     1      35.149 -17.199 -21.517  0.00  0.00    +0.239 C 
ATOM     16  C   UNL     1      34.929 -16.957 -23.868  0.00  0.00    +0.279 C 
ATOM     17  H   UNL     1      35.668 -15.526 -22.599  0.00  0.00    +0.158 HD
ENDBRANCH   9  14
ENDBRANCH   3   9
ENDBRANCH   2   4
BRANCH   2  18
ATOM     18  C   UNL     1      33.778 -23.711 -16.340  0.00  0.00    +0.076 C 
BRANCH  18  19
ATOM     19  C   UNL     1      34.180 -23.153 -14.972  0.00  0.00    +0.066 C 
BRANCH  19  22
ATOM     20  O   UNL     1      36.496 -25.039 -12.872  0.00  0.00    -0.449 OA
ATOM     21  N   UNL     1      36.220 -24.548 -15.063  0.00  0.00    -0.373 NA
ATOM     22  C   UNL     1      35.244 -23.977 -14.312  0.00  0.00    +0.130 C 
ATOM     23  C   UNL     1      35.388 -24.256 -12.995  0.00  0.00    +0.216 C 
ATOM     24  C   UNL     1      36.937 -25.168 -14.153  0.00  0.00    +0.277 C 
ATOM     25  C   UNL     1      34.664 -23.926 -11.762  0.00  0.00    +0.055 C 
BRANCH  24  26
ATOM     26  C   UNL     1      38.122 -25.964 -14.314  0.00  0.00    +0.066 C 
ATOM     27  C   UNL     1      39.382 -25.409 -14.074  0.00  0.00    +0.006 C 
ATOM     28  C   UNL     1      38.022 -27.300 -14.714  0.00  0.00    +0.006 C 
ATOM     29  C   UNL     1      40.533 -26.183 -14.232  0.00  0.00    +0.000 C 
ATOM     30  C   UNL     1      39.172 -28.074 -14.872  0.00  0.00    +0.000 C 
ATOM     31  C   UNL     1      40.427 -27.514 -14.631  0.00  0.00    +0.000 C 
ENDBRANCH  24  26
ENDBRANCH  19  22
ENDBRANCH  18  19
ENDBRANCH   2  18
TORSDOF 7
ENDMDL
MODEL 7
REMARK VINA RESULT:     -11.2      1.501      2.161
REMARK  Name = 60870
REMARK  7 active torsions:
REMARK  status: ('A' for Active; 'I' for Inactive)
REMARK    1  A    between atoms: C_2  and  C_4
REMARK    2  A    between atoms: C_2  and  C_18
REMARK    3  A    between atoms: C_3  and  C_9
REMARK    4  A    between atoms: C_9  and  C_14
REMARK    5  A    between atoms: C_18  and  C_19
REMARK    6  A    between atoms: C_19  and  C_22
REMARK    7  A    between atoms: C_24  and  C_26
REMARK                            x       y       z     vdW  Elec       q    Type
REMARK                         _______ _______ _______ _____ _____    ______ ____
ROOT
ATOM      1  O   UNL     1      33.944 -14.446 -25.767  0.00  0.00    -0.291 OA
ATOM      2  C   UNL     1      33.737 -14.634 -24.551  0.00  0.00    +0.173 C 
ENDROOT
BRANCH   2   4
ATOM      3  C   UNL     1      34.878 -18.258 -22.696  0.00  0.00    -0.021 C 
ATOM      4  C   UNL     1      34.131 -15.881 -23.913  0.00  0.00    +0.035 C 
ATOM      5  C   UNL     1      34.123 -18.296 -23.858  0.00  0.00    -0.004 C 
ATOM      6  C   UNL     1      35.266 -17.052 -22.132  0.00  0.00    -0.004 C 
ATOM      7  C   UNL     1      33.747 -17.100 -24.471  0.00  0.00    +0.003 C 
ATOM      8  C   UNL     1      34.890 -15.856 -22.744  0.00  0.00    +0.003 C 
BRANCH   3   9
ATOM      9  C   UNL     1      35.286 -19.550 -22.035  0.00  0.00    +0.047 C 
BRANCH   9  14
ATOM     10  S   UNL     1      36.220 -20.451 -19.605  0.00  0.00    -0.048 S 
ATOM     11  O   UNL     1      32.582 -19.987 -20.808  0.00  0.00    -0.274 OA
ATOM     12  O   UNL     1      35.406 -22.461 -18.119  0.00  0.00    -0.263 OA
ATOM     13  N   UNL     1      33.829 -21.327 -19.396  0.00  0.00    -0.246 N 
ATOM     14  C   UNL     1      34.948 -19.561 -20.555  0.00  0.00    +0.137 C 
ATOM     15  C   UNL     1      33.650 -20.292 -20.290  0.00  0.00    +0.239 C 
ATOM     16  C   UNL     1      35.083 -21.586 -18.908  0.00  0.00    +0.279 C 
ATOM     17  H   UNL     1      33.063 -21.875 -19.111  0.00  0.00    +0.158 HD
ENDBRANCH   9  14
ENDBRANCH   3   9
ENDBRANCH   2   4
BRANCH   2  18
ATOM     18  C   UNL     1      33.058 -13.527 -23.722  0.00  0.00    +0.076 C 
BRANCH  18  19
ATOM     19  C   UNL     1      34.049 -12.562 -23.065  0.00  0.00    +0.066 C 
BRANCH  19  22
ATOM     20  O   UNL     1      32.245  -9.505 -22.207  0.00  0.00    -0.449 OA
ATOM     21  N   UNL     1      33.997 -10.127 -23.497  0.00  0.00    -0.373 NA
ATOM     22  C   UNL     1      33.461 -11.197 -22.858  0.00  0.00    +0.130 C 
ATOM     23  C   UNL     1      32.410 -10.851 -22.079  0.00  0.00    +0.216 C 
ATOM     24  C   UNL     1      33.232  -9.145 -23.073  0.00  0.00    +0.277 C 
ATOM     25  C   UNL     1      31.478 -11.555 -21.190  0.00  0.00    +0.055 C 
BRANCH  24  26
ATOM     26  C   UNL     1      33.288  -7.745 -23.389  0.00  0.00    +0.066 C 
ATOM     27  C   UNL     1      32.112  -6.994 -23.472  0.00  0.00    +0.006 C 
ATOM     28  C   UNL     1      34.520  -7.125 -23.619  0.00  0.00    +0.006 C 
ATOM     29  C   UNL     1      32.167  -5.635 -23.780  0.00  0.00    +0.000 C 
ATOM     30  C   UNL     1      34.575  -5.766 -23.927  0.00  0.00    +0.000 C 
ATOM     31  C   UNL     1      33.398  -5.021 -24.008  0.00  0.00    +0.000 C 
ENDBRANCH  24  26
ENDBRANCH  19  22
ENDBRANCH  18  19
ENDBRANCH   2  18
TORSDOF 7
ENDMDL
MODEL 8
REMARK VINA RESULT:     -11.2      5.215     13.063
REMARK  Name = 60870
REMARK  7 active torsions:
REMARK  status: ('A' for Active; 'I' for Inactive)
REMARK    1  A    between atoms: C_2  and  C_4
REMARK    2  A    between atoms: C_2  and  C_18
REMARK    3  A    between atoms: C_3  and  C_9
REMARK    4  A    between atoms: C_9  and  C_14
REMARK    5  A    between atoms: C_18  and  C_19
REMARK    6  A    between atoms: C_19  and  C_22
REMARK    7  A    between atoms: C_24  and  C_26
REMARK                            x       y       z     vdW  Elec       q    Type
REMARK                         _______ _______ _______ _____ _____    ______ ____
ROOT
ATOM      1  O   UNL     1      33.462 -24.184 -17.966  0.00  0.00    -0.291 OA
ATOM      2  C   UNL     1      33.284 -22.961 -17.794  0.00  0.00    +0.173 C 
ENDROOT
BRANCH   2   4
ATOM      3  C   UNL     1      35.044 -20.129 -20.394  0.00  0.00    -0.021 C 
ATOM      4  C   UNL     1      33.890 -21.987 -18.689  0.00  0.00    +0.035 C 
ATOM      5  C   UNL     1      35.859 -20.968 -19.648  0.00  0.00    -0.004 C 
ATOM      6  C   UNL     1      33.663 -20.204 -20.303  0.00  0.00    -0.004 C 
ATOM      7  C   UNL     1      35.278 -21.903 -18.790  0.00  0.00    +0.003 C 
ATOM      8  C   UNL     1      33.082 -21.139 -19.445  0.00  0.00    +0.003 C 
BRANCH   3   9
ATOM      9  C   UNL     1      35.672 -19.120 -21.321  0.00  0.00    +0.047 C 
BRANCH   9  14
ATOM     10  S   UNL     1      34.547 -18.305 -23.700  0.00  0.00    -0.048 S 
ATOM     11  O   UNL     1      35.222 -16.272 -20.489  0.00  0.00    -0.274 OA
ATOM     12  O   UNL     1      34.944 -16.113 -25.096  0.00  0.00    -0.263 OA
ATOM     13  N   UNL     1      35.115 -15.989 -22.781  0.00  0.00    -0.246 N 
ATOM     14  C   UNL     1      34.645 -18.156 -21.889  0.00  0.00    +0.137 C 
ATOM     15  C   UNL     1      35.026 -16.718 -21.614  0.00  0.00    +0.239 C 
ATOM     16  C   UNL     1      34.900 -16.613 -23.982  0.00  0.00    +0.279 C 
ATOM     17  H   UNL     1      35.330 -15.030 -22.753  0.00  0.00    +0.158 HD
ENDBRANCH   9  14
ENDBRANCH   3   9
ENDBRANCH   2   4
BRANCH   2  18
ATOM     18  C   UNL     1      32.410 -22.486 -16.618  0.00  0.00    +0.076 C 
BRANCH  18  19
ATOM     19  C   UNL     1      31.835 -23.632 -15.782  0.00  0.00    +0.066 C 
BRANCH  19  22
ATOM     20  O   UNL     1      33.266 -24.342 -12.498  0.00  0.00    -0.449 OA
ATOM     21  N   UNL     1      33.986 -23.790 -14.571  0.00  0.00    -0.373 NA
ATOM     22  C   UNL     1      32.632 -23.885 -14.537  0.00  0.00    +0.130 C 
ATOM     23  C   UNL     1      32.176 -24.214 -13.306  0.00  0.00    +0.216 C 
ATOM     24  C   UNL     1      34.310 -24.072 -13.328  0.00  0.00    +0.277 C 
ATOM     25  C   UNL     1      30.863 -24.448 -12.695  0.00  0.00    +0.055 C 
BRANCH  24  26
ATOM     26  C   UNL     1      35.609 -24.139 -12.719  0.00  0.00    +0.066 C 
ATOM     27  C   UNL     1      35.842 -23.518 -11.488  0.00  0.00    +0.006 C 
ATOM     28  C   UNL     1      36.649 -24.824 -13.355  0.00  0.00    +0.006 C 
ATOM     29  C   UNL     1      37.105 -23.582 -10.898  0.00  0.00    +0.000 C 
ATOM     30  C   UNL     1      37.912 -24.887 -12.764  0.00  0.00    +0.000 C 
ATOM     31  C   UNL     1      38.139 -24.266 -11.535  0.00  0.00    +0.000 C 
ENDBRANCH  24  26
ENDBRANCH  19  22
ENDBRANCH  18  19
ENDBRANCH   2  18
TORSDOF 7
ENDMDL
MODEL 9
REMARK VINA RESULT:     -11.1      6.160     10.387
REMARK  Name = 60870
REMARK  7 active torsions:
REMARK  status: ('A' for Active; 'I' for Inactive)
REMARK    1  A    between atoms: C_2  and  C_4
REMARK    2  A    between atoms: C_2  and  C_18
REMARK    3  A    between atoms: C_3  and  C_9
REMARK    4  A    between atoms: C_9  and  C_14
REMARK    5  A    between atoms: C_18  and  C_19
REMARK    6  A    between atoms: C_19  and  C_22
REMARK    7  A    between atoms: C_24  and  C_26
REMARK                            x       y       z     vdW  Elec       q    Type
REMARK                         _______ _______ _______ _____ _____    ______ ____
ROOT
ATOM      1  O   UNL     1      32.169 -23.855 -15.279  0.00  0.00    -0.291 OA
ATOM      2  C   UNL     1      33.196 -23.341 -15.767  0.00  0.00    +0.173 C 
ENDROOT
BRANCH   2   4
ATOM      3  C   UNL     1      37.002 -24.115 -14.097  0.00  0.00    -0.021 C 
ATOM      4  C   UNL     1      34.506 -23.607 -15.193  0.00  0.00    +0.035 C 
ATOM      5  C   UNL     1      36.232 -25.173 -14.556  0.00  0.00    -0.004 C 
ATOM      6  C   UNL     1      36.546 -22.808 -14.177  0.00  0.00    -0.004 C 
ATOM      7  C   UNL     1      34.976 -24.917 -15.108  0.00  0.00    +0.003 C 
ATOM      8  C   UNL     1      35.290 -22.552 -14.728  0.00  0.00    +0.003 C 
BRANCH   3   9
ATOM      9  C   UNL     1      38.359 -24.391 -13.502  0.00  0.00    +0.047 C 
BRANCH   9  14
ATOM     10  S   UNL     1      37.071 -25.799 -11.516  0.00  0.00    -0.048 S 
ATOM     11  O   UNL     1      38.430 -22.187 -11.467  0.00  0.00    -0.274 OA
ATOM     12  O   UNL     1      35.172 -25.041  -9.863  0.00  0.00    -0.263 OA
ATOM     13  N   UNL     1      36.731 -23.460 -10.548  0.00  0.00    -0.246 N 
ATOM     14  C   UNL     1      38.297 -24.542 -11.992  0.00  0.00    +0.137 C 
ATOM     15  C   UNL     1      37.853 -23.260 -11.326  0.00  0.00    +0.239 C 
ATOM     16  C   UNL     1      36.161 -24.704 -10.497  0.00  0.00    +0.279 C 
ATOM     17  H   UNL     1      36.344 -22.715 -10.034  0.00  0.00    +0.158 HD
ENDBRANCH   9  14
ENDBRANCH   3   9
ENDBRANCH   2   4
BRANCH   2  18
ATOM     18  C   UNL     1      33.066 -22.416 -16.992  0.00  0.00    +0.076 C 
BRANCH  18  19
ATOM     19  C   UNL     1      33.852 -22.904 -18.212  0.00  0.00    +0.066 C 
BRANCH  19  22
ATOM     20  O   UNL     1      36.112 -20.334 -19.485  0.00  0.00    -0.449 OA
ATOM     21  N   UNL     1      34.023 -21.099 -19.894  0.00  0.00    -0.373 NA
ATOM     22  C   UNL     1      34.604 -21.795 -18.885  0.00  0.00    +0.130 C 
ATOM     23  C   UNL     1      35.857 -21.355 -18.620  0.00  0.00    +0.216 C 
ATOM     24  C   UNL     1      34.966 -20.241 -20.213  0.00  0.00    +0.277 C 
ATOM     25  C   UNL     1      36.923 -21.712 -17.676  0.00  0.00    +0.055 C 
BRANCH  24  26
ATOM     26  C   UNL     1      34.964 -19.219 -21.222  0.00  0.00    +0.066 C 
ATOM     27  C   UNL     1      34.446 -19.484 -22.493  0.00  0.00    +0.006 C 
ATOM     28  C   UNL     1      35.483 -17.952 -20.940  0.00  0.00    +0.006 C 
ATOM     29  C   UNL     1      34.446 -18.492 -23.473  0.00  0.00    +0.000 C 
ATOM     30  C   UNL     1      35.483 -16.959 -21.920  0.00  0.00    +0.000 C 
ATOM     31  C   UNL     1      34.964 -17.229 -23.187  0.00  0.00    +0.000 C 
ENDBRANCH  24  26
ENDBRANCH  19  22
ENDBRANCH  18  19
ENDBRANCH   2  18
TORSDOF 7
ENDMDL
