MODEL 1
REMARK VINA RESULT:     -12.6      0.000      0.000
REMARK  Name = 44141871
REMARK  6 active torsions:
REMARK  status: ('A' for Active; 'I' for Inactive)
REMARK    1  A    between atoms: C_1  and  C_10
REMARK    2  A    between atoms: C_4  and  O_20
REMARK    3  A    between atoms: C_9  and  C_13
REMARK    4  A    between atoms: C_13  and  C_15
REMARK    5  A    between atoms: O_20  and  C_21
REMARK    6  A    between atoms: C_21  and  C_23
REMARK                            x       y       z     vdW  Elec       q    Type
REMARK                         _______ _______ _______ _____ _____    ______ ____
ROOT
ATOM      1  C   UNL     1      33.166 -13.115 -22.286  0.00  0.00    +0.015 C 
ATOM      2  C   UNL     1      33.867 -13.812 -21.301  0.00  0.00    +0.004 C 
ATOM      3  C   UNL     1      33.210 -13.549 -23.611  0.00  0.00    +0.004 C 
ATOM      4  C   UNL     1      34.653 -15.377 -22.966  0.00  0.00    +0.139 C 
ATOM      5  C   UNL     1      34.609 -14.942 -21.641  0.00  0.00    +0.037 C 
ATOM      6  C   UNL     1      33.953 -14.680 -23.951  0.00  0.00    +0.037 C 
ENDROOT
BRANCH   1  10
ATOM      7  N   UNL     1      31.386 -11.980 -21.021  0.00  0.00    -0.236 N 
ATOM      8  N   UNL     1      30.788 -10.791 -20.829  0.00  0.00    -0.180 NA
ATOM      9  C   UNL     1      32.468 -10.646 -22.372  0.00  0.00    +0.018 C 
ATOM     10  C   UNL     1      32.398 -11.946 -21.935  0.00  0.00    +0.063 C 
ATOM     11  C   UNL     1      31.453  -9.980 -21.657  0.00  0.00    +0.115 C 
ATOM     12  H   UNL     1      31.119 -12.799 -20.545  0.00  0.00    +0.174 HD
BRANCH   9  13
ATOM     13  C   UNL     1      33.389 -10.066 -23.364  0.00  0.00    +0.056 C 
BRANCH  13  15
ATOM     14  N   UNL     1      33.648  -5.756 -23.266  0.00  0.00    -0.242 NA
ATOM     15  C   UNL     1      33.480  -8.546 -23.329  0.00  0.00    -0.015 C 
ATOM     16  C   UNL     1      34.719  -7.924 -23.212  0.00  0.00    +0.017 C 
ATOM     17  C   UNL     1      32.327  -7.775 -23.415  0.00  0.00    +0.017 C 
ATOM     18  C   UNL     1      34.747  -6.539 -23.184  0.00  0.00    +0.099 C 
ATOM     19  C   UNL     1      32.463  -6.397 -23.379  0.00  0.00    +0.099 C 
ENDBRANCH  13  15
ENDBRANCH   9  13
ENDBRANCH   1  10
BRANCH   4  20
ATOM     20  O   UNL     1      35.380 -16.488 -23.299  0.00  0.00    -0.468 OA
BRANCH  20  21
ATOM     21  C   UNL     1      34.682 -17.727 -23.323  0.00  0.00    +0.264 C 
BRANCH  21  23
ATOM     22  N   UNL     1      34.196 -19.333 -21.579  0.00  0.00    -0.406 NA
ATOM     23  C   UNL     1      35.139 -18.576 -22.185  0.00  0.00    +0.152 C 
ATOM     24  C   UNL     1      35.904 -20.155 -20.093  0.00  0.00    +0.026 C 
ATOM     25  C   UNL     1      34.570 -20.113 -20.548  0.00  0.00    +0.113 C 
ATOM     26  C   UNL     1      36.467 -18.550 -21.811  0.00  0.00    +0.031 C 
ATOM     27  C   UNL     1      36.850 -19.354 -20.747  0.00  0.00    +0.005 C 
ATOM     28  C   UNL     1      36.260 -20.981 -19.013  0.00  0.00    +0.002 C 
ATOM     29  C   UNL     1      33.631 -20.909 -19.897  0.00  0.00    +0.085 C 
ATOM     30  C   UNL     1      35.301 -21.765 -18.380  0.00  0.00    -0.004 C 
ATOM     31  C   UNL     1      33.985 -21.730 -18.823  0.00  0.00    -0.019 C 
ENDBRANCH  21  23
ENDBRANCH  20  21
ENDBRANCH   4  20
TORSDOF 6
ENDMDL
MODEL 2
REMARK VINA RESULT:     -12.5      3.157      6.450
REMARK  Name = 44141871
REMARK  6 active torsions:
REMARK  status: ('A' for Active; 'I' for Inactive)
REMARK    1  A    between atoms: C_1  and  C_10
REMARK    2  A    between atoms: C_4  and  O_20
REMARK    3  A    between atoms: C_9  and  C_13
REMARK    4  A    between atoms: C_13  and  C_15
REMARK    5  A    between atoms: O_20  and  C_21
REMARK    6  A    between atoms: C_21  and  C_23
REMARK                            x       y       z     vdW  Elec       q    Type
REMARK                         _______ _______ _______ _____ _____    ______ ____
ROOT
ATOM      1  C   UNL     1      34.903 -18.603 -21.837  0.00  0.00    +0.015 C 
ATOM      2  C   UNL     1      33.794 -19.377 -21.492  0.00  0.00    +0.004 C 
ATOM      3  C   UNL     1      36.119 -18.797 -21.181  0.00  0.00    +0.004 C 
ATOM      4  C   UNL     1      35.118 -20.538 -19.837  0.00  0.00    +0.139 C 
ATOM      5  C   UNL     1      33.902 -20.344 -20.493  0.00  0.00    +0.037 C 
ATOM      6  C   UNL     1      36.226 -19.764 -20.182  0.00  0.00    +0.037 C 
ENDROOT
BRANCH   1  10
ATOM      7  N   UNL     1      34.640 -17.923 -24.188  0.00  0.00    -0.236 N 
ATOM      8  N   UNL     1      34.555 -16.854 -24.999  0.00  0.00    -0.180 NA
ATOM      9  C   UNL     1      34.808 -16.232 -22.815  0.00  0.00    +0.018 C 
ATOM     10  C   UNL     1      34.791 -17.604 -22.871  0.00  0.00    +0.063 C 
ATOM     11  C   UNL     1      34.659 -15.824 -24.155  0.00  0.00    +0.115 C 
ATOM     12  H   UNL     1      34.595 -18.851 -24.515  0.00  0.00    +0.174 HD
BRANCH   9  13
ATOM     13  C   UNL     1      34.950 -15.369 -21.630  0.00  0.00    +0.056 C 
BRANCH  13  15
ATOM     14  N   UNL     1      32.284 -11.972 -21.555  0.00  0.00    -0.242 NA
ATOM     15  C   UNL     1      34.009 -14.171 -21.603  0.00  0.00    -0.015 C 
ATOM     16  C   UNL     1      34.015 -13.257 -22.651  0.00  0.00    +0.017 C 
ATOM     17  C   UNL     1      33.143 -13.988 -20.532  0.00  0.00    +0.017 C 
ATOM     18  C   UNL     1      33.141 -12.184 -22.579  0.00  0.00    +0.099 C 
ATOM     19  C   UNL     1      32.308 -12.882 -20.555  0.00  0.00    +0.099 C 
ENDBRANCH  13  15
ENDBRANCH   9  13
ENDBRANCH   1  10
BRANCH   4  20
ATOM     20  O   UNL     1      35.225 -21.489 -18.859  0.00  0.00    -0.468 OA
BRANCH  20  21
ATOM     21  C   UNL     1      34.289 -22.559 -18.900  0.00  0.00    +0.264 C 
BRANCH  21  23
ATOM     22  N   UNL     1      32.341 -22.710 -17.471  0.00  0.00    -0.406 NA
ATOM     23  C   UNL     1      33.691 -22.748 -17.546  0.00  0.00    +0.152 C 
ATOM     24  C   UNL     1      32.529 -23.085 -15.099  0.00  0.00    +0.026 C 
ATOM     25  C   UNL     1      31.765 -22.876 -16.266  0.00  0.00    +0.113 C 
ATOM     26  C   UNL     1      34.521 -22.946 -16.461  0.00  0.00    +0.031 C 
ATOM     27  C   UNL     1      33.925 -23.116 -15.220  0.00  0.00    +0.005 C 
ATOM     28  C   UNL     1      31.894 -23.255 -13.856  0.00  0.00    +0.002 C 
ATOM     29  C   UNL     1      30.379 -22.845 -16.144  0.00  0.00    +0.085 C 
ATOM     30  C   UNL     1      30.506 -23.219 -13.764  0.00  0.00    -0.004 C 
ATOM     31  C   UNL     1      29.747 -23.014 -14.909  0.00  0.00    -0.019 C 
ENDBRANCH  21  23
ENDBRANCH  20  21
ENDBRANCH   4  20
TORSDOF 6
ENDMDL
MODEL 3
REMARK VINA RESULT:     -12.3      3.054      6.003
REMARK  Name = 44141871
REMARK  6 active torsions:
REMARK  status: ('A' for Active; 'I' for Inactive)
REMARK    1  A    between atoms: C_1  and  C_10
REMARK    2  A    between atoms: C_4  and  O_20
REMARK    3  A    between atoms: C_9  and  C_13
REMARK    4  A    between atoms: C_13  and  C_15
REMARK    5  A    between atoms: O_20  and  C_21
REMARK    6  A    between atoms: C_21  and  C_23
REMARK                            x       y       z     vdW  Elec       q    Type
REMARK                         _______ _______ _______ _____ _____    ______ ____
ROOT
ATOM      1  C   UNL     1      35.272 -18.093 -22.070  0.00  0.00    +0.015 C 
ATOM      2  C   UNL     1      36.571 -18.042 -21.565  0.00  0.00    +0.004 C 
ATOM      3  C   UNL     1      34.394 -19.087 -21.638  0.00  0.00    +0.004 C 
ATOM      4  C   UNL     1      36.114 -19.979 -20.194  0.00  0.00    +0.139 C 
ATOM      5  C   UNL     1      36.992 -18.985 -20.627  0.00  0.00    +0.037 C 
ATOM      6  C   UNL     1      34.815 -20.030 -20.700  0.00  0.00    +0.037 C 
ENDROOT
BRANCH   1  10
ATOM      7  N   UNL     1      34.585 -17.437 -24.341  0.00  0.00    -0.236 N 
ATOM      8  N   UNL     1      34.191 -16.393 -25.090  0.00  0.00    -0.180 NA
ATOM      9  C   UNL     1      34.592 -15.771 -22.929  0.00  0.00    +0.018 C 
ATOM     10  C   UNL     1      34.837 -17.118 -23.040  0.00  0.00    +0.063 C 
ATOM     11  C   UNL     1      34.197 -15.377 -24.222  0.00  0.00    +0.115 C 
ATOM     12  H   UNL     1      34.681 -18.349 -24.699  0.00  0.00    +0.174 HD
BRANCH   9  13
ATOM     13  C   UNL     1      34.712 -14.918 -21.734  0.00  0.00    +0.056 C 
BRANCH  13  15
ATOM     14  N   UNL     1      32.133 -11.454 -21.737  0.00  0.00    -0.242 NA
ATOM     15  C   UNL     1      33.803 -13.696 -21.735  0.00  0.00    -0.015 C 
ATOM     16  C   UNL     1      32.843 -13.540 -20.740  0.00  0.00    +0.017 C 
ATOM     17  C   UNL     1      33.929 -12.733 -22.729  0.00  0.00    +0.017 C 
ATOM     18  C   UNL     1      32.041 -12.412 -20.786  0.00  0.00    +0.099 C 
ATOM     19  C   UNL     1      33.077 -11.641 -22.686  0.00  0.00    +0.099 C 
ENDBRANCH  13  15
ENDBRANCH   9  13
ENDBRANCH   1  10
BRANCH   4  20
ATOM     20  O   UNL     1      36.526 -20.903 -19.271  0.00  0.00    -0.468 OA
BRANCH  20  21
ATOM     21  C   UNL     1      35.531 -21.772 -18.746  0.00  0.00    +0.264 C 
BRANCH  21  23
ATOM     22  N   UNL     1      34.900 -22.745 -16.621  0.00  0.00    -0.406 NA
ATOM     23  C   UNL     1      35.856 -22.097 -17.326  0.00  0.00    +0.152 C 
ATOM     24  C   UNL     1      36.381 -22.723 -14.721  0.00  0.00    +0.026 C 
ATOM     25  C   UNL     1      35.157 -23.055 -15.336  0.00  0.00    +0.113 C 
ATOM     26  C   UNL     1      37.082 -21.730 -16.811  0.00  0.00    +0.031 C 
ATOM     27  C   UNL     1      37.344 -22.051 -15.487  0.00  0.00    +0.005 C 
ATOM     28  C   UNL     1      36.616 -23.063 -13.378  0.00  0.00    +0.002 C 
ATOM     29  C   UNL     1      34.201 -23.722 -14.575  0.00  0.00    +0.085 C 
ATOM     30  C   UNL     1      35.642 -23.729 -12.639  0.00  0.00    -0.004 C 
ATOM     31  C   UNL     1      34.433 -24.060 -13.239  0.00  0.00    -0.019 C 
ENDBRANCH  21  23
ENDBRANCH  20  21
ENDBRANCH   4  20
TORSDOF 6
ENDMDL
MODEL 4
REMARK VINA RESULT:     -12.2      3.815     12.085
REMARK  Name = 44141871
REMARK  6 active torsions:
REMARK  status: ('A' for Active; 'I' for Inactive)
REMARK    1  A    between atoms: C_1  and  C_10
REMARK    2  A    between atoms: C_4  and  O_20
REMARK    3  A    between atoms: C_9  and  C_13
REMARK    4  A    between atoms: C_13  and  C_15
REMARK    5  A    between atoms: O_20  and  C_21
REMARK    6  A    between atoms: C_21  and  C_23
REMARK                            x       y       z     vdW  Elec       q    Type
REMARK                         _______ _______ _______ _____ _____    ______ ____
ROOT
ATOM      1  C   UNL     1      33.912 -21.708 -18.451  0.00  0.00    +0.015 C 
ATOM      2  C   UNL     1      35.282 -21.714 -18.716  0.00  0.00    +0.004 C 
ATOM      3  C   UNL     1      33.051 -20.956 -19.250  0.00  0.00    +0.004 C 
ATOM      4  C   UNL     1      34.928 -20.218 -20.580  0.00  0.00    +0.139 C 
ATOM      5  C   UNL     1      35.789 -20.969 -19.781  0.00  0.00    +0.037 C 
ATOM      6  C   UNL     1      33.559 -20.211 -20.315  0.00  0.00    +0.037 C 
ENDROOT
BRANCH   1  10
ATOM      7  N   UNL     1      32.076 -22.837 -17.264  0.00  0.00    -0.236 N 
ATOM      8  N   UNL     1      31.779 -23.552 -16.164  0.00  0.00    -0.180 NA
ATOM      9  C   UNL     1      33.993 -22.992 -16.229  0.00  0.00    +0.018 C 
ATOM     10  C   UNL     1      33.388 -22.478 -17.350  0.00  0.00    +0.063 C 
ATOM     11  C   UNL     1      32.954 -23.643 -15.536  0.00  0.00    +0.115 C 
ATOM     12  H   UNL     1      31.406 -22.596 -17.945  0.00  0.00    +0.174 HD
BRANCH   9  13
ATOM     13  C   UNL     1      35.407 -22.892 -15.830  0.00  0.00    +0.056 C 
BRANCH  13  15
ATOM     14  N   UNL     1      36.469 -25.263 -12.380  0.00  0.00    -0.242 NA
ATOM     15  C   UNL     1      35.782 -23.728 -14.613  0.00  0.00    -0.015 C 
ATOM     16  C   UNL     1      35.650 -23.197 -13.334  0.00  0.00    +0.017 C 
ATOM     17  C   UNL     1      36.256 -25.025 -14.776  0.00  0.00    +0.017 C 
ATOM     18  C   UNL     1      36.004 -23.999 -12.261  0.00  0.00    +0.099 C 
ATOM     19  C   UNL     1      36.583 -25.744 -13.638  0.00  0.00    +0.099 C 
ENDBRANCH  13  15
ENDBRANCH   9  13
ENDBRANCH   1  10
BRANCH   4  20
ATOM     20  O   UNL     1      35.426 -19.489 -21.628  0.00  0.00    -0.468 OA
BRANCH  20  21
ATOM     21  C   UNL     1      35.919 -18.190 -21.328  0.00  0.00    +0.264 C 
BRANCH  21  23
ATOM     22  N   UNL     1      35.120 -15.950 -21.776  0.00  0.00    -0.406 NA
ATOM     23  C   UNL     1      35.305 -17.199 -22.260  0.00  0.00    +0.152 C 
ATOM     24  C   UNL     1      34.186 -15.334 -23.910  0.00  0.00    +0.026 C 
ATOM     25  C   UNL     1      34.568 -15.028 -22.588  0.00  0.00    +0.113 C 
ATOM     26  C   UNL     1      34.963 -17.593 -23.537  0.00  0.00    +0.031 C 
ATOM     27  C   UNL     1      34.395 -16.641 -24.372  0.00  0.00    +0.005 C 
ATOM     28  C   UNL     1      33.613 -14.347 -24.730  0.00  0.00    +0.002 C 
ATOM     29  C   UNL     1      34.360 -13.729 -22.130  0.00  0.00    +0.085 C 
ATOM     30  C   UNL     1      33.416 -13.057 -24.247  0.00  0.00    -0.004 C 
ATOM     31  C   UNL     1      33.791 -12.748 -22.945  0.00  0.00    -0.019 C 
ENDBRANCH  21  23
ENDBRANCH  20  21
ENDBRANCH   4  20
TORSDOF 6
ENDMDL
MODEL 5
REMARK VINA RESULT:     -12.2      1.732      2.902
REMARK  Name = 44141871
REMARK  6 active torsions:
REMARK  status: ('A' for Active; 'I' for Inactive)
REMARK    1  A    between atoms: C_1  and  C_10
REMARK    2  A    between atoms: C_4  and  O_20
REMARK    3  A    between atoms: C_9  and  C_13
REMARK    4  A    between atoms: C_13  and  C_15
REMARK    5  A    between atoms: O_20  and  C_21
REMARK    6  A    between atoms: C_21  and  C_23
REMARK                            x       y       z     vdW  Elec       q    Type
REMARK                         _______ _______ _______ _____ _____    ______ ____
ROOT
ATOM      1  C   UNL     1      34.016 -12.477 -23.687  0.00  0.00    +0.015 C 
ATOM      2  C   UNL     1      33.648 -13.221 -24.808  0.00  0.00    +0.004 C 
ATOM      3  C   UNL     1      34.337 -13.127 -22.495  0.00  0.00    +0.004 C 
ATOM      4  C   UNL     1      33.921 -15.263 -23.545  0.00  0.00    +0.139 C 
ATOM      5  C   UNL     1      33.601 -14.613 -24.737  0.00  0.00    +0.037 C 
ATOM      6  C   UNL     1      34.290 -14.519 -22.424  0.00  0.00    +0.037 C 
ENDROOT
BRANCH   1  10
ATOM      7  N   UNL     1      35.080 -10.368 -24.378  0.00  0.00    -0.236 N 
ATOM      8  N   UNL     1      34.949  -9.030 -24.342  0.00  0.00    -0.180 NA
ATOM      9  C   UNL     1      33.210 -10.073 -23.288  0.00  0.00    +0.018 C 
ATOM     10  C   UNL     1      34.065 -11.038 -23.761  0.00  0.00    +0.063 C 
ATOM     11  C   UNL     1      33.805  -8.856 -23.675  0.00  0.00    +0.115 C 
ATOM     12  H   UNL     1      35.839 -10.822 -24.811  0.00  0.00    +0.174 HD
BRANCH   9  13
ATOM     13  C   UNL     1      31.953 -10.255 -22.542  0.00  0.00    +0.056 C 
BRANCH  13  15
ATOM     14  N   UNL     1      31.994  -8.644 -18.536  0.00  0.00    -0.242 NA
ATOM     15  C   UNL     1      31.968  -9.686 -21.129  0.00  0.00    -0.015 C 
ATOM     16  C   UNL     1      31.651 -10.500 -20.047  0.00  0.00    +0.017 C 
ATOM     17  C   UNL     1      32.298  -8.353 -20.916  0.00  0.00    +0.017 C 
ATOM     18  C   UNL     1      31.678  -9.935 -18.782  0.00  0.00    +0.099 C 
ATOM     19  C   UNL     1      32.297  -7.884 -19.612  0.00  0.00    +0.099 C 
ENDBRANCH  13  15
ENDBRANCH   9  13
ENDBRANCH   1  10
BRANCH   4  20
ATOM     20  O   UNL     1      33.879 -16.630 -23.476  0.00  0.00    -0.468 OA
BRANCH  20  21
ATOM     21  C   UNL     1      35.102 -17.321 -23.688  0.00  0.00    +0.264 C 
BRANCH  21  23
ATOM     22  N   UNL     1      34.290 -18.882 -22.027  0.00  0.00    -0.406 NA
ATOM     23  C   UNL     1      35.362 -18.235 -22.538  0.00  0.00    +0.152 C 
ATOM     24  C   UNL     1      35.763 -19.924 -20.431  0.00  0.00    +0.026 C 
ATOM     25  C   UNL     1      34.485 -19.715 -20.988  0.00  0.00    +0.113 C 
ATOM     26  C   UNL     1      36.649 -18.374 -22.061  0.00  0.00    +0.031 C 
ATOM     27  C   UNL     1      36.847 -19.234 -20.990  0.00  0.00    +0.005 C 
ATOM     28  C   UNL     1      35.930 -20.802 -19.346  0.00  0.00    +0.002 C 
ATOM     29  C   UNL     1      33.408 -20.402 -20.431  0.00  0.00    +0.085 C 
ATOM     30  C   UNL     1      34.836 -21.475 -18.809  0.00  0.00    -0.004 C 
ATOM     31  C   UNL     1      33.574 -21.275 -19.353  0.00  0.00    -0.019 C 
ENDBRANCH  21  23
ENDBRANCH  20  21
ENDBRANCH   4  20
TORSDOF 6
ENDMDL
MODEL 6
REMARK VINA RESULT:     -12.1      1.864     10.884
REMARK  Name = 44141871
REMARK  6 active torsions:
REMARK  status: ('A' for Active; 'I' for Inactive)
REMARK    1  A    between atoms: C_1  and  C_10
REMARK    2  A    between atoms: C_4  and  O_20
REMARK    3  A    between atoms: C_9  and  C_13
REMARK    4  A    between atoms: C_13  and  C_15
REMARK    5  A    between atoms: O_20  and  C_21
REMARK    6  A    between atoms: C_21  and  C_23
REMARK                            x       y       z     vdW  Elec       q    Type
REMARK                         _______ _______ _______ _____ _____    ______ ____
ROOT
ATOM      1  C   UNL     1      34.338 -16.180 -23.361  0.00  0.00    +0.015 C 
ATOM      2  C   UNL     1      33.790 -15.399 -24.379  0.00  0.00    +0.004 C 
ATOM      3  C   UNL     1      34.749 -15.582 -22.170  0.00  0.00    +0.004 C 
ATOM      4  C   UNL     1      34.063 -13.424 -23.014  0.00  0.00    +0.139 C 
ATOM      5  C   UNL     1      33.652 -14.022 -24.205  0.00  0.00    +0.037 C 
ATOM      6  C   UNL     1      34.611 -14.205 -21.996  0.00  0.00    +0.037 C 
ENDROOT
BRANCH   1  10
ATOM      7  N   UNL     1      34.119 -18.238 -24.693  0.00  0.00    -0.236 N 
ATOM      8  N   UNL     1      34.326 -19.566 -24.668  0.00  0.00    -0.180 NA
ATOM      9  C   UNL     1      34.956 -18.583 -22.704  0.00  0.00    +0.018 C 
ATOM     10  C   UNL     1      34.480 -17.603 -23.541  0.00  0.00    +0.063 C 
ATOM     11  C   UNL     1      34.837 -19.772 -23.452  0.00  0.00    +0.115 C 
ATOM     12  H   UNL     1      33.742 -17.767 -25.471  0.00  0.00    +0.174 HD
BRANCH   9  13
ATOM     13  C   UNL     1      35.475 -18.439 -21.334  0.00  0.00    +0.056 C 
BRANCH  13  15
ATOM     14  N   UNL     1      34.780 -21.854 -18.783  0.00  0.00    -0.242 NA
ATOM     15  C   UNL     1      35.230 -19.643 -20.434  0.00  0.00    -0.015 C 
ATOM     16  C   UNL     1      36.304 -20.320 -19.866  0.00  0.00    +0.017 C 
ATOM     17  C   UNL     1      33.932 -20.071 -20.178  0.00  0.00    +0.017 C 
ATOM     18  C   UNL     1      36.028 -21.409 -19.056  0.00  0.00    +0.099 C 
ATOM     19  C   UNL     1      33.762 -21.171 -19.353  0.00  0.00    +0.099 C 
ENDBRANCH  13  15
ENDBRANCH   9  13
ENDBRANCH   1  10
BRANCH   4  20
ATOM     20  O   UNL     1      33.925 -12.073 -22.842  0.00  0.00    -0.468 OA
BRANCH  20  21
ATOM     21  C   UNL     1      33.925 -11.274 -24.017  0.00  0.00    +0.264 C 
BRANCH  21  23
ATOM     22  N   UNL     1      32.587  -9.389 -23.297  0.00  0.00    -0.406 NA
ATOM     23  C   UNL     1      33.818  -9.834 -23.638  0.00  0.00    +0.152 C 
ATOM     24  C   UNL     1      33.549  -7.210 -22.934  0.00  0.00    +0.026 C 
ATOM     25  C   UNL     1      32.451  -8.096 -22.950  0.00  0.00    +0.113 C 
ATOM     26  C   UNL     1      34.949  -9.044 -23.654  0.00  0.00    +0.031 C 
ATOM     27  C   UNL     1      34.806  -7.711 -23.295  0.00  0.00    +0.005 C 
ATOM     28  C   UNL     1      33.370  -5.866 -22.565  0.00  0.00    +0.002 C 
ATOM     29  C   UNL     1      31.202  -7.597 -22.591  0.00  0.00    +0.085 C 
ATOM     30  C   UNL     1      32.109  -5.393 -22.212  0.00  0.00    -0.004 C 
ATOM     31  C   UNL     1      31.024  -6.260 -22.224  0.00  0.00    -0.019 C 
ENDBRANCH  21  23
ENDBRANCH  20  21
ENDBRANCH   4  20
TORSDOF 6
ENDMDL
MODEL 7
REMARK VINA RESULT:     -12.0      1.984     10.504
REMARK  Name = 44141871
REMARK  6 active torsions:
REMARK  status: ('A' for Active; 'I' for Inactive)
REMARK    1  A    between atoms: C_1  and  C_10
REMARK    2  A    between atoms: C_4  and  O_20
REMARK    3  A    between atoms: C_9  and  C_13
REMARK    4  A    between atoms: C_13  and  C_15
REMARK    5  A    between atoms: O_20  and  C_21
REMARK    6  A    between atoms: C_21  and  C_23
REMARK                            x       y       z     vdW  Elec       q    Type
REMARK                         _______ _______ _______ _____ _____    ______ ____
ROOT
ATOM      1  C   UNL     1      35.184 -16.590 -22.413  0.00  0.00    +0.015 C 
ATOM      2  C   UNL     1      34.874 -15.480 -21.628  0.00  0.00    +0.004 C 
ATOM      3  C   UNL     1      34.766 -16.643 -23.743  0.00  0.00    +0.004 C 
ATOM      4  C   UNL     1      33.728 -14.474 -23.503  0.00  0.00    +0.139 C 
ATOM      5  C   UNL     1      34.146 -14.422 -22.173  0.00  0.00    +0.037 C 
ATOM      6  C   UNL     1      34.038 -15.585 -24.288  0.00  0.00    +0.037 C 
ENDROOT
BRANCH   1  10
ATOM      7  N   UNL     1      37.297 -17.669 -21.757  0.00  0.00    -0.236 N 
ATOM      8  N   UNL     1      37.817 -18.779 -21.205  0.00  0.00    -0.180 NA
ATOM      9  C   UNL     1      35.537 -18.887 -21.322  0.00  0.00    +0.018 C 
ATOM     10  C   UNL     1      35.937 -17.684 -21.850  0.00  0.00    +0.063 C 
ATOM     11  C   UNL     1      36.737 -19.520 -20.940  0.00  0.00    +0.115 C 
ATOM     12  H   UNL     1      37.849 -16.914 -22.067  0.00  0.00    +0.174 HD
BRANCH   9  13
ATOM     13  C   UNL     1      34.168 -19.411 -21.180  0.00  0.00    +0.056 C 
BRANCH  13  15
ATOM     14  N   UNL     1      33.669 -22.291 -18.001  0.00  0.00    -0.242 NA
ATOM     15  C   UNL     1      33.992 -20.426 -20.059  0.00  0.00    -0.015 C 
ATOM     16  C   UNL     1      35.101 -21.071 -19.521  0.00  0.00    +0.017 C 
ATOM     17  C   UNL     1      32.723 -20.712 -19.569  0.00  0.00    +0.017 C 
ATOM     18  C   UNL     1      34.887 -21.986 -18.503  0.00  0.00    +0.099 C 
ATOM     19  C   UNL     1      32.616 -21.644 -18.548  0.00  0.00    +0.099 C 
ENDBRANCH  13  15
ENDBRANCH   9  13
ENDBRANCH   1  10
BRANCH   4  20
ATOM     20  O   UNL     1      33.016 -13.434 -24.039  0.00  0.00    -0.468 OA
BRANCH  20  21
ATOM     21  C   UNL     1      33.648 -12.690 -25.072  0.00  0.00    +0.264 C 
BRANCH  21  23
ATOM     22  N   UNL     1      33.182 -10.854 -23.566  0.00  0.00    -0.406 NA
ATOM     23  C   UNL     1      33.951 -11.315 -24.579  0.00  0.00    +0.152 C 
ATOM     24  C   UNL     1      34.448  -8.805 -23.626  0.00  0.00    +0.026 C 
ATOM     25  C   UNL     1      33.426  -9.617 -23.094  0.00  0.00    +0.113 C 
ATOM     26  C   UNL     1      34.972 -10.595 -25.164  0.00  0.00    +0.031 C 
ATOM     27  C   UNL     1      35.221  -9.320 -24.676  0.00  0.00    +0.005 C 
ATOM     28  C   UNL     1      34.675  -7.518 -23.109  0.00  0.00    +0.002 C 
ATOM     29  C   UNL     1      32.658  -9.104 -22.051  0.00  0.00    +0.085 C 
ATOM     30  C   UNL     1      33.892  -7.030 -22.067  0.00  0.00    -0.004 C 
ATOM     31  C   UNL     1      32.883  -7.824 -21.537  0.00  0.00    -0.019 C 
ENDBRANCH  21  23
ENDBRANCH  20  21
ENDBRANCH   4  20
TORSDOF 6
ENDMDL
MODEL 8
REMARK VINA RESULT:     -12.0      3.043      6.306
REMARK  Name = 44141871
REMARK  6 active torsions:
REMARK  status: ('A' for Active; 'I' for Inactive)
REMARK    1  A    between atoms: C_1  and  C_10
REMARK    2  A    between atoms: C_4  and  O_20
REMARK    3  A    between atoms: C_9  and  C_13
REMARK    4  A    between atoms: C_13  and  C_15
REMARK    5  A    between atoms: O_20  and  C_21
REMARK    6  A    between atoms: C_21  and  C_23
REMARK                            x       y       z     vdW  Elec       q    Type
REMARK                         _______ _______ _______ _____ _____    ______ ____
ROOT
ATOM      1  C   UNL     1      35.048 -18.377 -21.904  0.00  0.00    +0.015 C 
ATOM      2  C   UNL     1      34.018 -19.250 -21.553  0.00  0.00    +0.004 C 
ATOM      3  C   UNL     1      36.281 -18.460 -21.258  0.00  0.00    +0.004 C 
ATOM      4  C   UNL     1      35.455 -20.287 -19.910  0.00  0.00    +0.139 C 
ATOM      5  C   UNL     1      34.222 -20.204 -20.557  0.00  0.00    +0.037 C 
ATOM      6  C   UNL     1      36.485 -19.414 -20.262  0.00  0.00    +0.037 C 
ENDROOT
BRANCH   1  10
ATOM      7  N   UNL     1      34.644 -17.725 -24.243  0.00  0.00    -0.236 N 
ATOM      8  N   UNL     1      34.466 -16.666 -25.053  0.00  0.00    -0.180 NA
ATOM      9  C   UNL     1      34.783 -16.019 -22.884  0.00  0.00    +0.018 C 
ATOM     10  C   UNL     1      34.837 -17.391 -22.935  0.00  0.00    +0.063 C 
ATOM     11  C   UNL     1      34.552 -15.627 -24.217  0.00  0.00    +0.115 C 
ATOM     12  H   UNL     1      34.634 -18.655 -24.565  0.00  0.00    +0.174 HD
BRANCH   9  13
ATOM     13  C   UNL     1      34.931 -15.144 -21.709  0.00  0.00    +0.056 C 
BRANCH  13  15
ATOM     14  N   UNL     1      32.182 -11.816 -21.594  0.00  0.00    -0.242 NA
ATOM     15  C   UNL     1      33.962 -13.970 -21.669  0.00  0.00    -0.015 C 
ATOM     16  C   UNL     1      33.045 -13.858 -20.628  0.00  0.00    +0.017 C 
ATOM     17  C   UNL     1      33.989 -13.007 -22.670  0.00  0.00    +0.017 C 
ATOM     18  C   UNL     1      32.185 -12.772 -20.638  0.00  0.00    +0.099 C 
ATOM     19  C   UNL     1      33.087 -11.959 -22.588  0.00  0.00    +0.099 C 
ENDBRANCH  13  15
ENDBRANCH   9  13
ENDBRANCH   1  10
BRANCH   4  20
ATOM     20  O   UNL     1      35.656 -21.226 -18.934  0.00  0.00    -0.468 OA
BRANCH  20  21
ATOM     21  C   UNL     1      34.931 -22.443 -19.056  0.00  0.00    +0.264 C 
BRANCH  21  23
ATOM     22  N   UNL     1      34.790 -23.075 -16.724  0.00  0.00    -0.406 NA
ATOM     23  C   UNL     1      34.119 -22.662 -17.823  0.00  0.00    +0.152 C 
ATOM     24  C   UNL     1      32.697 -23.083 -15.532  0.00  0.00    +0.026 C 
ATOM     25  C   UNL     1      34.091 -23.283 -15.592  0.00  0.00    +0.113 C 
ATOM     26  C   UNL     1      32.758 -22.440 -17.861  0.00  0.00    +0.031 C 
ATOM     27  C   UNL     1      32.040 -22.655 -16.693  0.00  0.00    +0.005 C 
ATOM     28  C   UNL     1      31.999 -23.310 -14.333  0.00  0.00    +0.002 C 
ATOM     29  C   UNL     1      34.743 -23.708 -14.437  0.00  0.00    +0.085 C 
ATOM     30  C   UNL     1      32.676 -23.735 -13.193  0.00  0.00    -0.004 C 
ATOM     31  C   UNL     1      34.049 -23.934 -13.246  0.00  0.00    -0.019 C 
ENDBRANCH  21  23
ENDBRANCH  20  21
ENDBRANCH   4  20
TORSDOF 6
ENDMDL
MODEL 9
REMARK VINA RESULT:     -11.8      2.263      4.056
REMARK  Name = 44141871
REMARK  6 active torsions:
REMARK  status: ('A' for Active; 'I' for Inactive)
REMARK    1  A    between atoms: C_1  and  C_10
REMARK    2  A    between atoms: C_4  and  O_20
REMARK    3  A    between atoms: C_9  and  C_13
REMARK    4  A    between atoms: C_13  and  C_15
REMARK    5  A    between atoms: O_20  and  C_21
REMARK    6  A    between atoms: C_21  and  C_23
REMARK                            x       y       z     vdW  Elec       q    Type
REMARK                         _______ _______ _______ _____ _____    ______ ____
ROOT
ATOM      1  C   UNL     1      32.268  -9.279 -21.711  0.00  0.00    +0.015 C 
ATOM      2  C   UNL     1      33.113  -9.540 -22.789  0.00  0.00    +0.004 C 
ATOM      3  C   UNL     1      31.655 -10.333 -21.034  0.00  0.00    +0.004 C 
ATOM      4  C   UNL     1      32.732 -11.911 -22.513  0.00  0.00    +0.139 C 
ATOM      5  C   UNL     1      33.345 -10.856 -23.190  0.00  0.00    +0.037 C 
ATOM      6  C   UNL     1      31.887 -11.649 -21.435  0.00  0.00    +0.037 C 
ENDROOT
BRANCH   1  10
ATOM      7  N   UNL     1      32.152  -7.512 -20.001  0.00  0.00    -0.236 N 
ATOM      8  N   UNL     1      31.886  -6.208 -19.813  0.00  0.00    -0.180 NA
ATOM      9  C   UNL     1      31.654  -6.803 -22.006  0.00  0.00    +0.018 C 
ATOM     10  C   UNL     1      32.028  -7.918 -21.297  0.00  0.00    +0.063 C 
ATOM     11  C   UNL     1      31.582  -5.780 -21.041  0.00  0.00    +0.115 C 
ATOM     12  H   UNL     1      32.414  -8.118 -19.270  0.00  0.00    +0.174 HD
BRANCH   9  13
ATOM     13  C   UNL     1      31.385  -6.690 -23.450  0.00  0.00    +0.056 C 
BRANCH  13  15
ATOM     14  N   UNL     1      34.357  -4.468 -25.659  0.00  0.00    -0.242 NA
ATOM     15  C   UNL     1      32.433  -5.906 -24.229  0.00  0.00    -0.015 C 
ATOM     16  C   UNL     1      32.041  -5.006 -25.215  0.00  0.00    +0.017 C 
ATOM     17  C   UNL     1      33.784  -6.087 -23.958  0.00  0.00    +0.017 C 
ATOM     18  C   UNL     1      33.034  -4.319 -25.894  0.00  0.00    +0.099 C 
ATOM     19  C   UNL     1      34.698  -5.351 -24.694  0.00  0.00    +0.099 C 
ENDBRANCH  13  15
ENDBRANCH   9  13
ENDBRANCH   1  10
BRANCH   4  20
ATOM     20  O   UNL     1      32.963 -13.202 -22.905  0.00  0.00    -0.468 OA
BRANCH  20  21
ATOM     21  C   UNL     1      34.302 -13.540 -23.244  0.00  0.00    +0.264 C 
BRANCH  21  23
ATOM     22  N   UNL     1      34.906 -15.578 -22.086  0.00  0.00    -0.406 NA
ATOM     23  C   UNL     1      34.457 -15.024 -23.235  0.00  0.00    +0.152 C 
ATOM     24  C   UNL     1      34.765 -17.735 -23.147  0.00  0.00    +0.026 C 
ATOM     25  C   UNL     1      35.059 -16.914 -22.040  0.00  0.00    +0.113 C 
ATOM     26  C   UNL     1      34.144 -15.744 -24.370  0.00  0.00    +0.031 C 
ATOM     27  C   UNL     1      34.302 -17.122 -24.319  0.00  0.00    +0.005 C 
ATOM     28  C   UNL     1      34.935 -19.128 -23.064  0.00  0.00    +0.002 C 
ATOM     29  C   UNL     1      35.518 -17.525 -20.875  0.00  0.00    +0.085 C 
ATOM     30  C   UNL     1      35.397 -19.712 -21.887  0.00  0.00    -0.004 C 
ATOM     31  C   UNL     1      35.688 -18.909 -20.792  0.00  0.00    -0.019 C 
ENDBRANCH  21  23
ENDBRANCH  20  21
ENDBRANCH   4  20
TORSDOF 6
ENDMDL
