MODEL 1
REMARK VINA RESULT:     -11.6      0.000      0.000
REMARK  Name = 10389239
REMARK  2 active torsions:
REMARK  status: ('A' for Active; 'I' for Inactive)
REMARK    1  A    between atoms: C_2  and  C_14
REMARK    2  A    between atoms: C_4  and  C_20
REMARK                            x       y       z     vdW  Elec       q    Type
REMARK                         _______ _______ _______ _____ _____    ______ ____
ROOT
ATOM      1  N   UNL     1      31.986 -22.334 -17.675  0.00  0.00    -0.244 NA
ATOM      2  C   UNL     1      33.799 -23.294 -15.778  0.00  0.00    +0.016 C 
ATOM      3  C   UNL     1      34.250 -22.535 -16.851  0.00  0.00    +0.020 C 
ATOM      4  C   UNL     1      33.311 -22.083 -17.764  0.00  0.00    +0.083 C 
ATOM      5  C   UNL     1      32.444 -23.577 -15.651  0.00  0.00    +0.022 C 
ATOM      6  C   UNL     1      31.586 -23.076 -16.618  0.00  0.00    +0.099 C 
ENDROOT
BRANCH   2  14
ATOM      7  O   UNL     1      35.395 -25.025 -10.687  0.00  0.00    -0.270 OA
ATOM      8  N   UNL     1      36.067 -23.964 -15.085  0.00  0.00    -0.316 N 
ATOM      9  N   UNL     1      37.472 -25.521 -11.572  0.00  0.00    -0.300 N 
ATOM     10  C   UNL     1      36.701 -24.438 -13.973  0.00  0.00    +0.031 C 
ATOM     11  C   UNL     1      38.148 -24.733 -13.851  0.00  0.00    +0.063 C 
ATOM     12  C   UNL     1      35.774 -24.577 -12.961  0.00  0.00    +0.064 C 
ATOM     13  C   UNL     1      38.322 -25.776 -12.741  0.00  0.00    +0.096 C 
ATOM     14  C   UNL     1      34.735 -23.791 -14.797  0.00  0.00    +0.048 C 
ATOM     15  C   UNL     1      34.527 -24.158 -13.482  0.00  0.00    +0.020 C 
ATOM     16  C   UNL     1      36.160 -25.054 -11.647  0.00  0.00    +0.247 C 
ATOM     17  H   UNL     1      36.493 -23.778 -15.952  0.00  0.00    +0.152 HD
ATOM     18  H   UNL     1      37.852 -25.691 -10.680  0.00  0.00    +0.150 HD
ENDBRANCH   2  14
BRANCH   4  20
ATOM     19  N   UNL     1      33.092 -20.168 -20.953  0.00  0.00    -0.244 NA
ATOM     20  C   UNL     1      33.705 -21.288 -18.903  0.00  0.00    +0.037 C 
ATOM     21  C   UNL     1      35.018 -20.877 -19.073  0.00  0.00    +0.005 C 
ATOM     22  C   UNL     1      35.376 -20.106 -20.188  0.00  0.00    +0.018 C 
ATOM     23  C   UNL     1      34.368 -19.770 -21.116  0.00  0.00    +0.081 C 
ATOM     24  C   UNL     1      32.788 -20.911 -19.864  0.00  0.00    +0.100 C 
ATOM     25  C   UNL     1      36.698 -19.672 -20.389  0.00  0.00    +0.001 C 
ATOM     26  C   UNL     1      34.724 -19.004 -22.222  0.00  0.00    +0.019 C 
ATOM     27  C   UNL     1      37.027 -18.907 -21.505  0.00  0.00    +0.000 C 
ATOM     28  C   UNL     1      36.038 -18.573 -22.423  0.00  0.00    +0.002 C 
ENDBRANCH   4  20
TORSDOF 2
ENDMDL
MODEL 2
REMARK VINA RESULT:     -11.4      4.131      9.295
REMARK  Name = 10389239
REMARK  2 active torsions:
REMARK  status: ('A' for Active; 'I' for Inactive)
REMARK    1  A    between atoms: C_2  and  C_14
REMARK    2  A    between atoms: C_4  and  C_20
REMARK                            x       y       z     vdW  Elec       q    Type
REMARK                         _______ _______ _______ _____ _____    ______ ____
ROOT
ATOM      1  N   UNL     1      35.621 -22.264 -17.554  0.00  0.00    -0.244 NA
ATOM      2  C   UNL     1      35.243 -20.527 -19.710  0.00  0.00    +0.016 C 
ATOM      3  C   UNL     1      34.147 -21.017 -19.010  0.00  0.00    +0.020 C 
ATOM      4  C   UNL     1      34.388 -21.875 -17.949  0.00  0.00    +0.083 C 
ATOM      5  C   UNL     1      36.528 -20.904 -19.335  0.00  0.00    +0.022 C 
ATOM      6  C   UNL     1      36.661 -21.766 -18.259  0.00  0.00    +0.099 C 
ENDROOT
BRANCH   2  14
ATOM      7  O   UNL     1      33.637 -19.129 -24.899  0.00  0.00    -0.270 OA
ATOM      8  N   UNL     1      35.490 -18.329 -20.795  0.00  0.00    -0.316 N 
ATOM      9  N   UNL     1      34.182 -16.937 -24.414  0.00  0.00    -0.300 N 
ATOM     10  C   UNL     1      35.172 -17.729 -21.979  0.00  0.00    +0.031 C 
ATOM     11  C   UNL     1      35.494 -16.335 -22.367  0.00  0.00    +0.063 C 
ATOM     12  C   UNL     1      34.518 -18.643 -22.777  0.00  0.00    +0.064 C 
ATOM     13  C   UNL     1      34.473 -15.895 -23.422  0.00  0.00    +0.096 C 
ATOM     14  C   UNL     1      35.049 -19.630 -20.824  0.00  0.00    +0.048 C 
ATOM     15  C   UNL     1      34.447 -19.853 -22.046  0.00  0.00    +0.020 C 
ATOM     16  C   UNL     1      34.065 -18.292 -24.110  0.00  0.00    +0.247 C 
ATOM     17  H   UNL     1      35.957 -17.900 -20.042  0.00  0.00    +0.152 HD
ATOM     18  H   UNL     1      34.062 -16.661 -25.351  0.00  0.00    +0.150 HD
ENDBRANCH   2  14
BRANCH   4  20
ATOM     19  N   UNL     1      30.925 -22.764 -16.900  0.00  0.00    -0.244 NA
ATOM     20  C   UNL     1      33.299 -22.424 -17.175  0.00  0.00    +0.037 C 
ATOM     21  C   UNL     1      33.533 -23.120 -15.999  0.00  0.00    +0.005 C 
ATOM     22  C   UNL     1      32.460 -23.644 -15.265  0.00  0.00    +0.018 C 
ATOM     23  C   UNL     1      31.154 -23.439 -15.758  0.00  0.00    +0.081 C 
ATOM     24  C   UNL     1      31.987 -22.275 -17.579  0.00  0.00    +0.100 C 
ATOM     25  C   UNL     1      32.663 -24.355 -14.069  0.00  0.00    +0.001 C 
ATOM     26  C   UNL     1      30.089 -23.960 -15.029  0.00  0.00    +0.019 C 
ATOM     27  C   UNL     1      31.579 -24.864 -13.359  0.00  0.00    +0.000 C 
ATOM     28  C   UNL     1      30.290 -24.666 -13.840  0.00  0.00    +0.002 C 
ENDBRANCH   4  20
TORSDOF 2
ENDMDL
MODEL 3
REMARK VINA RESULT:     -11.3      6.488     11.685
REMARK  Name = 10389239
REMARK  2 active torsions:
REMARK  status: ('A' for Active; 'I' for Inactive)
REMARK    1  A    between atoms: C_2  and  C_14
REMARK    2  A    between atoms: C_4  and  C_20
REMARK                            x       y       z     vdW  Elec       q    Type
REMARK                         _______ _______ _______ _____ _____    ______ ____
ROOT
ATOM      1  N   UNL     1      35.184 -17.497 -23.819  0.00  0.00    -0.244 NA
ATOM      2  C   UNL     1      34.154 -15.009 -23.069  0.00  0.00    +0.016 C 
ATOM      3  C   UNL     1      34.480 -15.949 -22.099  0.00  0.00    +0.020 C 
ATOM      4  C   UNL     1      34.987 -17.168 -22.522  0.00  0.00    +0.083 C 
ATOM      5  C   UNL     1      34.341 -15.310 -24.414  0.00  0.00    +0.022 C 
ATOM      6  C   UNL     1      34.856 -16.557 -24.733  0.00  0.00    +0.099 C 
ENDROOT
BRANCH   2  14
ATOM      7  O   UNL     1      33.273  -9.497 -23.611  0.00  0.00    -0.270 OA
ATOM      8  N   UNL     1      32.940 -13.543 -21.505  0.00  0.00    -0.316 N 
ATOM      9  N   UNL     1      31.899  -9.594 -21.755  0.00  0.00    -0.300 N 
ATOM     10  C   UNL     1      32.564 -12.235 -21.409  0.00  0.00    +0.031 C 
ATOM     11  C   UNL     1      31.832 -11.616 -20.279  0.00  0.00    +0.063 C 
ATOM     12  C   UNL     1      32.999 -11.566 -22.534  0.00  0.00    +0.064 C 
ATOM     13  C   UNL     1      31.094 -10.384 -20.816  0.00  0.00    +0.096 C 
ATOM     14  C   UNL     1      33.622 -13.724 -22.684  0.00  0.00    +0.048 C 
ATOM     15  C   UNL     1      33.678 -12.510 -23.340  0.00  0.00    +0.020 C 
ATOM     16  C   UNL     1      32.752 -10.147 -22.709  0.00  0.00    +0.247 C 
ATOM     17  H   UNL     1      32.753 -14.244 -20.839  0.00  0.00    +0.152 HD
ATOM     18  H   UNL     1      31.831  -8.613 -21.708  0.00  0.00    +0.150 HD
ENDBRANCH   2  14
BRANCH   4  20
ATOM     19  N   UNL     1      37.053 -19.281 -20.253  0.00  0.00    -0.244 NA
ATOM     20  C   UNL     1      35.348 -18.193 -21.572  0.00  0.00    +0.037 C 
ATOM     21  C   UNL     1      34.399 -19.065 -21.061  0.00  0.00    +0.005 C 
ATOM     22  C   UNL     1      34.773 -20.053 -20.139  0.00  0.00    +0.018 C 
ATOM     23  C   UNL     1      36.130 -20.126 -19.758  0.00  0.00    +0.081 C 
ATOM     24  C   UNL     1      36.651 -18.342 -21.140  0.00  0.00    +0.100 C 
ATOM     25  C   UNL     1      33.836 -20.952 -19.601  0.00  0.00    +0.001 C 
ATOM     26  C   UNL     1      36.501 -21.107 -18.843  0.00  0.00    +0.019 C 
ATOM     27  C   UNL     1      34.236 -21.924 -18.688  0.00  0.00    +0.000 C 
ATOM     28  C   UNL     1      35.570 -22.001 -18.308  0.00  0.00    +0.002 C 
ENDBRANCH   4  20
TORSDOF 2
ENDMDL
MODEL 4
REMARK VINA RESULT:     -11.2      1.550      2.027
REMARK  Name = 10389239
REMARK  2 active torsions:
REMARK  status: ('A' for Active; 'I' for Inactive)
REMARK    1  A    between atoms: C_2  and  C_14
REMARK    2  A    between atoms: C_4  and  C_20
REMARK                            x       y       z     vdW  Elec       q    Type
REMARK                         _______ _______ _______ _____ _____    ______ ____
ROOT
ATOM      1  N   UNL     1      33.258 -22.413 -18.091  0.00  0.00    -0.244 NA
ATOM      2  C   UNL     1      34.800 -23.183 -15.891  0.00  0.00    +0.016 C 
ATOM      3  C   UNL     1      35.340 -22.348 -16.862  0.00  0.00    +0.020 C 
ATOM      4  C   UNL     1      34.534 -21.995 -17.933  0.00  0.00    +0.083 C 
ATOM      5  C   UNL     1      33.491 -23.636 -16.018  0.00  0.00    +0.022 C 
ATOM      6  C   UNL     1      32.769 -23.224 -17.127  0.00  0.00    +0.099 C 
ENDROOT
BRANCH   2  14
ATOM      7  O   UNL     1      38.026 -22.322 -11.385  0.00  0.00    -0.270 OA
ATOM      8  N   UNL     1      35.861 -24.901 -14.480  0.00  0.00    -0.316 N 
ATOM      9  N   UNL     1      38.007 -24.602 -11.009  0.00  0.00    -0.300 N 
ATOM     10  C   UNL     1      36.632 -24.971 -13.356  0.00  0.00    +0.031 C 
ATOM     11  C   UNL     1      37.163 -26.208 -12.736  0.00  0.00    +0.063 C 
ATOM     12  C   UNL     1      36.862 -23.692 -12.896  0.00  0.00    +0.064 C 
ATOM     13  C   UNL     1      37.407 -25.920 -11.250  0.00  0.00    +0.096 C 
ATOM     14  C   UNL     1      35.595 -23.582 -14.754  0.00  0.00    +0.048 C 
ATOM     15  C   UNL     1      36.209 -22.809 -13.790  0.00  0.00    +0.020 C 
ATOM     16  C   UNL     1      37.666 -23.449 -11.714  0.00  0.00    +0.247 C 
ATOM     17  H   UNL     1      35.546 -25.670 -15.008  0.00  0.00    +0.152 HD
ATOM     18  H   UNL     1      38.692 -24.529 -10.306  0.00  0.00    +0.150 HD
ENDBRANCH   2  14
BRANCH   4  20
ATOM     19  N   UNL     1      36.857 -19.884 -19.941  0.00  0.00    -0.244 NA
ATOM     20  C   UNL     1      35.026 -21.131 -18.979  0.00  0.00    +0.037 C 
ATOM     21  C   UNL     1      34.200 -20.708 -20.010  0.00  0.00    +0.005 C 
ATOM     22  C   UNL     1      34.700 -19.868 -21.015  0.00  0.00    +0.018 C 
ATOM     23  C   UNL     1      36.053 -19.475 -20.940  0.00  0.00    +0.081 C 
ATOM     24  C   UNL     1      36.336 -20.693 -18.991  0.00  0.00    +0.100 C 
ATOM     25  C   UNL     1      33.889 -19.422 -22.073  0.00  0.00    +0.001 C 
ATOM     26  C   UNL     1      36.549 -18.641 -21.938  0.00  0.00    +0.019 C 
ATOM     27  C   UNL     1      34.412 -18.589 -23.058  0.00  0.00    +0.000 C 
ATOM     28  C   UNL     1      35.744 -18.198 -22.990  0.00  0.00    +0.002 C 
ENDBRANCH   4  20
TORSDOF 2
ENDMDL
MODEL 5
REMARK VINA RESULT:     -11.1      3.380      8.597
REMARK  Name = 10389239
REMARK  2 active torsions:
REMARK  status: ('A' for Active; 'I' for Inactive)
REMARK    1  A    between atoms: C_2  and  C_14
REMARK    2  A    between atoms: C_4  and  C_20
REMARK                            x       y       z     vdW  Elec       q    Type
REMARK                         _______ _______ _______ _____ _____    ______ ____
ROOT
ATOM      1  N   UNL     1      35.922 -23.185 -15.398  0.00  0.00    -0.244 NA
ATOM      2  C   UNL     1      35.911 -21.663 -17.741  0.00  0.00    +0.016 C 
ATOM      3  C   UNL     1      34.718 -22.154 -17.225  0.00  0.00    +0.020 C 
ATOM      4  C   UNL     1      34.777 -22.904 -16.061  0.00  0.00    +0.083 C 
ATOM      5  C   UNL     1      37.110 -21.931 -17.090  0.00  0.00    +0.022 C 
ATOM      6  C   UNL     1      37.061 -22.690 -15.931  0.00  0.00    +0.099 C 
ENDROOT
BRANCH   2  14
ATOM      7  O   UNL     1      38.152 -18.301 -21.633  0.00  0.00    -0.270 OA
ATOM      8  N   UNL     1      34.769 -20.695 -19.698  0.00  0.00    -0.316 N 
ATOM      9  N   UNL     1      36.181 -18.469 -22.827  0.00  0.00    -0.300 N 
ATOM     10  C   UNL     1      35.066 -19.909 -20.774  0.00  0.00    +0.031 C 
ATOM     11  C   UNL     1      34.113 -19.453 -21.813  0.00  0.00    +0.063 C 
ATOM     12  C   UNL     1      36.405 -19.584 -20.728  0.00  0.00    +0.064 C 
ATOM     13  C   UNL     1      34.913 -19.161 -23.087  0.00  0.00    +0.096 C 
ATOM     14  C   UNL     1      35.908 -20.875 -18.951  0.00  0.00    +0.048 C 
ATOM     15  C   UNL     1      36.938 -20.191 -19.565  0.00  0.00    +0.020 C 
ATOM     16  C   UNL     1      37.012 -18.743 -21.742  0.00  0.00    +0.247 C 
ATOM     17  H   UNL     1      33.883 -21.072 -19.491  0.00  0.00    +0.152 HD
ATOM     18  H   UNL     1      36.461 -17.767 -23.459  0.00  0.00    +0.150 HD
ENDBRANCH   2  14
BRANCH   4  20
ATOM     19  N   UNL     1      32.550 -24.743 -13.708  0.00  0.00    -0.244 NA
ATOM     20  C   UNL     1      33.580 -23.447 -15.465  0.00  0.00    +0.037 C 
ATOM     21  C   UNL     1      32.332 -23.225 -16.029  0.00  0.00    +0.005 C 
ATOM     22  C   UNL     1      31.183 -23.762 -15.432  0.00  0.00    +0.018 C 
ATOM     23  C   UNL     1      31.340 -24.526 -14.257  0.00  0.00    +0.081 C 
ATOM     24  C   UNL     1      33.634 -24.207 -14.314  0.00  0.00    +0.100 C 
ATOM     25  C   UNL     1      29.904 -23.555 -15.978  0.00  0.00    +0.001 C 
ATOM     26  C   UNL     1      30.199 -25.060 -13.665  0.00  0.00    +0.019 C 
ATOM     27  C   UNL     1      28.780 -24.101 -15.365  0.00  0.00    +0.000 C 
ATOM     28  C   UNL     1      28.928 -24.854 -14.207  0.00  0.00    +0.002 C 
ENDBRANCH   4  20
TORSDOF 2
ENDMDL
MODEL 6
REMARK VINA RESULT:     -11.1      8.983     14.219
REMARK  Name = 10389239
REMARK  2 active torsions:
REMARK  status: ('A' for Active; 'I' for Inactive)
REMARK    1  A    between atoms: C_2  and  C_14
REMARK    2  A    between atoms: C_4  and  C_20
REMARK                            x       y       z     vdW  Elec       q    Type
REMARK                         _______ _______ _______ _____ _____    ______ ____
ROOT
ATOM      1  N   UNL     1      33.761 -13.882 -25.502  0.00  0.00    -0.244 NA
ATOM      2  C   UNL     1      33.555 -11.378 -24.278  0.00  0.00    +0.016 C 
ATOM      3  C   UNL     1      33.888 -12.497 -23.524  0.00  0.00    +0.020 C 
ATOM      4  C   UNL     1      33.977 -13.715 -24.178  0.00  0.00    +0.083 C 
ATOM      5  C   UNL     1      33.323 -11.508 -25.643  0.00  0.00    +0.022 C 
ATOM      6  C   UNL     1      33.439 -12.771 -26.202  0.00  0.00    +0.099 C 
ENDROOT
BRANCH   2  14
ATOM      7  O   UNL     1      34.831  -5.971 -23.512  0.00  0.00    -0.270 OA
ATOM      8  N   UNL     1      32.646  -9.873 -22.553  0.00  0.00    -0.316 N 
ATOM      9  N   UNL     1      33.158  -5.862 -21.921  0.00  0.00    -0.300 N 
ATOM     10  C   UNL     1      32.749  -8.565 -22.176  0.00  0.00    +0.031 C 
ATOM     11  C   UNL     1      32.067  -7.931 -21.023  0.00  0.00    +0.063 C 
ATOM     12  C   UNL     1      33.618  -7.925 -23.034  0.00  0.00    +0.064 C 
ATOM     13  C   UNL     1      31.947  -6.431 -21.316  0.00  0.00    +0.096 C 
ATOM     14  C   UNL     1      33.448 -10.084 -23.648  0.00  0.00    +0.048 C 
ATOM     15  C   UNL     1      34.069  -8.892 -23.964  0.00  0.00    +0.020 C 
ATOM     16  C   UNL     1      33.937  -6.518 -22.873  0.00  0.00    +0.247 C 
ATOM     17  H   UNL     1      32.087 -10.553 -22.113  0.00  0.00    +0.152 HD
ATOM     18  H   UNL     1      33.436  -4.962 -21.636  0.00  0.00    +0.150 HD
ENDBRANCH   2  14
BRANCH   4  20
ATOM     19  N   UNL     1      35.037 -15.971 -21.408  0.00  0.00    -0.244 NA
ATOM     20  C   UNL     1      34.319 -14.920 -23.460  0.00  0.00    +0.037 C 
ATOM     21  C   UNL     1      34.274 -16.162 -24.077  0.00  0.00    +0.005 C 
ATOM     22  C   UNL     1      34.611 -17.318 -23.359  0.00  0.00    +0.018 C 
ATOM     23  C   UNL     1      34.992 -17.174 -22.009  0.00  0.00    +0.081 C 
ATOM     24  C   UNL     1      34.705 -14.880 -22.135  0.00  0.00    +0.100 C 
ATOM     25  C   UNL     1      34.574 -18.591 -23.955  0.00  0.00    +0.001 C 
ATOM     26  C   UNL     1      35.326 -18.323 -21.297  0.00  0.00    +0.019 C 
ATOM     27  C   UNL     1      34.914 -19.723 -23.219  0.00  0.00    +0.000 C 
ATOM     28  C   UNL     1      35.290 -19.588 -21.888  0.00  0.00    +0.002 C 
ENDBRANCH   4  20
TORSDOF 2
ENDMDL
MODEL 7
REMARK VINA RESULT:     -11.1     10.292     14.036
REMARK  Name = 10389239
REMARK  2 active torsions:
REMARK  status: ('A' for Active; 'I' for Inactive)
REMARK    1  A    between atoms: C_2  and  C_14
REMARK    2  A    between atoms: C_4  and  C_20
REMARK                            x       y       z     vdW  Elec       q    Type
REMARK                         _______ _______ _______ _____ _____    ______ ____
ROOT
ATOM      1  N   UNL     1      31.530  -9.243 -20.846  0.00  0.00    -0.244 NA
ATOM      2  C   UNL     1      32.647 -11.667 -21.673  0.00  0.00    +0.016 C 
ATOM      3  C   UNL     1      32.779 -10.533 -22.466  0.00  0.00    +0.020 C 
ATOM      4  C   UNL     1      32.207  -9.356 -22.011  0.00  0.00    +0.083 C 
ATOM      5  C   UNL     1      31.956 -11.593 -20.468  0.00  0.00    +0.022 C 
ATOM      6  C   UNL     1      31.422 -10.367 -20.103  0.00  0.00    +0.099 C 
ENDROOT
BRANCH   2  14
ATOM      7  O   UNL     1      33.951 -15.671 -25.377  0.00  0.00    -0.270 OA
ATOM      8  N   UNL     1      33.794 -13.797 -21.208  0.00  0.00    -0.316 N 
ATOM      9  N   UNL     1      35.121 -16.755 -23.705  0.00  0.00    -0.300 N 
ATOM     10  C   UNL     1      34.247 -14.888 -21.892  0.00  0.00    +0.031 C 
ATOM     11  C   UNL     1      34.902 -16.080 -21.303  0.00  0.00    +0.063 C 
ATOM     12  C   UNL     1      33.974 -14.714 -23.233  0.00  0.00    +0.064 C 
ATOM     13  C   UNL     1      35.772 -16.722 -22.390  0.00  0.00    +0.096 C 
ATOM     14  C   UNL     1      33.223 -12.920 -22.098  0.00  0.00    +0.048 C 
ATOM     15  C   UNL     1      33.316 -13.468 -23.362  0.00  0.00    +0.020 C 
ATOM     16  C   UNL     1      34.332 -15.723 -24.212  0.00  0.00    +0.247 C 
ATOM     17  H   UNL     1      33.865 -13.661 -20.236  0.00  0.00    +0.152 HD
ATOM     18  H   UNL     1      35.250 -17.555 -24.264  0.00  0.00    +0.150 HD
ENDBRANCH   2  14
BRANCH   4  20
ATOM     19  N   UNL     1      31.206  -6.241 -23.795  0.00  0.00    -0.244 NA
ATOM     20  C   UNL     1      32.304  -8.138 -22.780  0.00  0.00    +0.037 C 
ATOM     21  C   UNL     1      33.526  -7.677 -23.246  0.00  0.00    +0.005 C 
ATOM     22  C   UNL     1      33.594  -6.491 -23.991  0.00  0.00    +0.018 C 
ATOM     23  C   UNL     1      32.393  -5.796 -24.246  0.00  0.00    +0.081 C 
ATOM     24  C   UNL     1      31.182  -7.389 -23.080  0.00  0.00    +0.100 C 
ATOM     25  C   UNL     1      34.817  -5.996 -24.477  0.00  0.00    +0.001 C 
ATOM     26  C   UNL     1      32.462  -4.619 -24.985  0.00  0.00    +0.019 C 
ATOM     27  C   UNL     1      34.856  -4.816 -25.214  0.00  0.00    +0.000 C 
ATOM     28  C   UNL     1      33.677  -4.127 -25.468  0.00  0.00    +0.002 C 
ENDBRANCH   4  20
TORSDOF 2
ENDMDL
MODEL 8
REMARK VINA RESULT:     -10.9      2.854      8.796
REMARK  Name = 10389239
REMARK  2 active torsions:
REMARK  status: ('A' for Active; 'I' for Inactive)
REMARK    1  A    between atoms: C_2  and  C_14
REMARK    2  A    between atoms: C_4  and  C_20
REMARK                            x       y       z     vdW  Elec       q    Type
REMARK                         _______ _______ _______ _____ _____    ______ ____
ROOT
ATOM      1  N   UNL     1      33.569 -23.446 -16.239  0.00  0.00    -0.244 NA
ATOM      2  C   UNL     1      34.376 -21.768 -18.323  0.00  0.00    +0.016 C 
ATOM      3  C   UNL     1      35.255 -22.066 -17.288  0.00  0.00    +0.020 C 
ATOM      4  C   UNL     1      34.806 -22.903 -16.279  0.00  0.00    +0.083 C 
ATOM      5  C   UNL     1      33.093 -22.305 -18.318  0.00  0.00    +0.022 C 
ATOM      6  C   UNL     1      32.743 -23.133 -17.262  0.00  0.00    +0.099 C 
ENDROOT
BRANCH   2  14
ATOM      7  O   UNL     1      37.951 -18.457 -21.100  0.00  0.00    -0.270 OA
ATOM      8  N   UNL     1      33.929 -20.518 -20.399  0.00  0.00    -0.316 N 
ATOM      9  N   UNL     1      36.382 -18.276 -22.786  0.00  0.00    -0.300 N 
ATOM     10  C   UNL     1      34.595 -19.703 -21.268  0.00  0.00    +0.031 C 
ATOM     11  C   UNL     1      34.021 -19.050 -22.468  0.00  0.00    +0.063 C 
ATOM     12  C   UNL     1      35.896 -19.561 -20.833  0.00  0.00    +0.064 C 
ATOM     13  C   UNL     1      35.169 -18.775 -23.446  0.00  0.00    +0.096 C 
ATOM     14  C   UNL     1      34.791 -20.901 -19.400  0.00  0.00    +0.048 C 
ATOM     15  C   UNL     1      36.018 -20.316 -19.642  0.00  0.00    +0.020 C 
ATOM     16  C   UNL     1      36.846 -18.735 -21.554  0.00  0.00    +0.247 C 
ATOM     17  H   UNL     1      32.986 -20.789 -20.476  0.00  0.00    +0.152 HD
ATOM     18  H   UNL     1      36.899 -17.573 -23.242  0.00  0.00    +0.150 HD
ENDBRANCH   2  14
BRANCH   4  20
ATOM     19  N   UNL     1      37.893 -23.497 -14.279  0.00  0.00    -0.244 NA
ATOM     20  C   UNL     1      35.663 -23.257 -15.172  0.00  0.00    +0.037 C 
ATOM     21  C   UNL     1      35.135 -23.690 -13.965  0.00  0.00    +0.005 C 
ATOM     22  C   UNL     1      35.987 -24.028 -12.905  0.00  0.00    +0.018 C 
ATOM     23  C   UNL     1      37.379 -23.917 -13.108  0.00  0.00    +0.081 C 
ATOM     24  C   UNL     1      37.037 -23.180 -15.277  0.00  0.00    +0.100 C 
ATOM     25  C   UNL     1      35.484 -24.469 -11.668  0.00  0.00    +0.001 C 
ATOM     26  C   UNL     1      38.224 -24.253 -12.055  0.00  0.00    +0.019 C 
ATOM     27  C   UNL     1      36.354 -24.799 -10.631  0.00  0.00    +0.000 C 
ATOM     28  C   UNL     1      37.725 -24.691 -10.826  0.00  0.00    +0.002 C 
ENDBRANCH   4  20
TORSDOF 2
ENDMDL
MODEL 9
REMARK VINA RESULT:     -10.8     10.023     13.927
REMARK  Name = 10389239
REMARK  2 active torsions:
REMARK  status: ('A' for Active; 'I' for Inactive)
REMARK    1  A    between atoms: C_2  and  C_14
REMARK    2  A    between atoms: C_4  and  C_20
REMARK                            x       y       z     vdW  Elec       q    Type
REMARK                         _______ _______ _______ _____ _____    ______ ____
ROOT
ATOM      1  N   UNL     1      31.430  -9.368 -20.964  0.00  0.00    -0.244 NA
ATOM      2  C   UNL     1      32.624 -11.761 -21.773  0.00  0.00    +0.016 C 
ATOM      3  C   UNL     1      32.775 -10.613 -22.542  0.00  0.00    +0.020 C 
ATOM      4  C   UNL     1      32.163  -9.452 -22.097  0.00  0.00    +0.083 C 
ATOM      5  C   UNL     1      31.877 -11.717 -20.601  0.00  0.00    +0.022 C 
ATOM      6  C   UNL     1      31.306 -10.505 -20.244  0.00  0.00    +0.099 C 
ENDROOT
BRANCH   2  14
ATOM      7  O   UNL     1      35.509 -16.513 -21.027  0.00  0.00    -0.270 OA
ATOM      8  N   UNL     1      33.277 -13.385 -23.507  0.00  0.00    -0.316 N 
ATOM      9  N   UNL     1      35.112 -17.033 -23.243  0.00  0.00    -0.300 N 
ATOM     10  C   UNL     1      33.921 -14.585 -23.597  0.00  0.00    +0.031 C 
ATOM     11  C   UNL     1      34.199 -15.336 -24.844  0.00  0.00    +0.063 C 
ATOM     12  C   UNL     1      34.298 -14.981 -22.331  0.00  0.00    +0.064 C 
ATOM     13  C   UNL     1      34.345 -16.817 -24.476  0.00  0.00    +0.096 C 
ATOM     14  C   UNL     1      33.240 -12.999 -22.190  0.00  0.00    +0.048 C 
ATOM     15  C   UNL     1      33.872 -13.969 -21.438  0.00  0.00    +0.020 C 
ATOM     16  C   UNL     1      35.016 -16.223 -22.113  0.00  0.00    +0.247 C 
ATOM     17  H   UNL     1      32.901 -12.879 -24.263  0.00  0.00    +0.152 HD
ATOM     18  H   UNL     1      35.731 -17.797 -23.213  0.00  0.00    +0.150 HD
ENDBRANCH   2  14
BRANCH   4  20
ATOM     19  N   UNL     1      31.200  -6.305 -23.844  0.00  0.00    -0.244 NA
ATOM     20  C   UNL     1      32.276  -8.221 -22.842  0.00  0.00    +0.037 C 
ATOM     21  C   UNL     1      33.507  -7.753 -23.276  0.00  0.00    +0.005 C 
ATOM     22  C   UNL     1      33.592  -6.554 -23.998  0.00  0.00    +0.018 C 
ATOM     23  C   UNL     1      32.396  -5.853 -24.264  0.00  0.00    +0.081 C 
ATOM     24  C   UNL     1      31.161  -7.466 -23.151  0.00  0.00    +0.100 C 
ATOM     25  C   UNL     1      34.824  -6.053 -24.451  0.00  0.00    +0.001 C 
ATOM     26  C   UNL     1      32.481  -4.663 -24.981  0.00  0.00    +0.019 C 
ATOM     27  C   UNL     1      34.879  -4.860 -25.166  0.00  0.00    +0.000 C 
ATOM     28  C   UNL     1      33.706  -4.164 -25.431  0.00  0.00    +0.002 C 
ENDBRANCH   4  20
TORSDOF 2
ENDMDL
