MODEL 1
REMARK VINA RESULT:     -12.1      0.000      0.000
REMARK  Name = 6419766
REMARK  1 active torsions:
REMARK  status: ('A' for Active; 'I' for Inactive)
REMARK    1  A    between atoms: C_9  and  C_20
REMARK                            x       y       z     vdW  Elec       q    Type
REMARK                         _______ _______ _______ _____ _____    ______ ____
ROOT
ATOM      1  N   UNL     1      34.037 -24.004 -14.224  0.00  0.00    -0.274 N 
ATOM      2  N   UNL     1      33.849 -22.878 -16.282  0.00  0.00    -0.328 NA
ATOM      3  N   UNL     1      31.689 -22.458 -17.261  0.00  0.00    -0.343 NA
ATOM      4  N   UNL     1      37.214 -25.166 -14.769  0.00  0.00    -0.239 N 
ATOM      5  N   UNL     1      36.098 -24.624 -15.284  0.00  0.00    -0.166 NA
ATOM      6  C   UNL     1      31.836 -23.608 -15.162  0.00  0.00    +0.143 C 
ATOM      7  C   UNL     1      33.219 -23.480 -15.256  0.00  0.00    +0.185 C 
ATOM      8  C   UNL     1      31.090 -23.065 -16.221  0.00  0.00    +0.133 C 
ATOM      9  C   UNL     1      33.035 -22.398 -17.235  0.00  0.00    +0.138 C 
ATOM     10  C   UNL     1      35.341 -24.524 -14.221  0.00  0.00    +0.152 C 
ATOM     11  C   UNL     1      31.200 -24.241 -14.079  0.00  0.00    -0.011 C 
ATOM     12  C   UNL     1      29.704 -23.175 -16.162  0.00  0.00    +0.029 C 
ATOM     13  C   UNL     1      35.898 -24.972 -13.035  0.00  0.00    +0.048 C 
ATOM     14  C   UNL     1      37.146 -25.395 -13.425  0.00  0.00    +0.046 C 
ATOM     15  C   UNL     1      29.813 -24.336 -14.046  0.00  0.00    -0.004 C 
ATOM     16  C   UNL     1      29.063 -23.803 -15.089  0.00  0.00    +0.002 C 
ATOM     17  C   UNL     1      38.265 -25.984 -12.672  0.00  0.00    +0.049 C 
ATOM     18  H   UNL     1      33.608 -24.001 -13.338  0.00  0.00    +0.156 HD
ATOM     19  H   UNL     1      38.007 -25.380 -15.310  0.00  0.00    +0.174 HD
ENDROOT
BRANCH   9  20
ATOM     20  C   UNL     1      33.667 -21.746 -18.352  0.00  0.00    +0.086 C 
ATOM     21  C   UNL     1      32.911 -20.976 -19.240  0.00  0.00    +0.012 C 
ATOM     22  C   UNL     1      35.045 -21.877 -18.556  0.00  0.00    +0.012 C 
ATOM     23  C   UNL     1      33.524 -20.344 -20.321  0.00  0.00    +0.001 C 
ATOM     24  C   UNL     1      35.658 -21.245 -19.636  0.00  0.00    +0.001 C 
ATOM     25  C   UNL     1      34.898 -20.477 -20.520  0.00  0.00    +0.000 C 
ENDBRANCH   9  20
TORSDOF 1
ENDMDL
MODEL 2
REMARK VINA RESULT:     -11.5      1.285      4.972
REMARK  Name = 6419766
REMARK  1 active torsions:
REMARK  status: ('A' for Active; 'I' for Inactive)
REMARK    1  A    between atoms: C_9  and  C_20
REMARK                            x       y       z     vdW  Elec       q    Type
REMARK                         _______ _______ _______ _____ _____    ______ ____
ROOT
ATOM      1  N   UNL     1      35.721 -23.143 -15.770  0.00  0.00    -0.274 N 
ATOM      2  N   UNL     1      33.372 -23.265 -15.837  0.00  0.00    -0.328 NA
ATOM      3  N   UNL     1      32.143 -22.293 -17.666  0.00  0.00    -0.343 NA
ATOM      4  N   UNL     1      35.973 -23.433 -12.365  0.00  0.00    -0.239 N 
ATOM      5  N   UNL     1      35.190 -23.194 -13.430  0.00  0.00    -0.166 NA
ATOM      6  C   UNL     1      34.536 -22.147 -17.636  0.00  0.00    +0.143 C 
ATOM      7  C   UNL     1      34.504 -22.844 -16.432  0.00  0.00    +0.185 C 
ATOM      8  C   UNL     1      33.291 -21.887 -18.234  0.00  0.00    +0.133 C 
ATOM      9  C   UNL     1      32.245 -22.959 -16.498  0.00  0.00    +0.138 C 
ATOM     10  C   UNL     1      36.047 -23.305 -14.414  0.00  0.00    +0.152 C 
ATOM     11  C   UNL     1      35.732 -21.718 -18.238  0.00  0.00    -0.011 C 
ATOM     12  C   UNL     1      33.283 -21.192 -19.440  0.00  0.00    +0.029 C 
ATOM     13  C   UNL     1      37.350 -23.603 -14.052  0.00  0.00    +0.048 C 
ATOM     14  C   UNL     1      37.276 -23.682 -12.682  0.00  0.00    +0.046 C 
ATOM     15  C   UNL     1      35.693 -21.025 -19.444  0.00  0.00    -0.004 C 
ATOM     16  C   UNL     1      34.468 -20.761 -20.045  0.00  0.00    +0.002 C 
ATOM     17  C   UNL     1      38.293 -23.967 -11.657  0.00  0.00    +0.049 C 
ATOM     18  H   UNL     1      36.485 -23.260 -16.379  0.00  0.00    +0.156 HD
ATOM     19  H   UNL     1      35.637 -23.427 -11.440  0.00  0.00    +0.174 HD
ENDROOT
BRANCH   9  20
ATOM     20  C   UNL     1      31.010 -23.390 -15.898  0.00  0.00    +0.086 C 
ATOM     21  C   UNL     1      29.795 -22.832 -16.304  0.00  0.00    +0.012 C 
ATOM     22  C   UNL     1      31.016 -24.373 -14.903  0.00  0.00    +0.012 C 
ATOM     23  C   UNL     1      28.598 -23.251 -15.724  0.00  0.00    +0.001 C 
ATOM     24  C   UNL     1      29.821 -24.793 -14.322  0.00  0.00    +0.001 C 
ATOM     25  C   UNL     1      28.610 -24.232 -14.732  0.00  0.00    +0.000 C 
ENDBRANCH   9  20
TORSDOF 1
ENDMDL
MODEL 3
REMARK VINA RESULT:     -10.7      1.421      5.844
REMARK  Name = 6419766
REMARK  1 active torsions:
REMARK  status: ('A' for Active; 'I' for Inactive)
REMARK    1  A    between atoms: C_9  and  C_20
REMARK                            x       y       z     vdW  Elec       q    Type
REMARK                         _______ _______ _______ _____ _____    ______ ____
ROOT
ATOM      1  N   UNL     1      33.622 -22.785 -17.273  0.00  0.00    -0.274 N 
ATOM      2  N   UNL     1      34.972 -23.877 -15.685  0.00  0.00    -0.328 NA
ATOM      3  N   UNL     1      34.037 -24.660 -13.608  0.00  0.00    -0.343 NA
ATOM      4  N   UNL     1      36.181 -21.050 -18.750  0.00  0.00    -0.239 N 
ATOM      5  N   UNL     1      35.755 -21.775 -17.702  0.00  0.00    -0.166 NA
ATOM      6  C   UNL     1      32.627 -23.553 -15.200  0.00  0.00    +0.143 C 
ATOM      7  C   UNL     1      33.747 -23.425 -16.015  0.00  0.00    +0.185 C 
ATOM      8  C   UNL     1      32.827 -24.198 -13.968  0.00  0.00    +0.133 C 
ATOM      9  C   UNL     1      35.044 -24.475 -14.485  0.00  0.00    +0.138 C 
ATOM     10  C   UNL     1      34.520 -22.035 -18.049  0.00  0.00    +0.152 C 
ATOM     11  C   UNL     1      31.357 -23.073 -15.567  0.00  0.00    -0.011 C 
ATOM     12  C   UNL     1      31.729 -24.344 -13.126  0.00  0.00    +0.029 C 
ATOM     13  C   UNL     1      34.112 -21.522 -19.268  0.00  0.00    +0.048 C 
ATOM     14  C   UNL     1      35.235 -20.869 -19.716  0.00  0.00    +0.046 C 
ATOM     15  C   UNL     1      30.278 -23.233 -14.704  0.00  0.00    -0.004 C 
ATOM     16  C   UNL     1      30.463 -23.869 -13.482  0.00  0.00    +0.002 C 
ATOM     17  C   UNL     1      35.503 -20.104 -20.945  0.00  0.00    +0.049 C 
ATOM     18  H   UNL     1      32.732 -22.886 -17.683  0.00  0.00    +0.156 HD
ATOM     19  H   UNL     1      37.092 -20.683 -18.815  0.00  0.00    +0.174 HD
ENDROOT
BRANCH   9  20
ATOM     20  C   UNL     1      36.335 -24.974 -14.092  0.00  0.00    +0.086 C 
ATOM     21  C   UNL     1      37.115 -24.265 -13.174  0.00  0.00    +0.012 C 
ATOM     22  C   UNL     1      36.819 -26.173 -14.626  0.00  0.00    +0.012 C 
ATOM     23  C   UNL     1      38.366 -24.750 -12.792  0.00  0.00    +0.001 C 
ATOM     24  C   UNL     1      38.069 -26.658 -14.244  0.00  0.00    +0.001 C 
ATOM     25  C   UNL     1      38.844 -25.947 -13.326  0.00  0.00    +0.000 C 
ENDBRANCH   9  20
TORSDOF 1
ENDMDL
MODEL 4
REMARK VINA RESULT:     -10.6      1.618      5.194
REMARK  Name = 6419766
REMARK  1 active torsions:
REMARK  status: ('A' for Active; 'I' for Inactive)
REMARK    1  A    between atoms: C_9  and  C_20
REMARK                            x       y       z     vdW  Elec       q    Type
REMARK                         _______ _______ _______ _____ _____    ______ ____
ROOT
ATOM      1  N   UNL     1      32.824 -23.830 -15.778  0.00  0.00    -0.274 N 
ATOM      2  N   UNL     1      33.952 -22.501 -17.358  0.00  0.00    -0.328 NA
ATOM      3  N   UNL     1      36.297 -22.014 -17.104  0.00  0.00    -0.343 NA
ATOM      4  N   UNL     1      29.716 -22.534 -16.411  0.00  0.00    -0.239 N 
ATOM      5  N   UNL     1      31.046 -22.416 -16.552  0.00  0.00    -0.166 NA
ATOM      6  C   UNL     1      35.185 -23.372 -15.472  0.00  0.00    +0.143 C 
ATOM      7  C   UNL     1      34.022 -23.214 -16.219  0.00  0.00    +0.185 C 
ATOM      8  C   UNL     1      36.333 -22.733 -15.970  0.00  0.00    +0.133 C 
ATOM      9  C   UNL     1      35.109 -21.936 -17.737  0.00  0.00    +0.138 C 
ATOM     10  C   UNL     1      31.471 -23.482 -15.921  0.00  0.00    +0.152 C 
ATOM     11  C   UNL     1      35.233 -24.123 -14.283  0.00  0.00    -0.011 C 
ATOM     12  C   UNL     1      37.516 -22.869 -15.249  0.00  0.00    +0.029 C 
ATOM     13  C   UNL     1      30.492 -24.293 -15.373  0.00  0.00    +0.048 C 
ATOM     14  C   UNL     1      29.331 -23.641 -15.712  0.00  0.00    +0.046 C 
ATOM     15  C   UNL     1      36.430 -24.241 -13.584  0.00  0.00    -0.004 C 
ATOM     16  C   UNL     1      37.572 -23.613 -14.066  0.00  0.00    +0.002 C 
ATOM     17  C   UNL     1      27.916 -23.952 -15.449  0.00  0.00    +0.049 C 
ATOM     18  H   UNL     1      32.968 -24.663 -15.274  0.00  0.00    +0.156 HD
ATOM     19  H   UNL     1      29.076 -21.882 -16.778  0.00  0.00    +0.174 HD
ENDROOT
BRANCH   9  20
ATOM     20  C   UNL     1      35.081 -21.164 -18.952  0.00  0.00    +0.086 C 
ATOM     21  C   UNL     1      33.865 -20.895 -19.588  0.00  0.00    +0.012 C 
ATOM     22  C   UNL     1      36.269 -20.675 -19.503  0.00  0.00    +0.012 C 
ATOM     23  C   UNL     1      33.837 -20.146 -20.763  0.00  0.00    +0.001 C 
ATOM     24  C   UNL     1      36.242 -19.925 -20.678  0.00  0.00    +0.001 C 
ATOM     25  C   UNL     1      35.025 -19.660 -21.309  0.00  0.00    +0.000 C 
ENDBRANCH   9  20
TORSDOF 1
ENDMDL
MODEL 5
REMARK VINA RESULT:     -10.0      2.102      6.250
REMARK  Name = 6419766
REMARK  1 active torsions:
REMARK  status: ('A' for Active; 'I' for Inactive)
REMARK    1  A    between atoms: C_9  and  C_20
REMARK                            x       y       z     vdW  Elec       q    Type
REMARK                         _______ _______ _______ _____ _____    ______ ____
ROOT
ATOM      1  N   UNL     1      36.007 -22.245 -15.352  0.00  0.00    -0.274 N 
ATOM      2  N   UNL     1      33.913 -23.059 -14.653  0.00  0.00    -0.328 NA
ATOM      3  N   UNL     1      33.701 -24.311 -12.607  0.00  0.00    -0.343 NA
ATOM      4  N   UNL     1      35.219 -22.113 -18.684  0.00  0.00    -0.239 N 
ATOM      5  N   UNL     1      34.906 -22.568 -17.459  0.00  0.00    -0.166 NA
ATOM      6  C   UNL     1      35.853 -23.499 -13.282  0.00  0.00    +0.143 C 
ATOM      7  C   UNL     1      35.231 -22.956 -14.402  0.00  0.00    +0.185 C 
ATOM      8  C   UNL     1      35.021 -24.189 -12.385  0.00  0.00    +0.133 C 
ATOM      9  C   UNL     1      33.218 -23.740 -13.729  0.00  0.00    +0.138 C 
ATOM     10  C   UNL     1      35.873 -22.060 -16.737  0.00  0.00    +0.152 C 
ATOM     11  C   UNL     1      37.233 -23.378 -13.041  0.00  0.00    -0.011 C 
ATOM     12  C   UNL     1      35.608 -24.747 -11.253  0.00  0.00    +0.029 C 
ATOM     13  C   UNL     1      36.804 -21.297 -17.421  0.00  0.00    +0.048 C 
ATOM     14  C   UNL     1      36.348 -21.347 -18.716  0.00  0.00    +0.046 C 
ATOM     15  C   UNL     1      37.792 -23.946 -11.901  0.00  0.00    -0.004 C 
ATOM     16  C   UNL     1      36.980 -24.631 -11.006  0.00  0.00    +0.002 C 
ATOM     17  C   UNL     1      36.859 -20.754 -19.962  0.00  0.00    +0.049 C 
ATOM     18  H   UNL     1      36.792 -21.794 -14.965  0.00  0.00    +0.156 HD
ATOM     19  H   UNL     1      34.684 -22.314 -19.485  0.00  0.00    +0.174 HD
ENDROOT
BRANCH   9  20
ATOM     20  C   UNL     1      31.803 -23.875 -13.957  0.00  0.00    +0.086 C 
ATOM     21  C   UNL     1      31.063 -22.797 -14.451  0.00  0.00    +0.012 C 
ATOM     22  C   UNL     1      31.159 -25.087 -13.689  0.00  0.00    +0.012 C 
ATOM     23  C   UNL     1      29.693 -22.928 -14.674  0.00  0.00    +0.001 C 
ATOM     24  C   UNL     1      29.789 -25.219 -13.912  0.00  0.00    +0.001 C 
ATOM     25  C   UNL     1      29.055 -24.139 -14.405  0.00  0.00    +0.000 C 
ENDBRANCH   9  20
TORSDOF 1
ENDMDL
MODEL 6
REMARK VINA RESULT:      -9.2      1.646      6.493
REMARK  Name = 6419766
REMARK  1 active torsions:
REMARK  status: ('A' for Active; 'I' for Inactive)
REMARK    1  A    between atoms: C_9  and  C_20
REMARK                            x       y       z     vdW  Elec       q    Type
REMARK                         _______ _______ _______ _____ _____    ______ ____
ROOT
ATOM      1  N   UNL     1      32.565 -22.873 -15.899  0.00  0.00    -0.274 N 
ATOM      2  N   UNL     1      34.690 -23.194 -14.939  0.00  0.00    -0.328 NA
ATOM      3  N   UNL     1      36.687 -22.605 -16.150  0.00  0.00    -0.343 NA
ATOM      4  N   UNL     1      30.991 -25.278 -14.035  0.00  0.00    -0.239 N 
ATOM      5  N   UNL     1      32.149 -24.749 -14.462  0.00  0.00    -0.166 NA
ATOM      6  C   UNL     1      34.542 -22.261 -17.163  0.00  0.00    +0.143 C 
ATOM      7  C   UNL     1      33.976 -22.775 -16.000  0.00  0.00    +0.185 C 
ATOM      8  C   UNL     1      35.945 -22.195 -17.192  0.00  0.00    +0.133 C 
ATOM      9  C   UNL     1      36.020 -23.083 -15.080  0.00  0.00    +0.138 C 
ATOM     10  C   UNL     1      31.725 -23.759 -15.207  0.00  0.00    +0.152 C 
ATOM     11  C   UNL     1      33.774 -21.829 -18.259  0.00  0.00    -0.011 C 
ATOM     12  C   UNL     1      36.547 -21.687 -18.340  0.00  0.00    +0.029 C 
ATOM     13  C   UNL     1      30.351 -23.610 -15.292  0.00  0.00    +0.048 C 
ATOM     14  C   UNL     1      29.883 -24.633 -14.504  0.00  0.00    +0.046 C 
ATOM     15  C   UNL     1      34.404 -21.326 -19.393  0.00  0.00    -0.004 C 
ATOM     16  C   UNL     1      35.791 -21.255 -19.435  0.00  0.00    +0.002 C 
ATOM     17  C   UNL     1      28.519 -25.059 -14.151  0.00  0.00    +0.049 C 
ATOM     18  H   UNL     1      32.082 -22.186 -16.412  0.00  0.00    +0.156 HD
ATOM     19  H   UNL     1      30.944 -26.060 -13.438  0.00  0.00    +0.174 HD
ENDROOT
BRANCH   9  20
ATOM     20  C   UNL     1      36.823 -23.520 -13.968  0.00  0.00    +0.086 C 
ATOM     21  C   UNL     1      37.894 -24.395 -14.173  0.00  0.00    +0.012 C 
ATOM     22  C   UNL     1      36.539 -23.072 -12.675  0.00  0.00    +0.012 C 
ATOM     23  C   UNL     1      38.673 -24.817 -13.096  0.00  0.00    +0.001 C 
ATOM     24  C   UNL     1      37.317 -23.493 -11.598  0.00  0.00    +0.001 C 
ATOM     25  C   UNL     1      38.385 -24.366 -11.808  0.00  0.00    +0.000 C 
ENDBRANCH   9  20
TORSDOF 1
ENDMDL
