MODEL 1
REMARK VINA RESULT:     -11.6      0.000      0.000
REMARK  Name = 9823454
REMARK  7 active torsions:
REMARK  status: ('A' for Active; 'I' for Inactive)
REMARK    1  A    between atoms: C_1  and  C_4
REMARK    2  A    between atoms: C_1  and  N_8
REMARK    3  A    between atoms: C_1  and  C_23
REMARK    4  A    between atoms: N_3  and  O_6
REMARK    5  A    between atoms: N_8  and  S_10
REMARK    6  A    between atoms: S_10  and  C_13
REMARK    7  A    between atoms: C_23  and  C_24
REMARK                            x       y       z     vdW  Elec       q    Type
REMARK                         _______ _______ _______ _____ _____    ______ ____
ROOT
ATOM      1  C   UNL     1      34.518 -23.889 -12.767  0.00  0.00    +0.158 C 
ENDROOT
BRANCH   1   4
ATOM      2  O   UNL     1      35.357 -24.955 -10.767  0.00  0.00    -0.272 OA
ATOM      3  N   UNL     1      36.359 -23.006 -11.494  0.00  0.00    -0.196 N 
ATOM      4  C   UNL     1      35.444 -24.027 -11.570  0.00  0.00    +0.260 C 
ATOM      5  H   UNL     1      36.392 -22.282 -12.161  0.00  0.00    +0.182 HD
BRANCH   3   6
ATOM      6  O   UNL     1      37.244 -23.057 -10.409  0.00  0.00    -0.295 OA
ATOM      7  H   UNL     1      36.961 -23.751  -9.793  0.00  0.00    +0.241 HD
ENDBRANCH   3   6
ENDBRANCH   1   4
BRANCH   1   8
ATOM      8  N   UNL     1      35.238 -23.022 -13.730  0.00  0.00    -0.172 NA
ATOM      9  H   UNL     1      34.566 -22.333 -14.067  0.00  0.00    +0.149 HD
BRANCH   8  10
ATOM     10  S   UNL     1      35.969 -23.707 -15.101  0.00  0.00    +0.061 S 
ATOM     11  O   UNL     1      35.699 -25.132 -15.131  0.00  0.00    -0.153 OA
ATOM     12  O   UNL     1      37.333 -23.221 -15.195  0.00  0.00    -0.153 OA
BRANCH  10  13
ATOM     13  C   UNL     1      35.061 -22.952 -16.415  0.00  0.00    +0.122 C 
ATOM     14  C   UNL     1      35.736 -22.186 -17.349  0.00  0.00    +0.020 C 
ATOM     15  C   UNL     1      35.028 -21.578 -18.400  0.00  0.00    +0.001 C 
ATOM     16  C   UNL     1      33.695 -23.141 -16.485  0.00  0.00    +0.020 C 
ATOM     17  C   UNL     1      33.627 -21.761 -18.487  0.00  0.00    +0.000 C 
ATOM     18  C   UNL     1      32.976 -22.545 -17.523  0.00  0.00    +0.001 C 
ATOM     19  C   UNL     1      35.680 -20.793 -19.365  0.00  0.00    +0.000 C 
ATOM     20  C   UNL     1      32.920 -21.153 -19.537  0.00  0.00    +0.000 C 
ATOM     21  C   UNL     1      34.961 -20.197 -20.401  0.00  0.00    +0.000 C 
ATOM     22  C   UNL     1      33.585 -20.377 -20.487  0.00  0.00    +0.000 C 
ENDBRANCH  10  13
ENDBRANCH   8  10
ENDBRANCH   1   8
BRANCH   1  23
ATOM     23  C   UNL     1      33.187 -23.230 -12.368  0.00  0.00    +0.053 C 
BRANCH  23  24
ATOM     24  C   UNL     1      32.033 -23.673 -13.203  0.00  0.00    -0.020 C 
ATOM     25  C   UNL     1      31.355 -22.751 -14.002  0.00  0.00    -0.004 C 
ATOM     26  C   UNL     1      30.267 -23.152 -14.794  0.00  0.00    -0.000 C 
ATOM     27  C   UNL     1      31.634 -25.006 -13.187  0.00  0.00    -0.004 C 
ATOM     28  C   UNL     1      29.862 -24.509 -14.777  0.00  0.00    -0.000 C 
ATOM     29  C   UNL     1      30.556 -25.422 -13.968  0.00  0.00    -0.000 C 
ATOM     30  C   UNL     1      29.573 -22.238 -15.602  0.00  0.00    -0.000 C 
ATOM     31  C   UNL     1      28.774 -24.910 -15.569  0.00  0.00    -0.000 C 
ATOM     32  C   UNL     1      28.494 -22.654 -16.384  0.00  0.00    -0.000 C 
ATOM     33  C   UNL     1      28.096 -23.987 -16.366  0.00  0.00    -0.000 C 
ENDBRANCH  23  24
ENDBRANCH   1  23
TORSDOF 7
ENDMDL
MODEL 2
REMARK VINA RESULT:     -11.4      1.471      5.994
REMARK  Name = 9823454
REMARK  7 active torsions:
REMARK  status: ('A' for Active; 'I' for Inactive)
REMARK    1  A    between atoms: C_1  and  C_4
REMARK    2  A    between atoms: C_1  and  N_8
REMARK    3  A    between atoms: C_1  and  C_23
REMARK    4  A    between atoms: N_3  and  O_6
REMARK    5  A    between atoms: N_8  and  S_10
REMARK    6  A    between atoms: S_10  and  C_13
REMARK    7  A    between atoms: C_23  and  C_24
REMARK                            x       y       z     vdW  Elec       q    Type
REMARK                         _______ _______ _______ _____ _____    ______ ____
ROOT
ATOM      1  C   UNL     1      35.885 -22.370 -15.091  0.00  0.00    +0.158 C 
ENDROOT
BRANCH   1   4
ATOM      2  O   UNL     1      37.606 -22.584 -13.407  0.00  0.00    -0.272 OA
ATOM      3  N   UNL     1      37.887 -23.663 -15.429  0.00  0.00    -0.196 N 
ATOM      4  C   UNL     1      37.207 -22.873 -14.534  0.00  0.00    +0.260 C 
ATOM      5  H   UNL     1      37.528 -23.868 -16.323  0.00  0.00    +0.182 HD
BRANCH   3   6
ATOM      6  O   UNL     1      39.123 -24.158 -14.992  0.00  0.00    -0.295 OA
ATOM      7  H   UNL     1      39.050 -25.111 -14.829  0.00  0.00    +0.241 HD
ENDBRANCH   3   6
ENDBRANCH   1   4
BRANCH   1   8
ATOM      8  N   UNL     1      34.906 -22.517 -13.988  0.00  0.00    -0.172 NA
ATOM      9  H   UNL     1      35.275 -21.994 -13.194  0.00  0.00    +0.149 HD
BRANCH   8  10
ATOM     10  S   UNL     1      34.506 -24.064 -13.412  0.00  0.00    +0.061 S 
ATOM     11  O   UNL     1      34.638 -24.091 -11.968  0.00  0.00    -0.153 OA
ATOM     12  O   UNL     1      35.186 -25.055 -14.226  0.00  0.00    -0.153 OA
BRANCH  10  13
ATOM     13  C   UNL     1      32.787 -24.166 -13.805  0.00  0.00    +0.122 C 
ATOM     14  C   UNL     1      32.271 -23.353 -14.800  0.00  0.00    +0.020 C 
ATOM     15  C   UNL     1      30.906 -23.421 -15.123  0.00  0.00    +0.001 C 
ATOM     16  C   UNL     1      31.989 -25.054 -13.111  0.00  0.00    +0.020 C 
ATOM     17  C   UNL     1      30.073 -24.326 -14.422  0.00  0.00    +0.000 C 
ATOM     18  C   UNL     1      30.630 -25.136 -13.420  0.00  0.00    +0.001 C 
ATOM     19  C   UNL     1      30.350 -22.611 -16.126  0.00  0.00    +0.000 C 
ATOM     20  C   UNL     1      28.708 -24.394 -14.745  0.00  0.00    +0.000 C 
ATOM     21  C   UNL     1      28.991 -22.692 -16.434  0.00  0.00    +0.000 C 
ATOM     22  C   UNL     1      28.173 -23.582 -15.746  0.00  0.00    +0.000 C 
ENDBRANCH  10  13
ENDBRANCH   8  10
ENDBRANCH   1   8
BRANCH   1  23
ATOM     23  C   UNL     1      35.436 -23.207 -16.301  0.00  0.00    +0.053 C 
BRANCH  23  24
ATOM     24  C   UNL     1      35.000 -22.381 -17.463  0.00  0.00    -0.020 C 
ATOM     25  C   UNL     1      35.936 -21.635 -18.181  0.00  0.00    -0.004 C 
ATOM     26  C   UNL     1      35.540 -20.852 -19.277  0.00  0.00    -0.000 C 
ATOM     27  C   UNL     1      33.658 -22.355 -17.832  0.00  0.00    -0.004 C 
ATOM     28  C   UNL     1      34.175 -20.826 -19.652  0.00  0.00    -0.000 C 
ATOM     29  C   UNL     1      33.247 -21.583 -18.919  0.00  0.00    -0.000 C 
ATOM     30  C   UNL     1      36.469 -20.096 -20.009  0.00  0.00    -0.000 C 
ATOM     31  C   UNL     1      33.779 -20.043 -20.749  0.00  0.00    -0.000 C 
ATOM     32  C   UNL     1      36.058 -19.323 -21.097  0.00  0.00    -0.000 C 
ATOM     33  C   UNL     1      34.716 -19.297 -21.465  0.00  0.00    -0.000 C 
ENDBRANCH  23  24
ENDBRANCH   1  23
TORSDOF 7
ENDMDL
MODEL 3
REMARK VINA RESULT:     -10.5      1.290      5.502
REMARK  Name = 9823454
REMARK  7 active torsions:
REMARK  status: ('A' for Active; 'I' for Inactive)
REMARK    1  A    between atoms: C_1  and  C_4
REMARK    2  A    between atoms: C_1  and  N_8
REMARK    3  A    between atoms: C_1  and  C_23
REMARK    4  A    between atoms: N_3  and  O_6
REMARK    5  A    between atoms: N_8  and  S_10
REMARK    6  A    between atoms: S_10  and  C_13
REMARK    7  A    between atoms: C_23  and  C_24
REMARK                            x       y       z     vdW  Elec       q    Type
REMARK                         _______ _______ _______ _____ _____    ______ ____
ROOT
ATOM      1  C   UNL     1      36.462 -22.539 -14.109  0.00  0.00    +0.158 C 
ENDROOT
BRANCH   1   4
ATOM      2  O   UNL     1      38.225 -23.920 -13.199  0.00  0.00    -0.272 OA
ATOM      3  N   UNL     1      37.050 -22.533 -11.775  0.00  0.00    -0.196 N 
ATOM      4  C   UNL     1      37.349 -23.079 -12.999  0.00  0.00    +0.260 C 
ATOM      5  H   UNL     1      36.338 -21.861 -11.662  0.00  0.00    +0.182 HD
BRANCH   3   6
ATOM      6  O   UNL     1      37.820 -22.989 -10.697  0.00  0.00    -0.295 OA
ATOM      7  H   UNL     1      37.281 -23.574 -10.140  0.00  0.00    +0.241 HD
ENDBRANCH   3   6
ENDBRANCH   1   4
BRANCH   1   8
ATOM      8  N   UNL     1      35.070 -22.783 -13.660  0.00  0.00    -0.172 NA
ATOM      9  H   UNL     1      34.921 -22.205 -12.834  0.00  0.00    +0.149 HD
BRANCH   8  10
ATOM     10  S   UNL     1      34.575 -24.356 -13.256  0.00  0.00    +0.061 S 
ATOM     11  O   UNL     1      34.695 -24.546 -11.822  0.00  0.00    -0.153 OA
ATOM     12  O   UNL     1      35.202 -25.292 -14.171  0.00  0.00    -0.153 OA
BRANCH  10  13
ATOM     13  C   UNL     1      32.856 -24.313 -13.659  0.00  0.00    +0.122 C 
ATOM     14  C   UNL     1      32.429 -23.529 -14.718  0.00  0.00    +0.020 C 
ATOM     15  C   UNL     1      31.065 -23.483 -15.051  0.00  0.00    +0.001 C 
ATOM     16  C   UNL     1      31.969 -25.062 -12.911  0.00  0.00    +0.020 C 
ATOM     17  C   UNL     1      30.143 -24.245 -14.294  0.00  0.00    +0.000 C 
ATOM     18  C   UNL     1      30.610 -25.029 -13.228  0.00  0.00    +0.001 C 
ATOM     19  C   UNL     1      30.598 -22.699 -16.117  0.00  0.00    +0.000 C 
ATOM     20  C   UNL     1      28.779 -24.198 -14.627  0.00  0.00    +0.000 C 
ATOM     21  C   UNL     1      29.239 -22.665 -16.434  0.00  0.00    +0.000 C 
ATOM     22  C   UNL     1      28.332 -23.413 -15.690  0.00  0.00    +0.000 C 
ENDBRANCH  10  13
ENDBRANCH   8  10
ENDBRANCH   1   8
BRANCH   1  23
ATOM     23  C   UNL     1      36.719 -23.274 -15.434  0.00  0.00    +0.053 C 
BRANCH  23  24
ATOM     24  C   UNL     1      36.271 -22.507 -16.633  0.00  0.00    -0.020 C 
ATOM     25  C   UNL     1      34.928 -22.524 -17.011  0.00  0.00    -0.004 C 
ATOM     26  C   UNL     1      34.491 -21.806 -18.136  0.00  0.00    -0.000 C 
ATOM     27  C   UNL     1      37.194 -21.775 -17.374  0.00  0.00    -0.004 C 
ATOM     28  C   UNL     1      35.430 -21.062 -18.890  0.00  0.00    -0.000 C 
ATOM     29  C   UNL     1      36.777 -21.057 -18.495  0.00  0.00    -0.000 C 
ATOM     30  C   UNL     1      33.143 -21.813 -18.530  0.00  0.00    -0.000 C 
ATOM     31  C   UNL     1      34.993 -20.345 -20.015  0.00  0.00    -0.000 C 
ATOM     32  C   UNL     1      32.726 -21.094 -19.652  0.00  0.00    -0.000 C 
ATOM     33  C   UNL     1      33.650 -20.363 -20.393  0.00  0.00    -0.000 C 
ENDBRANCH  23  24
ENDBRANCH   1  23
TORSDOF 7
ENDMDL
MODEL 4
REMARK VINA RESULT:     -10.4      1.959      3.177
REMARK  Name = 9823454
REMARK  7 active torsions:
REMARK  status: ('A' for Active; 'I' for Inactive)
REMARK    1  A    between atoms: C_1  and  C_4
REMARK    2  A    between atoms: C_1  and  N_8
REMARK    3  A    between atoms: C_1  and  C_23
REMARK    4  A    between atoms: N_3  and  O_6
REMARK    5  A    between atoms: N_8  and  S_10
REMARK    6  A    between atoms: S_10  and  C_13
REMARK    7  A    between atoms: C_23  and  C_24
REMARK                            x       y       z     vdW  Elec       q    Type
REMARK                         _______ _______ _______ _____ _____    ______ ____
ROOT
ATOM      1  C   UNL     1      34.426 -24.070 -15.459  0.00  0.00    +0.158 C 
ENDROOT
BRANCH   1   4
ATOM      2  O   UNL     1      36.650 -24.909 -15.024  0.00  0.00    -0.272 OA
ATOM      3  N   UNL     1      36.248 -22.647 -14.793  0.00  0.00    -0.196 N 
ATOM      4  C   UNL     1      35.891 -23.942 -15.076  0.00  0.00    +0.260 C 
ATOM      5  H   UNL     1      35.605 -21.903 -14.848  0.00  0.00    +0.182 HD
BRANCH   3   6
ATOM      6  O   UNL     1      37.585 -22.449 -14.421  0.00  0.00    -0.295 OA
ATOM      7  H   UNL     1      38.069 -22.043 -15.157  0.00  0.00    +0.241 HD
ENDBRANCH   3   6
ENDBRANCH   1   4
BRANCH   1   8
ATOM      8  N   UNL     1      34.079 -22.798 -16.138  0.00  0.00    -0.172 NA
ATOM      9  H   UNL     1      33.422 -22.309 -15.530  0.00  0.00    +0.149 HD
BRANCH   8  10
ATOM     10  S   UNL     1      33.386 -22.828 -17.688  0.00  0.00    +0.061 S 
ATOM     11  O   UNL     1      32.078 -22.203 -17.644  0.00  0.00    -0.153 OA
ATOM     12  O   UNL     1      33.541 -24.159 -18.243  0.00  0.00    -0.153 OA
BRANCH  10  13
ATOM     13  C   UNL     1      34.469 -21.764 -18.592  0.00  0.00    +0.122 C 
ATOM     14  C   UNL     1      33.957 -21.003 -19.629  0.00  0.00    +0.020 C 
ATOM     15  C   UNL     1      34.804 -20.152 -20.358  0.00  0.00    +0.001 C 
ATOM     16  C   UNL     1      35.805 -21.710 -18.247  0.00  0.00    +0.020 C 
ATOM     17  C   UNL     1      36.177 -20.085 -20.018  0.00  0.00    +0.000 C 
ATOM     18  C   UNL     1      36.661 -20.870 -18.960  0.00  0.00    +0.001 C 
ATOM     19  C   UNL     1      34.320 -19.367 -21.417  0.00  0.00    +0.000 C 
ATOM     20  C   UNL     1      37.024 -19.235 -20.748  0.00  0.00    +0.000 C 
ATOM     21  C   UNL     1      35.176 -18.527 -22.131  0.00  0.00    +0.000 C 
ATOM     22  C   UNL     1      36.525 -18.461 -21.796  0.00  0.00    +0.000 C 
ENDBRANCH  10  13
ENDBRANCH   8  10
ENDBRANCH   1   8
BRANCH   1  23
ATOM     23  C   UNL     1      33.540 -24.256 -14.217  0.00  0.00    +0.053 C 
BRANCH  23  24
ATOM     24  C   UNL     1      32.161 -23.712 -14.386  0.00  0.00    -0.020 C 
ATOM     25  C   UNL     1      31.272 -24.326 -15.270  0.00  0.00    -0.004 C 
ATOM     26  C   UNL     1      29.971 -23.826 -15.440  0.00  0.00    -0.000 C 
ATOM     27  C   UNL     1      31.761 -22.593 -13.662  0.00  0.00    -0.004 C 
ATOM     28  C   UNL     1      29.565 -22.687 -14.703  0.00  0.00    -0.000 C 
ATOM     29  C   UNL     1      30.472 -22.083 -13.818  0.00  0.00    -0.000 C 
ATOM     30  C   UNL     1      29.064 -24.431 -16.325  0.00  0.00    -0.000 C 
ATOM     31  C   UNL     1      28.264 -22.188 -14.873  0.00  0.00    -0.000 C 
ATOM     32  C   UNL     1      27.774 -23.921 -16.482  0.00  0.00    -0.000 C 
ATOM     33  C   UNL     1      27.376 -22.801 -15.758  0.00  0.00    -0.000 C 
ENDBRANCH  23  24
ENDBRANCH   1  23
TORSDOF 7
ENDMDL
MODEL 5
REMARK VINA RESULT:     -10.3      3.585      6.211
REMARK  Name = 9823454
REMARK  7 active torsions:
REMARK  status: ('A' for Active; 'I' for Inactive)
REMARK    1  A    between atoms: C_1  and  C_4
REMARK    2  A    between atoms: C_1  and  N_8
REMARK    3  A    between atoms: C_1  and  C_23
REMARK    4  A    between atoms: N_3  and  O_6
REMARK    5  A    between atoms: N_8  and  S_10
REMARK    6  A    between atoms: S_10  and  C_13
REMARK    7  A    between atoms: C_23  and  C_24
REMARK                            x       y       z     vdW  Elec       q    Type
REMARK                         _______ _______ _______ _____ _____    ______ ____
ROOT
ATOM      1  C   UNL     1      36.527 -22.256 -14.982  0.00  0.00    +0.158 C 
ENDROOT
BRANCH   1   4
ATOM      2  O   UNL     1      37.165 -22.023 -17.302  0.00  0.00    -0.272 OA
ATOM      3  N   UNL     1      37.635 -20.300 -15.839  0.00  0.00    -0.196 N 
ATOM      4  C   UNL     1      37.132 -21.533 -16.174  0.00  0.00    +0.260 C 
ATOM      5  H   UNL     1      37.587 -19.946 -14.921  0.00  0.00    +0.182 HD
BRANCH   3   6
ATOM      6  O   UNL     1      38.221 -19.573 -16.886  0.00  0.00    -0.295 OA
ATOM      7  H   UNL     1      37.651 -18.823 -17.117  0.00  0.00    +0.241 HD
ENDBRANCH   3   6
ENDBRANCH   1   4
BRANCH   1   8
ATOM      8  N   UNL     1      37.671 -22.616 -14.111  0.00  0.00    -0.172 NA
ATOM      9  H   UNL     1      38.239 -23.284 -14.632  0.00  0.00    +0.149 HD
BRANCH   8  10
ATOM     10  S   UNL     1      37.388 -23.298 -12.582  0.00  0.00    +0.061 S 
ATOM     11  O   UNL     1      35.967 -23.260 -12.292  0.00  0.00    -0.153 OA
ATOM     12  O   UNL     1      38.340 -22.742 -11.639  0.00  0.00    -0.153 OA
BRANCH  10  13
ATOM     13  C   UNL     1      37.846 -24.984 -12.844  0.00  0.00    +0.122 C 
ATOM     14  C   UNL     1      38.969 -25.270 -13.602  0.00  0.00    +0.020 C 
ATOM     15  C   UNL     1      39.346 -26.605 -13.820  0.00  0.00    +0.001 C 
ATOM     16  C   UNL     1      37.076 -25.986 -12.287  0.00  0.00    +0.020 C 
ATOM     17  C   UNL     1      38.568 -27.644 -13.257  0.00  0.00    +0.000 C 
ATOM     18  C   UNL     1      37.437 -27.319 -12.493  0.00  0.00    +0.001 C 
ATOM     19  C   UNL     1      40.479 -26.930 -14.585  0.00  0.00    +0.000 C 
ATOM     20  C   UNL     1      38.945 -28.980 -13.476  0.00  0.00    +0.000 C 
ATOM     21  C   UNL     1      40.839 -28.263 -14.791  0.00  0.00    +0.000 C 
ATOM     22  C   UNL     1      40.074 -29.285 -14.238  0.00  0.00    +0.000 C 
ENDBRANCH  10  13
ENDBRANCH   8  10
ENDBRANCH   1   8
BRANCH   1  23
ATOM     23  C   UNL     1      35.785 -23.529 -15.421  0.00  0.00    +0.053 C 
BRANCH  23  24
ATOM     24  C   UNL     1      34.324 -23.317 -15.639  0.00  0.00    -0.020 C 
ATOM     25  C   UNL     1      33.435 -23.432 -14.570  0.00  0.00    -0.004 C 
ATOM     26  C   UNL     1      32.057 -23.235 -14.760  0.00  0.00    -0.000 C 
ATOM     27  C   UNL     1      33.850 -23.005 -16.910  0.00  0.00    -0.004 C 
ATOM     28  C   UNL     1      31.575 -22.918 -16.052  0.00  0.00    -0.000 C 
ATOM     29  C   UNL     1      32.484 -22.806 -17.116  0.00  0.00    -0.000 C 
ATOM     30  C   UNL     1      31.149 -23.348 -13.695  0.00  0.00    -0.000 C 
ATOM     31  C   UNL     1      30.197 -22.721 -16.242  0.00  0.00    -0.000 C 
ATOM     32  C   UNL     1      29.783 -23.149 -13.902  0.00  0.00    -0.000 C 
ATOM     33  C   UNL     1      29.309 -22.837 -15.172  0.00  0.00    -0.000 C 
ENDBRANCH  23  24
ENDBRANCH   1  23
TORSDOF 7
ENDMDL
MODEL 6
REMARK VINA RESULT:     -10.0      2.815      7.872
REMARK  Name = 9823454
REMARK  7 active torsions:
REMARK  status: ('A' for Active; 'I' for Inactive)
REMARK    1  A    between atoms: C_1  and  C_4
REMARK    2  A    between atoms: C_1  and  N_8
REMARK    3  A    between atoms: C_1  and  C_23
REMARK    4  A    between atoms: N_3  and  O_6
REMARK    5  A    between atoms: N_8  and  S_10
REMARK    6  A    between atoms: S_10  and  C_13
REMARK    7  A    between atoms: C_23  and  C_24
REMARK                            x       y       z     vdW  Elec       q    Type
REMARK                         _______ _______ _______ _____ _____    ______ ____
ROOT
ATOM      1  C   UNL     1      36.043 -21.183 -18.078  0.00  0.00    +0.158 C 
ENDROOT
BRANCH   1   4
ATOM      2  O   UNL     1      37.829 -20.235 -16.753  0.00  0.00    -0.272 OA
ATOM      3  N   UNL     1      37.314 -22.470 -16.491  0.00  0.00    -0.196 N 
ATOM      4  C   UNL     1      37.155 -21.223 -17.042  0.00  0.00    +0.260 C 
ATOM      5  H   UNL     1      36.749 -23.234 -16.753  0.00  0.00    +0.182 HD
BRANCH   3   6
ATOM      6  O   UNL     1      38.329 -22.591 -15.532  0.00  0.00    -0.295 OA
ATOM      7  H   UNL     1      38.308 -23.483 -15.151  0.00  0.00    +0.241 HD
ENDBRANCH   3   6
ENDBRANCH   1   4
BRANCH   1   8
ATOM      8  N   UNL     1      35.166 -22.336 -17.765  0.00  0.00    -0.172 NA
ATOM      9  H   UNL     1      35.669 -23.175 -18.051  0.00  0.00    +0.149 HD
BRANCH   8  10
ATOM     10  S   UNL     1      33.618 -22.432 -18.456  0.00  0.00    +0.061 S 
ATOM     11  O   UNL     1      33.565 -23.558 -19.369  0.00  0.00    -0.153 OA
ATOM     12  O   UNL     1      33.224 -21.110 -18.906  0.00  0.00    -0.153 OA
BRANCH  10  13
ATOM     13  C   UNL     1      32.616 -22.819 -17.054  0.00  0.00    +0.122 C 
ATOM     14  C   UNL     1      33.190 -23.458 -15.968  0.00  0.00    +0.020 C 
ATOM     15  C   UNL     1      32.407 -23.774 -14.846  0.00  0.00    +0.001 C 
ATOM     16  C   UNL     1      31.278 -22.477 -17.066  0.00  0.00    +0.020 C 
ATOM     17  C   UNL     1      31.034 -23.430 -14.841  0.00  0.00    +0.000 C 
ATOM     18  C   UNL     1      30.485 -22.782 -15.958  0.00  0.00    +0.001 C 
ATOM     19  C   UNL     1      32.957 -24.422 -13.728  0.00  0.00    +0.000 C 
ATOM     20  C   UNL     1      30.251 -23.746 -13.719  0.00  0.00    +0.000 C 
ATOM     21  C   UNL     1      32.164 -24.728 -12.621  0.00  0.00    +0.000 C 
ATOM     22  C   UNL     1      30.814 -24.391 -12.617  0.00  0.00    +0.000 C 
ENDBRANCH  10  13
ENDBRANCH   8  10
ENDBRANCH   1   8
BRANCH   1  23
ATOM     23  C   UNL     1      36.605 -21.326 -19.502  0.00  0.00    +0.053 C 
BRANCH  23  24
ATOM     24  C   UNL     1      36.298 -20.158 -20.379  0.00  0.00    -0.020 C 
ATOM     25  C   UNL     1      35.385 -20.291 -21.426  0.00  0.00    -0.004 C 
ATOM     26  C   UNL     1      35.087 -19.201 -22.260  0.00  0.00    -0.000 C 
ATOM     27  C   UNL     1      36.924 -18.936 -20.152  0.00  0.00    -0.004 C 
ATOM     28  C   UNL     1      35.723 -17.958 -22.028  0.00  0.00    -0.000 C 
ATOM     29  C   UNL     1      36.639 -17.843 -20.970  0.00  0.00    -0.000 C 
ATOM     30  C   UNL     1      34.171 -19.318 -23.317  0.00  0.00    -0.000 C 
ATOM     31  C   UNL     1      35.425 -16.868 -22.862  0.00  0.00    -0.000 C 
ATOM     32  C   UNL     1      33.886 -18.224 -24.136  0.00  0.00    -0.000 C 
ATOM     33  C   UNL     1      34.512 -17.003 -23.909  0.00  0.00    -0.000 C 
ENDBRANCH  23  24
ENDBRANCH   1  23
TORSDOF 7
ENDMDL
MODEL 7
REMARK VINA RESULT:      -9.6      4.477      6.728
REMARK  Name = 9823454
REMARK  7 active torsions:
REMARK  status: ('A' for Active; 'I' for Inactive)
REMARK    1  A    between atoms: C_1  and  C_4
REMARK    2  A    between atoms: C_1  and  N_8
REMARK    3  A    between atoms: C_1  and  C_23
REMARK    4  A    between atoms: N_3  and  O_6
REMARK    5  A    between atoms: N_8  and  S_10
REMARK    6  A    between atoms: S_10  and  C_13
REMARK    7  A    between atoms: C_23  and  C_24
REMARK                            x       y       z     vdW  Elec       q    Type
REMARK                         _______ _______ _______ _____ _____    ______ ____
ROOT
ATOM      1  C   UNL     1      37.489 -25.385 -12.863  0.00  0.00    +0.158 C 
ENDROOT
BRANCH   1   4
ATOM      2  O   UNL     1      36.200 -25.420 -10.818  0.00  0.00    -0.272 OA
ATOM      3  N   UNL     1      37.580 -23.616 -11.234  0.00  0.00    -0.196 N 
ATOM      4  C   UNL     1      37.012 -24.831 -11.530  0.00  0.00    +0.260 C 
ATOM      5  H   UNL     1      38.227 -23.180 -11.836  0.00  0.00    +0.182 HD
BRANCH   3   6
ATOM      6  O   UNL     1      37.181 -23.033 -10.023  0.00  0.00    -0.295 OA
ATOM      7  H   UNL     1      37.934 -23.011  -9.413  0.00  0.00    +0.241 HD
ENDBRANCH   3   6
ENDBRANCH   1   4
BRANCH   1   8
ATOM      8  N   UNL     1      36.763 -24.612 -13.899  0.00  0.00    -0.172 NA
ATOM      9  H   UNL     1      36.551 -25.260 -14.656  0.00  0.00    +0.149 HD
BRANCH   8  10
ATOM     10  S   UNL     1      37.495 -23.252 -14.606  0.00  0.00    +0.061 S 
ATOM     11  O   UNL     1      38.719 -23.655 -15.273  0.00  0.00    -0.153 OA
ATOM     12  O   UNL     1      37.515 -22.174 -13.635  0.00  0.00    -0.153 OA
BRANCH  10  13
ATOM     13  C   UNL     1      36.318 -22.808 -15.846  0.00  0.00    +0.122 C 
ATOM     14  C   UNL     1      36.735 -22.068 -16.940  0.00  0.00    +0.020 C 
ATOM     15  C   UNL     1      35.812 -21.707 -17.934  0.00  0.00    +0.001 C 
ATOM     16  C   UNL     1      35.004 -23.208 -15.703  0.00  0.00    +0.020 C 
ATOM     17  C   UNL     1      34.461 -22.108 -17.803  0.00  0.00    +0.000 C 
ATOM     18  C   UNL     1      34.073 -22.858 -16.682  0.00  0.00    +0.001 C 
ATOM     19  C   UNL     1      36.200 -20.956 -19.056  0.00  0.00    +0.000 C 
ATOM     20  C   UNL     1      33.537 -21.746 -18.797  0.00  0.00    +0.000 C 
ATOM     21  C   UNL     1      35.269 -20.605 -20.035  0.00  0.00    +0.000 C 
ATOM     22  C   UNL     1      33.941 -21.000 -19.906  0.00  0.00    +0.000 C 
ENDBRANCH  10  13
ENDBRANCH   8  10
ENDBRANCH   1   8
BRANCH   1  23
ATOM     23  C   UNL     1      37.152 -26.879 -12.997  0.00  0.00    +0.053 C 
BRANCH  23  24
ATOM     24  C   UNL     1      37.935 -27.570 -14.062  0.00  0.00    -0.020 C 
ATOM     25  C   UNL     1      39.281 -27.874 -13.852  0.00  0.00    -0.004 C 
ATOM     26  C   UNL     1      40.032 -28.524 -14.845  0.00  0.00    -0.000 C 
ATOM     27  C   UNL     1      37.324 -27.911 -15.264  0.00  0.00    -0.004 C 
ATOM     28  C   UNL     1      39.409 -28.870 -16.068  0.00  0.00    -0.000 C 
ATOM     29  C   UNL     1      38.054 -28.557 -16.261  0.00  0.00    -0.000 C 
ATOM     30  C   UNL     1      41.387 -28.837 -14.651  0.00  0.00    -0.000 C 
ATOM     31  C   UNL     1      40.160 -29.520 -17.061  0.00  0.00    -0.000 C 
ATOM     32  C   UNL     1      42.118 -29.483 -15.649  0.00  0.00    -0.000 C 
ATOM     33  C   UNL     1      41.506 -29.823 -16.851  0.00  0.00    -0.000 C 
ENDBRANCH  23  24
ENDBRANCH   1  23
TORSDOF 7
ENDMDL
MODEL 8
REMARK VINA RESULT:      -9.6      5.157      8.018
REMARK  Name = 9823454
REMARK  7 active torsions:
REMARK  status: ('A' for Active; 'I' for Inactive)
REMARK    1  A    between atoms: C_1  and  C_4
REMARK    2  A    between atoms: C_1  and  N_8
REMARK    3  A    between atoms: C_1  and  C_23
REMARK    4  A    between atoms: N_3  and  O_6
REMARK    5  A    between atoms: N_8  and  S_10
REMARK    6  A    between atoms: S_10  and  C_13
REMARK    7  A    between atoms: C_23  and  C_24
REMARK                            x       y       z     vdW  Elec       q    Type
REMARK                         _______ _______ _______ _____ _____    ______ ____
ROOT
ATOM      1  C   UNL     1      34.896 -20.367 -19.730  0.00  0.00    +0.158 C 
ENDROOT
BRANCH   1   4
ATOM      2  O   UNL     1      32.706 -21.022 -18.945  0.00  0.00    -0.272 OA
ATOM      3  N   UNL     1      32.904 -20.102 -21.053  0.00  0.00    -0.196 N 
ATOM      4  C   UNL     1      33.390 -20.537 -19.845  0.00  0.00    +0.260 C 
ATOM      5  H   UNL     1      33.491 -19.719 -21.746  0.00  0.00    +0.182 HD
BRANCH   3   6
ATOM      6  O   UNL     1      31.521 -20.234 -21.240  0.00  0.00    -0.295 OA
ATOM      7  H   UNL     1      31.244 -19.694 -21.997  0.00  0.00    +0.241 HD
ENDBRANCH   3   6
ENDBRANCH   1   4
BRANCH   1   8
ATOM      8  N   UNL     1      35.338 -19.832 -21.040  0.00  0.00    -0.172 NA
ATOM      9  H   UNL     1      35.781 -20.603 -21.539  0.00  0.00    +0.149 HD
BRANCH   8  10
ATOM     10  S   UNL     1      36.418 -18.523 -21.098  0.00  0.00    +0.061 S 
ATOM     11  O   UNL     1      37.646 -18.938 -21.749  0.00  0.00    -0.153 OA
ATOM     12  O   UNL     1      36.462 -17.896 -19.790  0.00  0.00    -0.153 OA
BRANCH  10  13
ATOM     13  C   UNL     1      35.579 -17.405 -22.178  0.00  0.00    +0.122 C 
ATOM     14  C   UNL     1      35.323 -16.114 -21.748  0.00  0.00    +0.020 C 
ATOM     15  C   UNL     1      34.656 -15.213 -22.595  0.00  0.00    +0.001 C 
ATOM     16  C   UNL     1      35.194 -17.839 -23.431  0.00  0.00    +0.020 C 
ATOM     17  C   UNL     1      34.254 -15.642 -23.882  0.00  0.00    +0.000 C 
ATOM     18  C   UNL     1      34.531 -16.957 -24.285  0.00  0.00    +0.001 C 
ATOM     19  C   UNL     1      34.379 -13.897 -22.191  0.00  0.00    +0.000 C 
ATOM     20  C   UNL     1      33.586 -14.741 -24.729  0.00  0.00    +0.000 C 
ATOM     21  C   UNL     1      33.715 -13.015 -23.045  0.00  0.00    +0.000 C 
ATOM     22  C   UNL     1      33.320 -13.436 -24.311  0.00  0.00    +0.000 C 
ENDBRANCH  10  13
ENDBRANCH   8  10
ENDBRANCH   1   8
BRANCH   1  23
ATOM     23  C   UNL     1      35.588 -21.713 -19.456  0.00  0.00    +0.053 C 
BRANCH  23  24
ATOM     24  C   UNL     1      35.819 -21.976 -18.006  0.00  0.00    -0.020 C 
ATOM     25  C   UNL     1      34.860 -22.662 -17.260  0.00  0.00    -0.004 C 
ATOM     26  C   UNL     1      35.062 -22.917 -15.894  0.00  0.00    -0.000 C 
ATOM     27  C   UNL     1      36.991 -21.538 -17.398  0.00  0.00    -0.004 C 
ATOM     28  C   UNL     1      36.255 -22.471 -15.276  0.00  0.00    -0.000 C 
ATOM     29  C   UNL     1      37.209 -21.783 -16.042  0.00  0.00    -0.000 C 
ATOM     30  C   UNL     1      34.107 -23.605 -15.129  0.00  0.00    -0.000 C 
ATOM     31  C   UNL     1      36.457 -22.726 -13.910  0.00  0.00    -0.000 C 
ATOM     32  C   UNL     1      34.325 -23.850 -13.772  0.00  0.00    -0.000 C 
ATOM     33  C   UNL     1      35.497 -23.411 -13.164  0.00  0.00    -0.000 C 
ENDBRANCH  23  24
ENDBRANCH   1  23
TORSDOF 7
ENDMDL
MODEL 9
REMARK VINA RESULT:      -9.4      3.714      6.443
REMARK  Name = 9823454
REMARK  7 active torsions:
REMARK  status: ('A' for Active; 'I' for Inactive)
REMARK    1  A    between atoms: C_1  and  C_4
REMARK    2  A    between atoms: C_1  and  N_8
REMARK    3  A    between atoms: C_1  and  C_23
REMARK    4  A    between atoms: N_3  and  O_6
REMARK    5  A    between atoms: N_8  and  S_10
REMARK    6  A    between atoms: S_10  and  C_13
REMARK    7  A    between atoms: C_23  and  C_24
REMARK                            x       y       z     vdW  Elec       q    Type
REMARK                         _______ _______ _______ _____ _____    ______ ____
ROOT
ATOM      1  C   UNL     1      36.941 -23.548 -14.889  0.00  0.00    +0.158 C 
ENDROOT
BRANCH   1   4
ATOM      2  O   UNL     1      38.989 -22.651 -15.808  0.00  0.00    -0.272 OA
ATOM      3  N   UNL     1      37.130 -21.287 -15.690  0.00  0.00    -0.196 N 
ATOM      4  C   UNL     1      37.809 -22.467 -15.512  0.00  0.00    +0.260 C 
ATOM      5  H   UNL     1      36.183 -21.185 -15.438  0.00  0.00    +0.182 HD
BRANCH   3   6
ATOM      6  O   UNL     1      37.867 -20.236 -16.251  0.00  0.00    -0.295 OA
ATOM      7  H   UNL     1      38.139 -19.622 -15.551  0.00  0.00    +0.241 HD
ENDBRANCH   3   6
ENDBRANCH   1   4
BRANCH   1   8
ATOM      8  N   UNL     1      35.598 -22.939 -14.731  0.00  0.00    -0.172 NA
ATOM      9  H   UNL     1      35.453 -22.802 -13.731  0.00  0.00    +0.149 HD
BRANCH   8  10
ATOM     10  S   UNL     1      34.228 -23.750 -15.321  0.00  0.00    +0.061 S 
ATOM     11  O   UNL     1      33.141 -23.616 -14.369  0.00  0.00    -0.153 OA
ATOM     12  O   UNL     1      34.628 -25.063 -15.791  0.00  0.00    -0.153 OA
BRANCH  10  13
ATOM     13  C   UNL     1      33.823 -22.791 -16.749  0.00  0.00    +0.122 C 
ATOM     14  C   UNL     1      34.845 -22.268 -17.523  0.00  0.00    +0.020 C 
ATOM     15  C   UNL     1      34.540 -21.504 -18.661  0.00  0.00    +0.001 C 
ATOM     16  C   UNL     1      32.496 -22.581 -17.066  0.00  0.00    +0.020 C 
ATOM     17  C   UNL     1      33.185 -21.278 -19.001  0.00  0.00    +0.000 C 
ATOM     18  C   UNL     1      32.175 -21.824 -18.194  0.00  0.00    +0.001 C 
ATOM     19  C   UNL     1      35.551 -20.958 -19.469  0.00  0.00    +0.000 C 
ATOM     20  C   UNL     1      32.880 -20.513 -20.138  0.00  0.00    +0.000 C 
ATOM     21  C   UNL     1      35.230 -20.200 -20.596  0.00  0.00    +0.000 C 
ATOM     22  C   UNL     1      33.898 -19.979 -20.930  0.00  0.00    +0.000 C 
ENDBRANCH  10  13
ENDBRANCH   8  10
ENDBRANCH   1   8
BRANCH   1  23
ATOM     23  C   UNL     1      37.484 -23.976 -13.516  0.00  0.00    +0.053 C 
BRANCH  23  24
ATOM     24  C   UNL     1      37.891 -25.410 -13.460  0.00  0.00    -0.020 C 
ATOM     25  C   UNL     1      39.009 -25.847 -14.170  0.00  0.00    -0.004 C 
ATOM     26  C   UNL     1      39.404 -27.194 -14.128  0.00  0.00    -0.000 C 
ATOM     27  C   UNL     1      37.153 -26.312 -12.699  0.00  0.00    -0.004 C 
ATOM     28  C   UNL     1      38.654 -28.111 -13.353  0.00  0.00    -0.000 C 
ATOM     29  C   UNL     1      37.532 -27.653 -12.645  0.00  0.00    -0.000 C 
ATOM     30  C   UNL     1      40.527 -27.650 -14.837  0.00  0.00    -0.000 C 
ATOM     31  C   UNL     1      39.049 -29.458 -13.311  0.00  0.00    -0.000 C 
ATOM     32  C   UNL     1      40.905 -28.993 -14.783  0.00  0.00    -0.000 C 
ATOM     33  C   UNL     1      40.167 -29.894 -14.022  0.00  0.00    -0.000 C 
ENDBRANCH  23  24
ENDBRANCH   1  23
TORSDOF 7
ENDMDL
