MODEL 1
REMARK VINA RESULT:     -11.8      0.000      0.000
REMARK  Name = 17758361
REMARK  5 active torsions:
REMARK  status: ('A' for Active; 'I' for Inactive)
REMARK    1  A    between atoms: N_1  and  C_18
REMARK    2  A    between atoms: C_4  and  C_10
REMARK    3  A    between atoms: C_10  and  C_11
REMARK    4  A    between atoms: C_18  and  C_19
REMARK    5  A    between atoms: C_22  and  C_27
REMARK                            x       y       z     vdW  Elec       q    Type
REMARK                         _______ _______ _______ _____ _____    ______ ____
ROOT
ATOM      1  N   UNL     1      35.932 -18.125 -22.810  0.00  0.00    -0.314 N 
ATOM      2  N   UNL     1      34.795 -16.934 -24.493  0.00  0.00    -0.229 NA
ATOM      3  C   UNL     1      35.209 -17.013 -23.208  0.00  0.00    +0.129 C 
ATOM      4  C   UNL     1      34.235 -14.920 -22.637  0.00  0.00    +0.043 C 
ATOM      5  C   UNL     1      34.958 -16.043 -22.251  0.00  0.00    +0.037 C 
ATOM      6  C   UNL     1      33.791 -14.803 -23.950  0.00  0.00    +0.024 C 
ATOM      7  C   UNL     1      34.095 -15.828 -24.831  0.00  0.00    +0.100 C 
ATOM      8  H   UNL     1      36.118 -18.822 -23.480  0.00  0.00    +0.149 HD
ENDROOT
BRANCH   4  10
ATOM      9  O   UNL     1      34.097 -14.076 -20.460  0.00  0.00    -0.287 OA
ATOM     10  C   UNL     1      33.943 -13.871 -21.672  0.00  0.00    +0.196 C 
BRANCH  10  11
ATOM     11  C   UNL     1      33.454 -12.520 -22.083  0.00  0.00    +0.039 C 
ATOM     12  C   UNL     1      34.186 -11.760 -22.996  0.00  0.00    -0.001 C 
ATOM     13  C   UNL     1      33.729 -10.500 -23.380  0.00  0.00    -0.022 C 
ATOM     14  C   UNL     1      32.265 -12.020 -21.555  0.00  0.00    +0.003 C 
ATOM     15  C   UNL     1      32.539  -9.999 -22.851  0.00  0.00    -0.004 C 
ATOM     16  C   UNL     1      31.807 -10.759 -21.939  0.00  0.00    -0.000 C 
ATOM     17  C   UNL     1      34.509  -9.689 -24.358  0.00  0.00    +0.031 C 
ENDBRANCH  10  11
ENDBRANCH   4  10
BRANCH   1  18
ATOM     18  C   UNL     1      36.429 -18.317 -21.466  0.00  0.00    +0.115 C 
BRANCH  18  19
ATOM     19  C   UNL     1      35.643 -19.365 -20.751  0.00  0.00    -0.003 C 
ATOM     20  C   UNL     1      36.295 -20.289 -19.935  0.00  0.00    -0.003 C 
ATOM     21  C   UNL     1      34.257 -19.422 -20.901  0.00  0.00    -0.003 C 
ATOM     22  C   UNL     1      34.176 -21.327 -19.417  0.00  0.00    +0.031 C 
ATOM     23  C   UNL     1      35.561 -21.270 -19.268  0.00  0.00    +0.002 C 
ATOM     24  C   UNL     1      33.524 -20.403 -20.234  0.00  0.00    +0.002 C 
BRANCH  22  27
ATOM     25  N   UNL     1      32.286 -22.026 -17.966  0.00  0.00    -0.343 N 
ATOM     26  N   UNL     1      33.785 -23.615 -18.797  0.00  0.00    -0.285 NA
ATOM     27  C   UNL     1      33.412 -22.349 -18.722  0.00  0.00    +0.117 C 
ATOM     28  H   UNL     1      31.783 -22.735 -17.503  0.00  0.00    +0.144 HD
ATOM     29  H   UNL     1      31.993 -21.088 -17.895  0.00  0.00    +0.144 HD
ATOM     30  H   UNL     1      33.269 -24.309 -18.327  0.00  0.00    +0.188 HD
ENDBRANCH  22  27
ENDBRANCH  18  19
ENDBRANCH   1  18
TORSDOF 5
ENDMDL
MODEL 2
REMARK VINA RESULT:     -11.8      5.495     11.300
REMARK  Name = 17758361
REMARK  5 active torsions:
REMARK  status: ('A' for Active; 'I' for Inactive)
REMARK    1  A    between atoms: N_1  and  C_18
REMARK    2  A    between atoms: C_4  and  C_10
REMARK    3  A    between atoms: C_10  and  C_11
REMARK    4  A    between atoms: C_18  and  C_19
REMARK    5  A    between atoms: C_22  and  C_27
REMARK                            x       y       z     vdW  Elec       q    Type
REMARK                         _______ _______ _______ _____ _____    ______ ____
ROOT
ATOM      1  N   UNL     1      32.531 -22.385 -17.983  0.00  0.00    -0.314 N 
ATOM      2  N   UNL     1      30.564 -22.435 -16.691  0.00  0.00    -0.229 NA
ATOM      3  C   UNL     1      31.883 -22.709 -16.803  0.00  0.00    +0.129 C 
ATOM      4  C   UNL     1      32.004 -23.626 -14.612  0.00  0.00    +0.043 C 
ATOM      5  C   UNL     1      32.641 -23.297 -15.803  0.00  0.00    +0.037 C 
ATOM      6  C   UNL     1      30.647 -23.360 -14.459  0.00  0.00    +0.024 C 
ATOM      7  C   UNL     1      29.978 -22.768 -15.519  0.00  0.00    +0.100 C 
ATOM      8  H   UNL     1      32.004 -21.967 -18.702  0.00  0.00    +0.149 HD
ENDROOT
BRANCH   4  10
ATOM      9  O   UNL     1      32.157 -24.806 -12.599  0.00  0.00    -0.287 OA
ATOM     10  C   UNL     1      32.752 -24.245 -13.529  0.00  0.00    +0.196 C 
BRANCH  10  11
ATOM     11  C   UNL     1      34.246 -24.237 -13.482  0.00  0.00    +0.039 C 
ATOM     12  C   UNL     1      34.907 -23.638 -12.409  0.00  0.00    -0.001 C 
ATOM     13  C   UNL     1      36.300 -23.631 -12.364  0.00  0.00    -0.022 C 
ATOM     14  C   UNL     1      34.979 -24.830 -14.509  0.00  0.00    +0.003 C 
ATOM     15  C   UNL     1      37.034 -24.225 -13.392  0.00  0.00    -0.004 C 
ATOM     16  C   UNL     1      36.373 -24.824 -14.464  0.00  0.00    -0.000 C 
ATOM     17  C   UNL     1      37.007 -22.993 -11.216  0.00  0.00    +0.031 C 
ENDBRANCH  10  11
ENDBRANCH   4  10
BRANCH   1  18
ATOM     18  C   UNL     1      33.937 -22.628 -18.217  0.00  0.00    +0.115 C 
BRANCH  18  19
ATOM     19  C   UNL     1      34.534 -21.548 -19.055  0.00  0.00    -0.003 C 
ATOM     20  C   UNL     1      33.709 -20.722 -19.817  0.00  0.00    -0.003 C 
ATOM     21  C   UNL     1      35.917 -21.366 -19.078  0.00  0.00    -0.003 C 
ATOM     22  C   UNL     1      35.649 -19.531 -20.625  0.00  0.00    +0.031 C 
ATOM     23  C   UNL     1      34.266 -19.713 -20.602  0.00  0.00    +0.002 C 
ATOM     24  C   UNL     1      36.474 -20.357 -19.863  0.00  0.00    +0.002 C 
BRANCH  22  27
ATOM     25  N   UNL     1      37.589 -18.462 -21.748  0.00  0.00    -0.343 N 
ATOM     26  N   UNL     1      35.461 -17.510 -21.912  0.00  0.00    -0.285 NA
ATOM     27  C   UNL     1      36.229 -18.478 -21.444  0.00  0.00    +0.117 C 
ATOM     28  H   UNL     1      37.961 -17.740 -22.305  0.00  0.00    +0.144 HD
ATOM     29  H   UNL     1      38.178 -19.173 -21.406  0.00  0.00    +0.144 HD
ATOM     30  H   UNL     1      35.851 -16.797 -22.468  0.00  0.00    +0.188 HD
ENDBRANCH  22  27
ENDBRANCH  18  19
ENDBRANCH   1  18
TORSDOF 5
ENDMDL
MODEL 3
REMARK VINA RESULT:     -11.5      5.332     11.042
REMARK  Name = 17758361
REMARK  5 active torsions:
REMARK  status: ('A' for Active; 'I' for Inactive)
REMARK    1  A    between atoms: N_1  and  C_18
REMARK    2  A    between atoms: C_4  and  C_10
REMARK    3  A    between atoms: C_10  and  C_11
REMARK    4  A    between atoms: C_18  and  C_19
REMARK    5  A    between atoms: C_22  and  C_27
REMARK                            x       y       z     vdW  Elec       q    Type
REMARK                         _______ _______ _______ _____ _____    ______ ____
ROOT
ATOM      1  N   UNL     1      34.854 -22.757 -17.192  0.00  0.00    -0.314 N 
ATOM      2  N   UNL     1      35.890 -23.597 -15.252  0.00  0.00    -0.229 NA
ATOM      3  C   UNL     1      34.769 -23.163 -15.870  0.00  0.00    +0.129 C 
ATOM      4  C   UNL     1      33.425 -23.501 -13.938  0.00  0.00    +0.043 C 
ATOM      5  C   UNL     1      33.525 -23.096 -15.264  0.00  0.00    +0.037 C 
ATOM      6  C   UNL     1      34.556 -23.954 -13.268  0.00  0.00    +0.024 C 
ATOM      7  C   UNL     1      35.754 -23.983 -13.964  0.00  0.00    +0.100 C 
ATOM      8  H   UNL     1      35.732 -22.799 -17.635  0.00  0.00    +0.149 HD
ENDROOT
BRANCH   4  10
ATOM      9  O   UNL     1      32.074 -23.055 -12.082  0.00  0.00    -0.287 OA
ATOM     10  C   UNL     1      32.143 -23.452 -13.253  0.00  0.00    +0.196 C 
BRANCH  10  11
ATOM     11  C   UNL     1      30.867 -23.870 -13.911  0.00  0.00    +0.039 C 
ATOM     12  C   UNL     1      30.038 -22.912 -14.497  0.00  0.00    -0.001 C 
ATOM     13  C   UNL     1      28.849 -23.302 -15.112  0.00  0.00    -0.022 C 
ATOM     14  C   UNL     1      30.507 -25.216 -13.941  0.00  0.00    +0.003 C 
ATOM     15  C   UNL     1      28.489 -24.650 -15.142  0.00  0.00    -0.004 C 
ATOM     16  C   UNL     1      29.318 -25.606 -14.557  0.00  0.00    -0.000 C 
ATOM     17  C   UNL     1      27.964 -22.280 -15.741  0.00  0.00    +0.031 C 
ENDBRANCH  10  11
ENDBRANCH   4  10
BRANCH   1  18
ATOM     18  C   UNL     1      33.723 -22.276 -17.955  0.00  0.00    +0.115 C 
BRANCH  18  19
ATOM     19  C   UNL     1      34.166 -21.354 -19.041  0.00  0.00    -0.003 C 
ATOM     20  C   UNL     1      35.526 -21.130 -19.254  0.00  0.00    -0.003 C 
ATOM     21  C   UNL     1      33.220 -20.715 -19.843  0.00  0.00    -0.003 C 
ATOM     22  C   UNL     1      34.995 -19.629 -21.070  0.00  0.00    +0.031 C 
ATOM     23  C   UNL     1      35.940 -20.268 -20.268  0.00  0.00    +0.002 C 
ATOM     24  C   UNL     1      33.635 -19.853 -20.858  0.00  0.00    +0.002 C 
BRANCH  22  27
ATOM     25  N   UNL     1      34.545 -18.288 -23.111  0.00  0.00    -0.343 N 
ATOM     26  N   UNL     1      36.684 -18.319 -22.168  0.00  0.00    -0.285 NA
ATOM     27  C   UNL     1      35.428 -18.730 -22.127  0.00  0.00    +0.117 C 
ATOM     28  H   UNL     1      34.860 -17.679 -23.818  0.00  0.00    +0.144 HD
ATOM     29  H   UNL     1      33.606 -18.585 -23.099  0.00  0.00    +0.144 HD
ATOM     30  H   UNL     1      36.979 -17.710 -22.883  0.00  0.00    +0.188 HD
ENDBRANCH  22  27
ENDBRANCH  18  19
ENDBRANCH   1  18
TORSDOF 5
ENDMDL
MODEL 4
REMARK VINA RESULT:     -11.5      2.951      8.741
REMARK  Name = 17758361
REMARK  5 active torsions:
REMARK  status: ('A' for Active; 'I' for Inactive)
REMARK    1  A    between atoms: N_1  and  C_18
REMARK    2  A    between atoms: C_4  and  C_10
REMARK    3  A    between atoms: C_10  and  C_11
REMARK    4  A    between atoms: C_18  and  C_19
REMARK    5  A    between atoms: C_22  and  C_27
REMARK                            x       y       z     vdW  Elec       q    Type
REMARK                         _______ _______ _______ _____ _____    ______ ____
ROOT
ATOM      1  N   UNL     1      34.176 -15.311 -24.181  0.00  0.00    -0.314 N 
ATOM      2  N   UNL     1      33.503 -17.487 -24.774  0.00  0.00    -0.229 NA
ATOM      3  C   UNL     1      34.227 -16.678 -23.969  0.00  0.00    +0.129 C 
ATOM      4  C   UNL     1      35.086 -18.500 -22.705  0.00  0.00    +0.043 C 
ATOM      5  C   UNL     1      35.027 -17.130 -22.931  0.00  0.00    +0.037 C 
ATOM      6  C   UNL     1      34.355 -19.365 -23.513  0.00  0.00    +0.024 C 
ATOM      7  C   UNL     1      33.585 -18.813 -24.525  0.00  0.00    +0.100 C 
ATOM      8  H   UNL     1      33.613 -14.975 -24.916  0.00  0.00    +0.149 HD
ENDROOT
BRANCH   4  10
ATOM      9  O   UNL     1      37.114 -18.747 -21.566  0.00  0.00    -0.287 OA
ATOM     10  C   UNL     1      35.908 -19.029 -21.628  0.00  0.00    +0.196 C 
BRANCH  10  11
ATOM     11  C   UNL     1      35.357 -19.921 -20.564  0.00  0.00    +0.039 C 
ATOM     12  C   UNL     1      36.212 -20.494 -19.621  0.00  0.00    -0.001 C 
ATOM     13  C   UNL     1      35.697 -21.326 -18.628  0.00  0.00    -0.022 C 
ATOM     14  C   UNL     1      33.988 -20.179 -20.511  0.00  0.00    +0.003 C 
ATOM     15  C   UNL     1      34.326 -21.584 -18.575  0.00  0.00    -0.004 C 
ATOM     16  C   UNL     1      33.472 -21.010 -19.516  0.00  0.00    -0.000 C 
ATOM     17  C   UNL     1      36.609 -21.937 -17.618  0.00  0.00    +0.031 C 
ENDBRANCH  10  11
ENDBRANCH   4  10
BRANCH   1  18
ATOM     18  C   UNL     1      34.906 -14.349 -23.383  0.00  0.00    +0.115 C 
BRANCH  18  19
ATOM     19  C   UNL     1      34.001 -13.271 -22.887  0.00  0.00    -0.003 C 
ATOM     20  C   UNL     1      33.962 -12.039 -23.540  0.00  0.00    -0.003 C 
ATOM     21  C   UNL     1      33.196 -13.495 -21.770  0.00  0.00    -0.003 C 
ATOM     22  C   UNL     1      32.313 -11.254 -21.959  0.00  0.00    +0.031 C 
ATOM     23  C   UNL     1      33.118 -11.031 -23.075  0.00  0.00    +0.002 C 
ATOM     24  C   UNL     1      32.352 -12.487 -21.306  0.00  0.00    +0.002 C 
BRANCH  22  27
ATOM     25  N   UNL     1      31.267  -9.014 -22.183  0.00  0.00    -0.343 N 
ATOM     26  N   UNL     1      30.776 -10.364 -20.341  0.00  0.00    -0.285 NA
ATOM     27  C   UNL     1      31.434 -10.202 -21.475  0.00  0.00    +0.117 C 
ATOM     28  H   UNL     1      30.666  -8.314 -21.838  0.00  0.00    +0.144 HD
ATOM     29  H   UNL     1      31.750  -8.873 -23.030  0.00  0.00    +0.144 HD
ATOM     30  H   UNL     1      30.180  -9.654 -20.011  0.00  0.00    +0.188 HD
ENDBRANCH  22  27
ENDBRANCH  18  19
ENDBRANCH   1  18
TORSDOF 5
ENDMDL
MODEL 5
REMARK VINA RESULT:     -11.1      3.039      9.195
REMARK  Name = 17758361
REMARK  5 active torsions:
REMARK  status: ('A' for Active; 'I' for Inactive)
REMARK    1  A    between atoms: N_1  and  C_18
REMARK    2  A    between atoms: C_4  and  C_10
REMARK    3  A    between atoms: C_10  and  C_11
REMARK    4  A    between atoms: C_18  and  C_19
REMARK    5  A    between atoms: C_22  and  C_27
REMARK                            x       y       z     vdW  Elec       q    Type
REMARK                         _______ _______ _______ _____ _____    ______ ____
ROOT
ATOM      1  N   UNL     1      33.884 -14.829 -23.484  0.00  0.00    -0.314 N 
ATOM      2  N   UNL     1      33.677 -16.906 -24.571  0.00  0.00    -0.229 NA
ATOM      3  C   UNL     1      34.201 -16.174 -23.562  0.00  0.00    +0.129 C 
ATOM      4  C   UNL     1      35.369 -18.035 -22.654  0.00  0.00    +0.043 C 
ATOM      5  C   UNL     1      35.043 -16.685 -22.588  0.00  0.00    +0.037 C 
ATOM      6  C   UNL     1      34.850 -18.822 -23.677  0.00  0.00    +0.024 C 
ATOM      7  C   UNL     1      34.016 -18.215 -24.602  0.00  0.00    +0.100 C 
ATOM      8  H   UNL     1      33.287 -14.451 -24.170  0.00  0.00    +0.149 HD
ENDROOT
BRANCH   4  10
ATOM      9  O   UNL     1      37.443 -18.296 -21.603  0.00  0.00    -0.287 OA
ATOM     10  C   UNL     1      36.249 -18.624 -21.656  0.00  0.00    +0.196 C 
BRANCH  10  11
ATOM     11  C   UNL     1      35.771 -19.635 -20.664  0.00  0.00    +0.039 C 
ATOM     12  C   UNL     1      34.403 -19.860 -20.501  0.00  0.00    -0.001 C 
ATOM     13  C   UNL     1      33.957 -20.803 -19.576  0.00  0.00    -0.022 C 
ATOM     14  C   UNL     1      36.692 -20.354 -19.904  0.00  0.00    +0.003 C 
ATOM     15  C   UNL     1      34.879 -21.523 -18.815  0.00  0.00    -0.004 C 
ATOM     16  C   UNL     1      36.245 -21.299 -18.979  0.00  0.00    -0.000 C 
ATOM     17  C   UNL     1      32.496 -21.046 -19.403  0.00  0.00    +0.031 C 
ENDBRANCH  10  11
ENDBRANCH   4  10
BRANCH   1  18
ATOM     18  C   UNL     1      34.382 -13.948 -22.451  0.00  0.00    +0.115 C 
BRANCH  18  19
ATOM     19  C   UNL     1      33.786 -12.586 -22.577  0.00  0.00    -0.003 C 
ATOM     20  C   UNL     1      34.291 -11.690 -23.519  0.00  0.00    -0.003 C 
ATOM     21  C   UNL     1      32.727 -12.208 -21.752  0.00  0.00    -0.003 C 
ATOM     22  C   UNL     1      32.676 -10.038 -22.813  0.00  0.00    +0.031 C 
ATOM     23  C   UNL     1      33.736 -10.416 -23.637  0.00  0.00    +0.002 C 
ATOM     24  C   UNL     1      32.172 -10.934 -21.870  0.00  0.00    +0.002 C 
BRANCH  22  27
ATOM     25  N   UNL     1      32.770  -7.684 -23.600  0.00  0.00    -0.343 N 
ATOM     26  N   UNL     1      30.913  -8.456 -22.409  0.00  0.00    -0.285 NA
ATOM     27  C   UNL     1      32.098  -8.709 -22.936  0.00  0.00    +0.117 C 
ATOM     28  H   UNL     1      32.360  -6.792 -23.672  0.00  0.00    +0.144 HD
ATOM     29  H   UNL     1      33.656  -7.853 -23.997  0.00  0.00    +0.144 HD
ATOM     30  H   UNL     1      30.519  -7.558 -22.492  0.00  0.00    +0.188 HD
ENDBRANCH  22  27
ENDBRANCH  18  19
ENDBRANCH   1  18
TORSDOF 5
ENDMDL
MODEL 6
REMARK VINA RESULT:     -10.9      4.483     10.252
REMARK  Name = 17758361
REMARK  5 active torsions:
REMARK  status: ('A' for Active; 'I' for Inactive)
REMARK    1  A    between atoms: N_1  and  C_18
REMARK    2  A    between atoms: C_4  and  C_10
REMARK    3  A    between atoms: C_10  and  C_11
REMARK    4  A    between atoms: C_18  and  C_19
REMARK    5  A    between atoms: C_22  and  C_27
REMARK                            x       y       z     vdW  Elec       q    Type
REMARK                         _______ _______ _______ _____ _____    ______ ____
ROOT
ATOM      1  N   UNL     1      36.607 -20.616 -18.804  0.00  0.00    -0.314 N 
ATOM      2  N   UNL     1      37.677 -20.738 -16.711  0.00  0.00    -0.229 NA
ATOM      3  C   UNL     1      36.703 -21.175 -17.541  0.00  0.00    +0.129 C 
ATOM      4  C   UNL     1      35.870 -22.729 -15.946  0.00  0.00    +0.043 C 
ATOM      5  C   UNL     1      35.784 -22.158 -17.210  0.00  0.00    +0.037 C 
ATOM      6  C   UNL     1      36.859 -22.306 -15.063  0.00  0.00    +0.024 C 
ATOM      7  C   UNL     1      37.730 -21.317 -15.490  0.00  0.00    +0.100 C 
ATOM      8  H   UNL     1      37.252 -19.915 -19.052  0.00  0.00    +0.149 HD
ENDROOT
BRANCH   4  10
ATOM      9  O   UNL     1      35.331 -24.916 -15.313  0.00  0.00    -0.287 OA
ATOM     10  C   UNL     1      34.932 -23.766 -15.547  0.00  0.00    +0.196 C 
BRANCH  10  11
ATOM     11  C   UNL     1      33.467 -23.507 -15.400  0.00  0.00    +0.039 C 
ATOM     12  C   UNL     1      32.845 -23.693 -14.165  0.00  0.00    -0.001 C 
ATOM     13  C   UNL     1      31.479 -23.450 -14.029  0.00  0.00    -0.022 C 
ATOM     14  C   UNL     1      32.723 -23.077 -16.498  0.00  0.00    +0.003 C 
ATOM     15  C   UNL     1      30.734 -23.020 -15.127  0.00  0.00    -0.004 C 
ATOM     16  C   UNL     1      31.356 -22.833 -16.361  0.00  0.00    -0.000 C 
ATOM     17  C   UNL     1      30.814 -23.646 -12.708  0.00  0.00    +0.031 C 
ENDBRANCH  10  11
ENDBRANCH   4  10
BRANCH   1  18
ATOM     18  C   UNL     1      35.609 -21.003 -19.777  0.00  0.00    +0.115 C 
BRANCH  18  19
ATOM     19  C   UNL     1      35.418 -19.935 -20.800  0.00  0.00    -0.003 C 
ATOM     20  C   UNL     1      34.294 -19.955 -21.626  0.00  0.00    -0.003 C 
ATOM     21  C   UNL     1      36.363 -18.917 -20.932  0.00  0.00    -0.003 C 
ATOM     22  C   UNL     1      35.060 -17.940 -22.716  0.00  0.00    +0.031 C 
ATOM     23  C   UNL     1      34.116 -18.957 -22.584  0.00  0.00    +0.002 C 
ATOM     24  C   UNL     1      36.184 -17.920 -21.890  0.00  0.00    +0.002 C 
BRANCH  22  27
ATOM     25  N   UNL     1      35.306 -15.594 -23.494  0.00  0.00    -0.343 N 
ATOM     26  N   UNL     1      34.279 -17.187 -24.860  0.00  0.00    -0.285 NA
ATOM     27  C   UNL     1      34.873 -16.900 -23.716  0.00  0.00    +0.117 C 
ATOM     28  H   UNL     1      35.169 -14.905 -24.184  0.00  0.00    +0.144 HD
ATOM     29  H   UNL     1      35.748 -15.359 -22.646  0.00  0.00    +0.144 HD
ATOM     30  H   UNL     1      34.151 -16.485 -25.539  0.00  0.00    +0.188 HD
ENDBRANCH  22  27
ENDBRANCH  18  19
ENDBRANCH   1  18
TORSDOF 5
ENDMDL
MODEL 7
REMARK VINA RESULT:     -10.9      6.695     10.215
REMARK  Name = 17758361
REMARK  5 active torsions:
REMARK  status: ('A' for Active; 'I' for Inactive)
REMARK    1  A    between atoms: N_1  and  C_18
REMARK    2  A    between atoms: C_4  and  C_10
REMARK    3  A    between atoms: C_10  and  C_11
REMARK    4  A    between atoms: C_18  and  C_19
REMARK    5  A    between atoms: C_22  and  C_27
REMARK                            x       y       z     vdW  Elec       q    Type
REMARK                         _______ _______ _______ _____ _____    ______ ____
ROOT
ATOM      1  N   UNL     1      34.719 -23.211 -13.535  0.00  0.00    -0.314 N 
ATOM      2  N   UNL     1      32.447 -22.958 -14.098  0.00  0.00    -0.229 NA
ATOM      3  C   UNL     1      33.728 -23.115 -14.498  0.00  0.00    +0.129 C 
ATOM      4  C   UNL     1      33.140 -23.096 -16.802  0.00  0.00    +0.043 C 
ATOM      5  C   UNL     1      34.124 -23.190 -15.824  0.00  0.00    +0.037 C 
ATOM      6  C   UNL     1      31.810 -22.934 -16.429  0.00  0.00    +0.024 C 
ATOM      7  C   UNL     1      31.518 -22.871 -15.076  0.00  0.00    +0.100 C 
ATOM      8  H   UNL     1      34.453 -23.159 -12.588  0.00  0.00    +0.149 HD
ENDROOT
BRANCH   4  10
ATOM      9  O   UNL     1      33.562 -24.266 -18.783  0.00  0.00    -0.287 OA
ATOM     10  C   UNL     1      33.499 -23.169 -18.210  0.00  0.00    +0.196 C 
BRANCH  10  11
ATOM     11  C   UNL     1      33.804 -21.952 -19.022  0.00  0.00    +0.039 C 
ATOM     12  C   UNL     1      35.125 -21.532 -19.180  0.00  0.00    -0.001 C 
ATOM     13  C   UNL     1      35.410 -20.397 -19.939  0.00  0.00    -0.022 C 
ATOM     14  C   UNL     1      32.768 -21.238 -19.622  0.00  0.00    +0.003 C 
ATOM     15  C   UNL     1      34.373 -19.682 -20.540  0.00  0.00    -0.004 C 
ATOM     16  C   UNL     1      33.053 -20.103 -20.382  0.00  0.00    -0.000 C 
ATOM     17  C   UNL     1      36.822 -19.949 -20.111  0.00  0.00    +0.031 C 
ENDBRANCH  10  11
ENDBRANCH   4  10
BRANCH   1  18
ATOM     18  C   UNL     1      36.121 -23.382 -13.843  0.00  0.00    +0.115 C 
BRANCH  18  19
ATOM     19  C   UNL     1      36.583 -24.756 -13.487  0.00  0.00    -0.003 C 
ATOM     20  C   UNL     1      36.975 -25.042 -12.180  0.00  0.00    -0.003 C 
ATOM     21  C   UNL     1      36.622 -25.753 -14.462  0.00  0.00    -0.003 C 
ATOM     22  C   UNL     1      37.448 -27.322 -12.821  0.00  0.00    +0.031 C 
ATOM     23  C   UNL     1      37.408 -26.325 -11.847  0.00  0.00    +0.002 C 
ATOM     24  C   UNL     1      37.055 -27.036 -14.128  0.00  0.00    +0.002 C 
BRANCH  22  27
ATOM     25  N   UNL     1      38.875 -29.315 -13.222  0.00  0.00    -0.343 N 
ATOM     26  N   UNL     1      37.378 -29.279 -11.428  0.00  0.00    -0.285 NA
ATOM     27  C   UNL     1      37.899 -28.660 -12.473  0.00  0.00    +0.117 C 
ATOM     28  H   UNL     1      39.166 -30.220 -12.968  0.00  0.00    +0.144 HD
ATOM     29  H   UNL     1      39.274 -28.871 -14.006  0.00  0.00    +0.144 HD
ATOM     30  H   UNL     1      37.682 -30.184 -11.190  0.00  0.00    +0.188 HD
ENDBRANCH  22  27
ENDBRANCH  18  19
ENDBRANCH   1  18
TORSDOF 5
ENDMDL
MODEL 8
REMARK VINA RESULT:     -10.8      4.891     11.411
REMARK  Name = 17758361
REMARK  5 active torsions:
REMARK  status: ('A' for Active; 'I' for Inactive)
REMARK    1  A    between atoms: N_1  and  C_18
REMARK    2  A    between atoms: C_4  and  C_10
REMARK    3  A    between atoms: C_10  and  C_11
REMARK    4  A    between atoms: C_18  and  C_19
REMARK    5  A    between atoms: C_22  and  C_27
REMARK                            x       y       z     vdW  Elec       q    Type
REMARK                         _______ _______ _______ _____ _____    ______ ____
ROOT
ATOM      1  N   UNL     1      34.735 -21.572 -18.962  0.00  0.00    -0.314 N 
ATOM      2  N   UNL     1      33.451 -22.766 -17.392  0.00  0.00    -0.229 NA
ATOM      3  C   UNL     1      34.628 -22.193 -17.729  0.00  0.00    +0.129 C 
ATOM      4  C   UNL     1      35.653 -22.801 -15.672  0.00  0.00    +0.043 C 
ATOM      5  C   UNL     1      35.748 -22.183 -16.913  0.00  0.00    +0.037 C 
ATOM      6  C   UNL     1      34.459 -23.402 -15.289  0.00  0.00    +0.024 C 
ATOM      7  C   UNL     1      33.396 -23.357 -16.177  0.00  0.00    +0.100 C 
ATOM      8  H   UNL     1      33.948 -21.572 -19.552  0.00  0.00    +0.149 HD
ENDROOT
BRANCH   4  10
ATOM      9  O   UNL     1      37.774 -22.086 -14.990  0.00  0.00    -0.287 OA
ATOM     10  C   UNL     1      36.799 -22.820 -14.775  0.00  0.00    +0.196 C 
BRANCH  10  11
ATOM     11  C   UNL     1      36.860 -23.705 -13.573  0.00  0.00    +0.039 C 
ATOM     12  C   UNL     1      37.221 -25.046 -13.712  0.00  0.00    -0.001 C 
ATOM     13  C   UNL     1      37.278 -25.872 -12.590  0.00  0.00    -0.022 C 
ATOM     14  C   UNL     1      36.558 -23.191 -12.313  0.00  0.00    +0.003 C 
ATOM     15  C   UNL     1      36.976 -25.358 -11.328  0.00  0.00    -0.004 C 
ATOM     16  C   UNL     1      36.617 -24.018 -11.190  0.00  0.00    -0.000 C 
ATOM     17  C   UNL     1      37.667 -27.305 -12.737  0.00  0.00    +0.031 C 
ENDBRANCH  10  11
ENDBRANCH   4  10
BRANCH   1  18
ATOM     18  C   UNL     1      35.941 -20.925 -19.429  0.00  0.00    +0.115 C 
BRANCH  18  19
ATOM     19  C   UNL     1      35.641 -19.970 -20.536  0.00  0.00    -0.003 C 
ATOM     20  C   UNL     1      34.459 -20.099 -21.265  0.00  0.00    -0.003 C 
ATOM     21  C   UNL     1      36.542 -18.950 -20.841  0.00  0.00    -0.003 C 
ATOM     22  C   UNL     1      35.079 -18.188 -22.606  0.00  0.00    +0.031 C 
ATOM     23  C   UNL     1      34.178 -19.207 -22.300  0.00  0.00    +0.002 C 
ATOM     24  C   UNL     1      36.261 -18.059 -21.877  0.00  0.00    +0.002 C 
BRANCH  22  27
ATOM     25  N   UNL     1      35.406 -16.013 -23.760  0.00  0.00    -0.343 N 
ATOM     26  N   UNL     1      33.910 -17.590 -24.618  0.00  0.00    -0.285 NA
ATOM     27  C   UNL     1      34.785 -17.259 -23.685  0.00  0.00    +0.117 C 
ATOM     28  H   UNL     1      35.193 -15.400 -24.500  0.00  0.00    +0.144 HD
ATOM     29  H   UNL     1      36.059 -15.747 -23.073  0.00  0.00    +0.144 HD
ATOM     30  H   UNL     1      33.710 -16.963 -25.350  0.00  0.00    +0.188 HD
ENDBRANCH  22  27
ENDBRANCH  18  19
ENDBRANCH   1  18
TORSDOF 5
ENDMDL
MODEL 9
REMARK VINA RESULT:     -10.8      3.016      5.739
REMARK  Name = 17758361
REMARK  5 active torsions:
REMARK  status: ('A' for Active; 'I' for Inactive)
REMARK    1  A    between atoms: N_1  and  C_18
REMARK    2  A    between atoms: C_4  and  C_10
REMARK    3  A    between atoms: C_10  and  C_11
REMARK    4  A    between atoms: C_18  and  C_19
REMARK    5  A    between atoms: C_22  and  C_27
REMARK                            x       y       z     vdW  Elec       q    Type
REMARK                         _______ _______ _______ _____ _____    ______ ____
ROOT
ATOM      1  N   UNL     1      34.149 -12.667 -24.963  0.00  0.00    -0.314 N 
ATOM      2  N   UNL     1      35.037 -10.488 -24.910  0.00  0.00    -0.229 NA
ATOM      3  C   UNL     1      34.118 -11.375 -24.467  0.00  0.00    +0.129 C 
ATOM      4  C   UNL     1      33.095  -9.783 -23.027  0.00  0.00    +0.043 C 
ATOM      5  C   UNL     1      33.136 -11.077 -23.536  0.00  0.00    +0.037 C 
ATOM      6  C   UNL     1      34.023  -8.842 -23.459  0.00  0.00    +0.024 C 
ATOM      7  C   UNL     1      34.965  -9.241 -24.393  0.00  0.00    +0.100 C 
ATOM      8  H   UNL     1      34.841 -12.894 -25.626  0.00  0.00    +0.149 HD
ENDROOT
BRANCH   4  10
ATOM      9  O   UNL     1      31.177 -10.207 -21.756  0.00  0.00    -0.287 OA
ATOM     10  C   UNL     1      32.085  -9.415 -22.047  0.00  0.00    +0.196 C 
BRANCH  10  11
ATOM     11  C   UNL     1      32.088  -8.091 -21.353  0.00  0.00    +0.039 C 
ATOM     12  C   UNL     1      31.588  -6.962 -22.003  0.00  0.00    -0.001 C 
ATOM     13  C   UNL     1      31.590  -5.727 -21.355  0.00  0.00    -0.022 C 
ATOM     14  C   UNL     1      32.589  -7.986 -20.056  0.00  0.00    +0.003 C 
ATOM     15  C   UNL     1      32.091  -5.621 -20.057  0.00  0.00    -0.004 C 
ATOM     16  C   UNL     1      32.590  -6.750 -19.408  0.00  0.00    -0.000 C 
ATOM     17  C   UNL     1      31.054  -4.520 -22.048  0.00  0.00    +0.031 C 
ENDBRANCH  10  11
ENDBRANCH   4  10
BRANCH   1  18
ATOM     18  C   UNL     1      33.220 -13.701 -24.563  0.00  0.00    +0.115 C 
BRANCH  18  19
ATOM     19  C   UNL     1      33.919 -14.787 -23.815  0.00  0.00    -0.003 C 
ATOM     20  C   UNL     1      34.285 -14.590 -22.483  0.00  0.00    -0.003 C 
ATOM     21  C   UNL     1      34.207 -15.996 -24.447  0.00  0.00    -0.003 C 
ATOM     22  C   UNL     1      35.228 -16.813 -22.416  0.00  0.00    +0.031 C 
ATOM     23  C   UNL     1      34.940 -15.604 -21.784  0.00  0.00    +0.002 C 
ATOM     24  C   UNL     1      34.861 -17.010 -23.747  0.00  0.00    +0.002 C 
BRANCH  22  27
ATOM     25  N   UNL     1      37.149 -18.356 -22.100  0.00  0.00    -0.343 N 
ATOM     26  N   UNL     1      35.352 -18.390 -20.607  0.00  0.00    -0.285 NA
ATOM     27  C   UNL     1      35.910 -17.870 -21.685  0.00  0.00    +0.117 C 
ATOM     28  H   UNL     1      37.593 -19.071 -21.591  0.00  0.00    +0.144 HD
ATOM     29  H   UNL     1      37.579 -17.983 -22.904  0.00  0.00    +0.144 HD
ATOM     30  H   UNL     1      35.812 -19.105 -20.110  0.00  0.00    +0.188 HD
ENDBRANCH  22  27
ENDBRANCH  18  19
ENDBRANCH   1  18
TORSDOF 5
ENDMDL
