MODEL 1
REMARK VINA RESULT:     -11.0      0.000      0.000
REMARK  Name = 445481
REMARK  5 active torsions:
REMARK  status: ('A' for Active; 'I' for Inactive)
REMARK    1  A    between atoms: N_2  and  C_21
REMARK    2  A    between atoms: C_3  and  N_7
REMARK    3  A    between atoms: N_7  and  S_9
REMARK    4  A    between atoms: S_9  and  C_14
REMARK    5  A    between atoms: C_21  and  C_24
REMARK                            x       y       z     vdW  Elec       q    Type
REMARK                         _______ _______ _______ _____ _____    ______ ____
ROOT
ATOM      1  O   UNL     1      36.532 -20.695 -19.148  0.00  0.00    -0.273 OA
ATOM      2  N   UNL     1      35.258 -19.656 -20.831  0.00  0.00    -0.273 N 
ATOM      3  C   UNL     1      34.215 -21.305 -19.556  0.00  0.00    +0.153 C 
ATOM      4  C   UNL     1      33.158 -20.445 -20.242  0.00  0.00    +0.048 C 
ATOM      5  C   UNL     1      33.922 -19.772 -21.366  0.00  0.00    +0.096 C 
ATOM      6  C   UNL     1      35.494 -20.534 -19.773  0.00  0.00    +0.242 C 
ENDROOT
BRANCH   3   7
ATOM      7  N   UNL     1      33.952 -21.418 -18.117  0.00  0.00    -0.171 NA
ATOM      8  H   UNL     1      34.848 -21.328 -17.638  0.00  0.00    +0.149 HD
BRANCH   7   9
ATOM      9  S   UNL     1      33.210 -22.852 -17.542  0.00  0.00    +0.066 S 
ATOM     10  O   UNL     1      33.635 -23.971 -18.361  0.00  0.00    -0.152 OA
ATOM     11  O   UNL     1      31.805 -22.593 -17.292  0.00  0.00    -0.152 OA
BRANCH   9  14
ATOM     12  S   UNL     1      35.518 -22.783 -15.758  0.00  0.00    -0.066 S 
ATOM     13  N   UNL     1      34.008 -24.194 -12.462  0.00  0.00    -0.243 NA
ATOM     14  C   UNL     1      33.877 -23.173 -15.910  0.00  0.00    +0.153 C 
ATOM     15  C   UNL     1      33.316 -23.667 -14.783  0.00  0.00    +0.046 C 
ATOM     16  C   UNL     1      34.265 -23.740 -13.719  0.00  0.00    +0.089 C 
ATOM     17  C   UNL     1      35.524 -23.285 -14.114  0.00  0.00    +0.048 C 
ATOM     18  C   UNL     1      36.588 -23.282 -13.199  0.00  0.00    +0.010 C 
ATOM     19  C   UNL     1      36.331 -23.743 -11.914  0.00  0.00    +0.021 C 
ATOM     20  C   UNL     1      35.054 -24.176 -11.610  0.00  0.00    +0.099 C 
ENDBRANCH   9  14
ENDBRANCH   7   9
ENDBRANCH   3   7
BRANCH   2  21
ATOM     21  C   UNL     1      36.248 -18.797 -21.444  0.00  0.00    +0.135 C 
BRANCH  21  24
ATOM     22  N   UNL     1      35.247 -17.466 -23.283  0.00  0.00    -0.313 N 
ATOM     23  N   UNL     1      33.664 -14.426 -24.652  0.00  0.00    -0.241 NA
ATOM     24  C   UNL     1      35.604 -17.547 -21.977  0.00  0.00    +0.046 C 
ATOM     25  C   UNL     1      35.289 -16.391 -21.340  0.00  0.00    +0.013 C 
ATOM     26  C   UNL     1      34.698 -15.533 -22.310  0.00  0.00    +0.017 C 
ATOM     27  C   UNL     1      34.684 -16.234 -23.518  0.00  0.00    +0.068 C 
ATOM     28  C   UNL     1      34.174 -14.234 -22.281  0.00  0.00    +0.022 C 
ATOM     29  C   UNL     1      34.169 -15.682 -24.684  0.00  0.00    +0.113 C 
ATOM     30  C   UNL     1      33.677 -13.747 -23.483  0.00  0.00    +0.099 C 
ATOM     31  H   UNL     1      35.372 -18.175 -23.954  0.00  0.00    +0.152 HD
ENDBRANCH  21  24
ENDBRANCH   2  21
TORSDOF 5
ENDMDL
MODEL 2
REMARK VINA RESULT:     -10.4      2.603     10.510
REMARK  Name = 445481
REMARK  5 active torsions:
REMARK  status: ('A' for Active; 'I' for Inactive)
REMARK    1  A    between atoms: N_2  and  C_21
REMARK    2  A    between atoms: C_3  and  N_7
REMARK    3  A    between atoms: N_7  and  S_9
REMARK    4  A    between atoms: S_9  and  C_14
REMARK    5  A    between atoms: C_21  and  C_24
REMARK                            x       y       z     vdW  Elec       q    Type
REMARK                         _______ _______ _______ _____ _____    ______ ____
ROOT
ATOM      1  O   UNL     1      32.330 -20.523 -20.254  0.00  0.00    -0.273 OA
ATOM      2  N   UNL     1      33.680 -21.678 -18.711  0.00  0.00    -0.273 N 
ATOM      3  C   UNL     1      34.745 -20.639 -20.504  0.00  0.00    +0.153 C 
ATOM      4  C   UNL     1      35.759 -20.917 -19.400  0.00  0.00    +0.048 C 
ATOM      5  C   UNL     1      35.083 -21.979 -18.555  0.00  0.00    +0.096 C 
ATOM      6  C   UNL     1      33.416 -20.902 -19.840  0.00  0.00    +0.242 C 
ENDROOT
BRANCH   3   7
ATOM      7  N   UNL     1      34.806 -19.239 -20.937  0.00  0.00    -0.171 NA
ATOM      8  H   UNL     1      33.845 -18.905 -21.020  0.00  0.00    +0.149 HD
BRANCH   7   9
ATOM      9  S   UNL     1      35.595 -18.884 -22.417  0.00  0.00    +0.066 S 
ATOM     10  O   UNL     1      35.154 -19.822 -23.431  0.00  0.00    -0.152 OA
ATOM     11  O   UNL     1      37.005 -18.659 -22.161  0.00  0.00    -0.152 OA
BRANCH   9  14
ATOM     12  S   UNL     1      35.083 -16.086 -21.761  0.00  0.00    -0.066 S 
ATOM     13  N   UNL     1      33.644 -14.742 -25.116  0.00  0.00    -0.243 NA
ATOM     14  C   UNL     1      35.004 -17.281 -22.959  0.00  0.00    +0.153 C 
ATOM     15  C   UNL     1      34.508 -16.851 -24.142  0.00  0.00    +0.046 C 
ATOM     16  C   UNL     1      34.166 -15.466 -24.088  0.00  0.00    +0.089 C 
ATOM     17  C   UNL     1      34.429 -14.913 -22.834  0.00  0.00    +0.048 C 
ATOM     18  C   UNL     1      34.157 -13.559 -22.593  0.00  0.00    +0.010 C 
ATOM     19  C   UNL     1      33.624 -12.815 -23.638  0.00  0.00    +0.021 C 
ATOM     20  C   UNL     1      33.394 -13.444 -24.847  0.00  0.00    +0.099 C 
ENDBRANCH   9  14
ENDBRANCH   7   9
ENDBRANCH   3   7
BRANCH   2  21
ATOM     21  C   UNL     1      32.680 -22.249 -17.835  0.00  0.00    +0.135 C 
BRANCH  21  24
ATOM     22  N   UNL     1      32.531 -23.104 -15.512  0.00  0.00    -0.313 N 
ATOM     23  N   UNL     1      34.013 -24.262 -12.336  0.00  0.00    -0.241 NA
ATOM     24  C   UNL     1      33.309 -22.716 -16.551  0.00  0.00    +0.046 C 
ATOM     25  C   UNL     1      34.619 -22.829 -16.215  0.00  0.00    +0.013 C 
ATOM     26  C   UNL     1      34.661 -23.320 -14.880  0.00  0.00    +0.017 C 
ATOM     27  C   UNL     1      33.338 -23.484 -14.465  0.00  0.00    +0.068 C 
ATOM     28  C   UNL     1      35.690 -23.641 -13.985  0.00  0.00    +0.022 C 
ATOM     29  C   UNL     1      33.016 -23.952 -13.197  0.00  0.00    +0.113 C 
ATOM     30  C   UNL     1      35.295 -24.103 -12.736  0.00  0.00    +0.099 C 
ATOM     31  H   UNL     1      31.546 -23.113 -15.507  0.00  0.00    +0.152 HD
ENDBRANCH  21  24
ENDBRANCH   2  21
TORSDOF 5
ENDMDL
MODEL 3
REMARK VINA RESULT:     -10.3      2.257      2.872
REMARK  Name = 445481
REMARK  5 active torsions:
REMARK  status: ('A' for Active; 'I' for Inactive)
REMARK    1  A    between atoms: N_2  and  C_21
REMARK    2  A    between atoms: C_3  and  N_7
REMARK    3  A    between atoms: N_7  and  S_9
REMARK    4  A    between atoms: S_9  and  C_14
REMARK    5  A    between atoms: C_21  and  C_24
REMARK                            x       y       z     vdW  Elec       q    Type
REMARK                         _______ _______ _______ _____ _____    ______ ____
ROOT
ATOM      1  O   UNL     1      36.543 -19.588 -19.801  0.00  0.00    -0.273 OA
ATOM      2  N   UNL     1      35.291 -18.768 -21.617  0.00  0.00    -0.273 N 
ATOM      3  C   UNL     1      34.477 -20.651 -20.512  0.00  0.00    +0.153 C 
ATOM      4  C   UNL     1      33.353 -20.004 -21.314  0.00  0.00    +0.048 C 
ATOM      5  C   UNL     1      34.086 -19.138 -22.320  0.00  0.00    +0.096 C 
ATOM      6  C   UNL     1      35.579 -19.622 -20.552  0.00  0.00    +0.242 C 
ENDROOT
BRANCH   3   7
ATOM      7  N   UNL     1      34.071 -20.879 -19.121  0.00  0.00    -0.171 NA
ATOM      8  H   UNL     1      34.461 -20.118 -18.563  0.00  0.00    +0.149 HD
BRANCH   7   9
ATOM      9  S   UNL     1      34.537 -22.349 -18.373  0.00  0.00    +0.066 S 
ATOM     10  O   UNL     1      35.796 -22.154 -17.680  0.00  0.00    -0.152 OA
ATOM     11  O   UNL     1      34.355 -23.439 -19.313  0.00  0.00    -0.152 OA
BRANCH   9  14
ATOM     12  S   UNL     1      34.015 -23.297 -15.663  0.00  0.00    -0.066 S 
ATOM     13  N   UNL     1      30.146 -22.958 -15.441  0.00  0.00    -0.243 NA
ATOM     14  C   UNL     1      33.333 -22.693 -17.090  0.00  0.00    +0.153 C 
ATOM     15  C   UNL     1      31.988 -22.561 -17.052  0.00  0.00    +0.046 C 
ATOM     16  C   UNL     1      31.462 -22.972 -15.790  0.00  0.00    +0.089 C 
ATOM     17  C   UNL     1      32.467 -23.403 -14.923  0.00  0.00    +0.048 C 
ATOM     18  C   UNL     1      32.139 -23.846 -13.633  0.00  0.00    +0.010 C 
ATOM     19  C   UNL     1      30.798 -23.834 -13.272  0.00  0.00    +0.021 C 
ATOM     20  C   UNL     1      29.869 -23.390 -14.194  0.00  0.00    +0.099 C 
ENDBRANCH   9  14
ENDBRANCH   7   9
ENDBRANCH   3   7
BRANCH   2  21
ATOM     21  C   UNL     1      36.142 -17.695 -22.084  0.00  0.00    +0.135 C 
BRANCH  21  24
ATOM     22  N   UNL     1      34.869 -15.756 -21.205  0.00  0.00    -0.313 N 
ATOM     23  N   UNL     1      32.905 -12.658 -21.615  0.00  0.00    -0.241 NA
ATOM     24  C   UNL     1      35.344 -16.435 -22.278  0.00  0.00    +0.046 C 
ATOM     25  C   UNL     1      34.983 -15.802 -23.423  0.00  0.00    +0.013 C 
ATOM     26  C   UNL     1      34.234 -14.654 -23.040  0.00  0.00    +0.017 C 
ATOM     27  C   UNL     1      34.179 -14.650 -21.645  0.00  0.00    +0.068 C 
ATOM     28  C   UNL     1      33.599 -13.619 -23.739  0.00  0.00    +0.022 C 
ATOM     29  C   UNL     1      33.517 -13.656 -20.936  0.00  0.00    +0.113 C 
ATOM     30  C   UNL     1      32.957 -12.660 -22.966  0.00  0.00    +0.099 C 
ATOM     31  H   UNL     1      34.997 -16.014 -20.264  0.00  0.00    +0.152 HD
ENDBRANCH  21  24
ENDBRANCH   2  21
TORSDOF 5
ENDMDL
MODEL 4
REMARK VINA RESULT:     -10.3      3.129     10.486
REMARK  Name = 445481
REMARK  5 active torsions:
REMARK  status: ('A' for Active; 'I' for Inactive)
REMARK    1  A    between atoms: N_2  and  C_21
REMARK    2  A    between atoms: C_3  and  N_7
REMARK    3  A    between atoms: N_7  and  S_9
REMARK    4  A    between atoms: S_9  and  C_14
REMARK    5  A    between atoms: C_21  and  C_24
REMARK                            x       y       z     vdW  Elec       q    Type
REMARK                         _______ _______ _______ _____ _____    ______ ____
ROOT
ATOM      1  O   UNL     1      36.833 -22.436 -14.842  0.00  0.00    -0.273 OA
ATOM      2  N   UNL     1      35.388 -23.892 -13.690  0.00  0.00    -0.273 N 
ATOM      3  C   UNL     1      34.540 -22.794 -15.563  0.00  0.00    +0.153 C 
ATOM      4  C   UNL     1      33.665 -24.001 -15.240  0.00  0.00    +0.048 C 
ATOM      5  C   UNL     1      34.011 -24.314 -13.797  0.00  0.00    +0.096 C 
ATOM      6  C   UNL     1      35.756 -22.994 -14.693  0.00  0.00    +0.242 C 
ENDROOT
BRANCH   3   7
ATOM      7  N   UNL     1      34.944 -22.797 -16.974  0.00  0.00    -0.171 NA
ATOM      8  H   UNL     1      35.625 -22.047 -17.095  0.00  0.00    +0.149 HD
BRANCH   7   9
ATOM      9  S   UNL     1      33.728 -22.578 -18.162  0.00  0.00    +0.066 S 
ATOM     10  O   UNL     1      32.556 -21.990 -17.544  0.00  0.00    -0.152 OA
ATOM     11  O   UNL     1      33.632 -23.778 -18.971  0.00  0.00    -0.152 OA
BRANCH   9  14
ATOM     12  S   UNL     1      35.994 -21.044 -19.178  0.00  0.00    -0.066 S 
ATOM     13  N   UNL     1      34.308 -18.880 -21.936  0.00  0.00    -0.243 NA
ATOM     14  C   UNL     1      34.332 -21.342 -19.312  0.00  0.00    +0.153 C 
ATOM     15  C   UNL     1      33.710 -20.607 -20.262  0.00  0.00    +0.046 C 
ATOM     16  C   UNL     1      34.627 -19.743 -20.933  0.00  0.00    +0.089 C 
ATOM     17  C   UNL     1      35.925 -19.877 -20.438  0.00  0.00    +0.048 C 
ATOM     18  C   UNL     1      36.965 -19.105 -20.977  0.00  0.00    +0.010 C 
ATOM     19  C   UNL     1      36.645 -18.222 -22.001  0.00  0.00    +0.021 C 
ATOM     20  C   UNL     1      35.332 -18.154 -22.429  0.00  0.00    +0.099 C 
ENDBRANCH   9  14
ENDBRANCH   7   9
ENDBRANCH   3   7
BRANCH   2  21
ATOM     21  C   UNL     1      36.217 -24.287 -12.573  0.00  0.00    +0.135 C 
BRANCH  21  24
ATOM     22  N   UNL     1      38.413 -24.905 -13.546  0.00  0.00    -0.313 N 
ATOM     23  N   UNL     1      40.954 -27.353 -14.629  0.00  0.00    -0.241 NA
ATOM     24  C   UNL     1      37.236 -25.304 -13.006  0.00  0.00    +0.046 C 
ATOM     25  C   UNL     1      37.189 -26.660 -12.952  0.00  0.00    +0.013 C 
ATOM     26  C   UNL     1      38.416 -27.136 -13.493  0.00  0.00    +0.017 C 
ATOM     27  C   UNL     1      39.164 -26.015 -13.856  0.00  0.00    +0.068 C 
ATOM     28  C   UNL     1      38.965 -28.408 -13.709  0.00  0.00    +0.022 C 
ATOM     29  C   UNL     1      40.428 -26.123 -14.422  0.00  0.00    +0.113 C 
ATOM     30  C   UNL     1      40.231 -28.440 -14.278  0.00  0.00    +0.099 C 
ATOM     31  H   UNL     1      38.687 -23.971 -13.693  0.00  0.00    +0.152 HD
ENDBRANCH  21  24
ENDBRANCH   2  21
TORSDOF 5
ENDMDL
MODEL 5
REMARK VINA RESULT:     -10.2      3.774      6.562
REMARK  Name = 445481
REMARK  5 active torsions:
REMARK  status: ('A' for Active; 'I' for Inactive)
REMARK    1  A    between atoms: N_2  and  C_21
REMARK    2  A    between atoms: C_3  and  N_7
REMARK    3  A    between atoms: N_7  and  S_9
REMARK    4  A    between atoms: S_9  and  C_14
REMARK    5  A    between atoms: C_21  and  C_24
REMARK                            x       y       z     vdW  Elec       q    Type
REMARK                         _______ _______ _______ _____ _____    ______ ____
ROOT
ATOM      1  O   UNL     1      34.183 -14.249 -20.561  0.00  0.00    -0.273 OA
ATOM      2  N   UNL     1      33.343 -14.086 -22.752  0.00  0.00    -0.273 N 
ATOM      3  C   UNL     1      35.143 -15.523 -22.395  0.00  0.00    +0.153 C 
ATOM      4  C   UNL     1      34.453 -15.886 -23.705  0.00  0.00    +0.048 C 
ATOM      5  C   UNL     1      33.662 -14.638 -24.048  0.00  0.00    +0.096 C 
ATOM      6  C   UNL     1      34.182 -14.560 -21.743  0.00  0.00    +0.242 C 
ENDROOT
BRANCH   3   7
ATOM      7  N   UNL     1      35.306 -16.703 -21.539  0.00  0.00    -0.171 NA
ATOM      8  H   UNL     1      36.194 -16.601 -21.048  0.00  0.00    +0.149 HD
BRANCH   7   9
ATOM      9  S   UNL     1      35.313 -18.247 -22.285  0.00  0.00    +0.066 S 
ATOM     10  O   UNL     1      36.674 -18.600 -22.639  0.00  0.00    -0.152 OA
ATOM     11  O   UNL     1      34.241 -18.309 -23.259  0.00  0.00    -0.152 OA
BRANCH   9  14
ATOM     12  S   UNL     1      36.114 -20.059 -20.142  0.00  0.00    -0.066 S 
ATOM     13  N   UNL     1      32.689 -21.537 -19.039  0.00  0.00    -0.243 NA
ATOM     14  C   UNL     1      34.819 -19.437 -21.039  0.00  0.00    +0.153 C 
ATOM     15  C   UNL     1      33.610 -19.928 -20.684  0.00  0.00    +0.046 C 
ATOM     16  C   UNL     1      33.725 -20.870 -19.617  0.00  0.00    +0.089 C 
ATOM     17  C   UNL     1      35.051 -21.043 -19.217  0.00  0.00    +0.048 C 
ATOM     18  C   UNL     1      35.360 -21.933 -18.178  0.00  0.00    +0.010 C 
ATOM     19  C   UNL     1      34.306 -22.616 -17.583  0.00  0.00    +0.021 C 
ATOM     20  C   UNL     1      33.024 -22.384 -18.044  0.00  0.00    +0.099 C 
ENDBRANCH   9  14
ENDBRANCH   7   9
ENDBRANCH   3   7
BRANCH   2  21
ATOM     21  C   UNL     1      32.336 -13.060 -22.593  0.00  0.00    +0.135 C 
BRANCH  21  24
ATOM     22  N   UNL     1      32.404 -10.609 -22.219  0.00  0.00    -0.313 N 
ATOM     23  N   UNL     1      33.813  -7.241 -22.762  0.00  0.00    -0.241 NA
ATOM     24  C   UNL     1      32.929 -11.698 -22.830  0.00  0.00    +0.046 C 
ATOM     25  C   UNL     1      33.979 -11.330 -23.608  0.00  0.00    +0.013 C 
ATOM     26  C   UNL     1      34.117  -9.920 -23.474  0.00  0.00    +0.017 C 
ATOM     27  C   UNL     1      33.117  -9.495 -22.597  0.00  0.00    +0.068 C 
ATOM     28  C   UNL     1      34.992  -8.965 -24.009  0.00  0.00    +0.022 C 
ATOM     29  C   UNL     1      32.966  -8.161 -22.243  0.00  0.00    +0.113 C 
ATOM     30  C   UNL     1      34.782  -7.651 -23.611  0.00  0.00    +0.099 C 
ATOM     31  H   UNL     1      31.635 -10.613 -21.605  0.00  0.00    +0.152 HD
ENDBRANCH  21  24
ENDBRANCH   2  21
TORSDOF 5
ENDMDL
MODEL 6
REMARK VINA RESULT:     -10.1      3.657     10.365
REMARK  Name = 445481
REMARK  5 active torsions:
REMARK  status: ('A' for Active; 'I' for Inactive)
REMARK    1  A    between atoms: N_2  and  C_21
REMARK    2  A    between atoms: C_3  and  N_7
REMARK    3  A    between atoms: N_7  and  S_9
REMARK    4  A    between atoms: S_9  and  C_14
REMARK    5  A    between atoms: C_21  and  C_24
REMARK                            x       y       z     vdW  Elec       q    Type
REMARK                         _______ _______ _______ _____ _____    ______ ____
ROOT
ATOM      1  O   UNL     1      34.838 -25.217 -14.917  0.00  0.00    -0.273 OA
ATOM      2  N   UNL     1      36.725 -23.977 -14.255  0.00  0.00    -0.273 N 
ATOM      3  C   UNL     1      35.457 -23.144 -16.024  0.00  0.00    +0.153 C 
ATOM      4  C   UNL     1      36.317 -22.027 -15.443  0.00  0.00    +0.048 C 
ATOM      5  C   UNL     1      37.395 -22.770 -14.679  0.00  0.00    +0.096 C 
ATOM      6  C   UNL     1      35.586 -24.254 -15.011  0.00  0.00    +0.242 C 
ENDROOT
BRANCH   3   7
ATOM      7  N   UNL     1      34.052 -22.733 -16.122  0.00  0.00    -0.171 NA
ATOM      8  H   UNL     1      33.517 -23.333 -15.493  0.00  0.00    +0.149 HD
BRANCH   7   9
ATOM      9  S   UNL     1      33.294 -22.802 -17.658  0.00  0.00    +0.066 S 
ATOM     10  O   UNL     1      31.942 -22.291 -17.547  0.00  0.00    -0.152 OA
ATOM     11  O   UNL     1      33.565 -24.091 -18.264  0.00  0.00    -0.152 OA
BRANCH   9  14
ATOM     12  S   UNL     1      33.143 -20.844 -19.818  0.00  0.00    -0.066 S 
ATOM     13  N   UNL     1      36.865 -19.766 -20.166  0.00  0.00    -0.243 NA
ATOM     14  C   UNL     1      34.157 -21.646 -18.723  0.00  0.00    +0.153 C 
ATOM     15  C   UNL     1      35.460 -21.297 -18.813  0.00  0.00    +0.046 C 
ATOM     16  C   UNL     1      35.666 -20.318 -19.832  0.00  0.00    +0.089 C 
ATOM     17  C   UNL     1      34.474 -19.974 -20.471  0.00  0.00    +0.048 C 
ATOM     18  C   UNL     1      34.479 -19.023 -21.502  0.00  0.00    +0.010 C 
ATOM     19  C   UNL     1      35.700 -18.457 -21.847  0.00  0.00    +0.021 C 
ATOM     20  C   UNL     1      36.832 -18.857 -21.161  0.00  0.00    +0.099 C 
ENDBRANCH   9  14
ENDBRANCH   7   9
ENDBRANCH   3   7
BRANCH   2  21
ATOM     21  C   UNL     1      37.285 -24.837 -13.236  0.00  0.00    +0.135 C 
BRANCH  21  24
ATOM     22  N   UNL     1      37.716 -26.648 -14.875  0.00  0.00    -0.313 N 
ATOM     23  N   UNL     1      39.848 -29.225 -16.437  0.00  0.00    -0.241 NA
ATOM     24  C   UNL     1      38.173 -25.880 -13.856  0.00  0.00    +0.046 C 
ATOM     25  C   UNL     1      39.453 -26.222 -13.557  0.00  0.00    +0.013 C 
ATOM     26  C   UNL     1      39.817 -27.271 -14.447  0.00  0.00    +0.017 C 
ATOM     27  C   UNL     1      38.710 -27.517 -15.262  0.00  0.00    +0.068 C 
ATOM     28  C   UNL     1      40.977 -28.033 -14.642  0.00  0.00    +0.022 C 
ATOM     29  C   UNL     1      38.726 -28.491 -16.252  0.00  0.00    +0.113 C 
ATOM     30  C   UNL     1      40.921 -28.988 -15.649  0.00  0.00    +0.099 C 
ATOM     31  H   UNL     1      36.818 -26.594 -15.273  0.00  0.00    +0.152 HD
ENDBRANCH  21  24
ENDBRANCH   2  21
TORSDOF 5
ENDMDL
MODEL 7
REMARK VINA RESULT:     -10.1      2.013      2.656
REMARK  Name = 445481
REMARK  5 active torsions:
REMARK  status: ('A' for Active; 'I' for Inactive)
REMARK    1  A    between atoms: N_2  and  C_21
REMARK    2  A    between atoms: C_3  and  N_7
REMARK    3  A    between atoms: N_7  and  S_9
REMARK    4  A    between atoms: S_9  and  C_14
REMARK    5  A    between atoms: C_21  and  C_24
REMARK                            x       y       z     vdW  Elec       q    Type
REMARK                         _______ _______ _______ _____ _____    ______ ____
ROOT
ATOM      1  O   UNL     1      32.827 -19.726 -21.808  0.00  0.00    -0.273 OA
ATOM      2  N   UNL     1      35.157 -19.402 -21.788  0.00  0.00    -0.273 N 
ATOM      3  C   UNL     1      34.166 -20.205 -19.838  0.00  0.00    +0.153 C 
ATOM      4  C   UNL     1      35.662 -20.497 -19.807  0.00  0.00    +0.048 C 
ATOM      5  C   UNL     1      36.233 -19.539 -20.834  0.00  0.00    +0.096 C 
ATOM      6  C   UNL     1      33.919 -19.769 -21.261  0.00  0.00    +0.242 C 
ENDROOT
BRANCH   3   7
ATOM      7  N   UNL     1      33.385 -21.415 -19.555  0.00  0.00    -0.171 NA
ATOM      8  H   UNL     1      32.546 -21.123 -19.053  0.00  0.00    +0.149 HD
BRANCH   7   9
ATOM      9  S   UNL     1      34.124 -22.656 -18.632  0.00  0.00    +0.066 S 
ATOM     10  O   UNL     1      35.420 -22.199 -18.168  0.00  0.00    -0.152 OA
ATOM     11  O   UNL     1      33.976 -23.919 -19.329  0.00  0.00    -0.152 OA
BRANCH   9  14
ATOM     12  S   UNL     1      34.034 -23.346 -15.797  0.00  0.00    -0.066 S 
ATOM     13  N   UNL     1      30.243 -22.963 -15.014  0.00  0.00    -0.243 NA
ATOM     14  C   UNL     1      33.135 -22.872 -17.153  0.00  0.00    +0.153 C 
ATOM     15  C   UNL     1      31.811 -22.728 -16.919  0.00  0.00    +0.046 C 
ATOM     16  C   UNL     1      31.489 -23.018 -15.559  0.00  0.00    +0.089 C 
ATOM     17  C   UNL     1      32.619 -23.374 -14.822  0.00  0.00    +0.048 C 
ATOM     18  C   UNL     1      32.498 -23.693 -13.461  0.00  0.00    +0.010 C 
ATOM     19  C   UNL     1      31.228 -23.639 -12.900  0.00  0.00    +0.021 C 
ATOM     20  C   UNL     1      30.164 -23.277 -13.705  0.00  0.00    +0.099 C 
ENDBRANCH   9  14
ENDBRANCH   7   9
ENDBRANCH   3   7
BRANCH   2  21
ATOM     21  C   UNL     1      35.372 -18.822 -23.095  0.00  0.00    +0.135 C 
BRANCH  21  24
ATOM     22  N   UNL     1      34.423 -16.807 -24.187  0.00  0.00    -0.313 N 
ATOM     23  N   UNL     1      33.481 -13.239 -24.246  0.00  0.00    -0.241 NA
ATOM     24  C   UNL     1      34.998 -17.365 -23.094  0.00  0.00    +0.046 C 
ATOM     25  C   UNL     1      35.142 -16.431 -22.120  0.00  0.00    +0.013 C 
ATOM     26  C   UNL     1      34.623 -15.211 -22.639  0.00  0.00    +0.017 C 
ATOM     27  C   UNL     1      34.180 -15.477 -23.936  0.00  0.00    +0.068 C 
ATOM     28  C   UNL     1      34.487 -13.911 -22.136  0.00  0.00    +0.022 C 
ATOM     29  C   UNL     1      33.611 -14.494 -24.736  0.00  0.00    +0.113 C 
ATOM     30  C   UNL     1      33.910 -12.980 -22.991  0.00  0.00    +0.099 C 
ATOM     31  H   UNL     1      34.214 -17.278 -25.026  0.00  0.00    +0.152 HD
ENDBRANCH  21  24
ENDBRANCH   2  21
TORSDOF 5
ENDMDL
MODEL 8
REMARK VINA RESULT:     -10.1      3.670      6.407
REMARK  Name = 445481
REMARK  5 active torsions:
REMARK  status: ('A' for Active; 'I' for Inactive)
REMARK    1  A    between atoms: N_2  and  C_21
REMARK    2  A    between atoms: C_3  and  N_7
REMARK    3  A    between atoms: N_7  and  S_9
REMARK    4  A    between atoms: S_9  and  C_14
REMARK    5  A    between atoms: C_21  and  C_24
REMARK                            x       y       z     vdW  Elec       q    Type
REMARK                         _______ _______ _______ _____ _____    ______ ____
ROOT
ATOM      1  O   UNL     1      35.155 -24.449 -15.674  0.00  0.00    -0.273 OA
ATOM      2  N   UNL     1      33.008 -23.500 -15.833  0.00  0.00    -0.273 N 
ATOM      3  C   UNL     1      33.959 -23.659 -13.712  0.00  0.00    +0.153 C 
ATOM      4  C   UNL     1      32.830 -22.635 -13.689  0.00  0.00    +0.048 C 
ATOM      5  C   UNL     1      32.018 -22.974 -14.924  0.00  0.00    +0.096 C 
ATOM      6  C   UNL     1      34.166 -23.927 -15.182  0.00  0.00    +0.242 C 
ENDROOT
BRANCH   3   7
ATOM      7  N   UNL     1      35.190 -23.101 -13.140  0.00  0.00    -0.171 NA
ATOM      8  H   UNL     1      35.873 -23.038 -13.895  0.00  0.00    +0.149 HD
BRANCH   7   9
ATOM      9  S   UNL     1      35.936 -23.947 -11.849  0.00  0.00    +0.066 S 
ATOM     10  O   UNL     1      34.941 -24.750 -11.165  0.00  0.00    -0.152 OA
ATOM     11  O   UNL     1      36.800 -23.038 -11.121  0.00  0.00    -0.152 OA
BRANCH   9  14
ATOM     12  S   UNL     1      38.210 -24.410 -13.619  0.00  0.00    -0.066 S 
ATOM     13  N   UNL     1      38.660 -28.263 -13.332  0.00  0.00    -0.243 NA
ATOM     14  C   UNL     1      37.078 -25.120 -12.578  0.00  0.00    +0.153 C 
ATOM     15  C   UNL     1      37.204 -26.461 -12.452  0.00  0.00    +0.046 C 
ATOM     16  C   UNL     1      38.282 -26.959 -13.245  0.00  0.00    +0.089 C 
ATOM     17  C   UNL     1      38.927 -25.938 -13.944  0.00  0.00    +0.048 C 
ATOM     18  C   UNL     1      40.015 -26.237 -14.777  0.00  0.00    +0.010 C 
ATOM     19  C   UNL     1      40.406 -27.567 -14.870  0.00  0.00    +0.021 C 
ATOM     20  C   UNL     1      39.709 -28.513 -14.142  0.00  0.00    +0.099 C 
ENDBRANCH   9  14
ENDBRANCH   7   9
ENDBRANCH   3   7
BRANCH   2  21
ATOM     21  C   UNL     1      32.731 -23.665 -17.243  0.00  0.00    +0.135 C 
BRANCH  21  24
ATOM     22  N   UNL     1      34.799 -22.482 -17.932  0.00  0.00    -0.313 N 
ATOM     23  N   UNL     1      36.638 -19.944 -19.881  0.00  0.00    -0.241 NA
ATOM     24  C   UNL     1      33.457 -22.623 -18.049  0.00  0.00    +0.046 C 
ATOM     25  C   UNL     1      32.974 -21.724 -18.944  0.00  0.00    +0.013 C 
ATOM     26  C   UNL     1      34.088 -20.974 -19.416  0.00  0.00    +0.017 C 
ATOM     27  C   UNL     1      35.218 -21.471 -18.765  0.00  0.00    +0.068 C 
ATOM     28  C   UNL     1      34.247 -19.925 -20.331  0.00  0.00    +0.022 C 
ATOM     29  C   UNL     1      36.488 -20.957 -18.996  0.00  0.00    +0.113 C 
ATOM     30  C   UNL     1      35.544 -19.461 -20.512  0.00  0.00    +0.099 C 
ATOM     31  H   UNL     1      35.381 -23.016 -17.344  0.00  0.00    +0.152 HD
ENDBRANCH  21  24
ENDBRANCH   2  21
TORSDOF 5
ENDMDL
MODEL 9
REMARK VINA RESULT:     -10.0      2.710     10.369
REMARK  Name = 445481
REMARK  5 active torsions:
REMARK  status: ('A' for Active; 'I' for Inactive)
REMARK    1  A    between atoms: N_2  and  C_21
REMARK    2  A    between atoms: C_3  and  N_7
REMARK    3  A    between atoms: N_7  and  S_9
REMARK    4  A    between atoms: S_9  and  C_14
REMARK    5  A    between atoms: C_21  and  C_24
REMARK                            x       y       z     vdW  Elec       q    Type
REMARK                         _______ _______ _______ _____ _____    ______ ____
ROOT
ATOM      1  O   UNL     1      32.419 -20.561 -19.890  0.00  0.00    -0.273 OA
ATOM      2  N   UNL     1      33.913 -21.815 -18.573  0.00  0.00    -0.273 N 
ATOM      3  C   UNL     1      34.802 -20.616 -20.363  0.00  0.00    +0.153 C 
ATOM      4  C   UNL     1      35.914 -20.965 -19.379  0.00  0.00    +0.048 C 
ATOM      5  C   UNL     1      35.327 -22.104 -18.569  0.00  0.00    +0.096 C 
ATOM      6  C   UNL     1      33.541 -20.954 -19.607  0.00  0.00    +0.242 C 
ENDROOT
BRANCH   3   7
ATOM      7  N   UNL     1      34.810 -19.184 -20.683  0.00  0.00    -0.171 NA
ATOM      8  H   UNL     1      33.837 -18.889 -20.772  0.00  0.00    +0.149 HD
BRANCH   7   9
ATOM      9  S   UNL     1      35.628 -18.678 -22.101  0.00  0.00    +0.066 S 
ATOM     10  O   UNL     1      35.187 -19.486 -23.221  0.00  0.00    -0.152 OA
ATOM     11  O   UNL     1      37.037 -18.509 -21.802  0.00  0.00    -0.152 OA
BRANCH   9  14
ATOM     12  S   UNL     1      34.511 -16.814 -24.050  0.00  0.00    -0.066 S 
ATOM     13  N   UNL     1      34.311 -13.530 -21.975  0.00  0.00    -0.243 NA
ATOM     14  C   UNL     1      35.072 -17.013 -22.465  0.00  0.00    +0.153 C 
ATOM     15  C   UNL     1      35.018 -15.891 -21.711  0.00  0.00    +0.046 C 
ATOM     16  C   UNL     1      34.490 -14.792 -22.453  0.00  0.00    +0.089 C 
ATOM     17  C   UNL     1      34.167 -15.155 -23.761  0.00  0.00    +0.048 C 
ATOM     18  C   UNL     1      33.632 -14.204 -24.642  0.00  0.00    +0.010 C 
ATOM     19  C   UNL     1      33.448 -12.914 -24.160  0.00  0.00    +0.021 C 
ATOM     20  C   UNL     1      33.796 -12.642 -22.850  0.00  0.00    +0.099 C 
ENDBRANCH   9  14
ENDBRANCH   7   9
ENDBRANCH   3   7
BRANCH   2  21
ATOM     21  C   UNL     1      33.002 -22.472 -17.662  0.00  0.00    +0.135 C 
BRANCH  21  24
ATOM     22  N   UNL     1      35.022 -22.557 -16.225  0.00  0.00    -0.313 N 
ATOM     23  N   UNL     1      36.800 -23.409 -13.105  0.00  0.00    -0.241 NA
ATOM     24  C   UNL     1      33.703 -22.829 -16.380  0.00  0.00    +0.046 C 
ATOM     25  C   UNL     1      33.218 -23.423 -15.260  0.00  0.00    +0.013 C 
ATOM     26  C   UNL     1      34.305 -23.527 -14.347  0.00  0.00    +0.017 C 
ATOM     27  C   UNL     1      35.422 -22.977 -14.978  0.00  0.00    +0.068 C 
ATOM     28  C   UNL     1      34.450 -24.034 -13.048  0.00  0.00    +0.022 C 
ATOM     29  C   UNL     1      36.664 -22.918 -14.359  0.00  0.00    +0.113 C 
ATOM     30  C   UNL     1      35.719 -23.943 -12.492  0.00  0.00    +0.099 C 
ATOM     31  H   UNL     1      35.600 -22.129 -16.897  0.00  0.00    +0.152 HD
ENDBRANCH  21  24
ENDBRANCH   2  21
TORSDOF 5
ENDMDL
