MODEL 1
REMARK VINA RESULT:     -11.6      0.000      0.000
REMARK  Name = 5287739
REMARK  3 active torsions:
REMARK  status: ('A' for Active; 'I' for Inactive)
REMARK    1  A    between atoms: C_2  and  O_21
REMARK    2  A    between atoms: C_3  and  O_23
REMARK    3  A    between atoms: C_4  and  O_25
REMARK                            x       y       z     vdW  Elec       q    Type
REMARK                         _______ _______ _______ _____ _____    ______ ____
ROOT
ATOM      1  C   UNL     1      35.646 -23.785 -13.005  0.00  0.00    -0.021 C 
ATOM      2  C   UNL     1      37.244 -24.843 -10.802  0.00  0.00    +0.168 C 
ATOM      3  C   UNL     1      37.910 -23.892 -11.799  0.00  0.00    +0.162 C 
ATOM      4  C   UNL     1      35.815 -24.386 -10.522  0.00  0.00    +0.144 C 
ATOM      5  C   UNL     1      34.969 -24.400 -11.794  0.00  0.00    +0.058 C 
ATOM      6  C   UNL     1      37.039 -23.562 -12.994  0.00  0.00    +0.003 C 
ATOM      7  C   UNL     1      34.886 -23.476 -14.174  0.00  0.00    -0.004 C 
ATOM      8  C   UNL     1      35.540 -22.904 -15.297  0.00  0.00    -0.000 C 
ATOM      9  C   UNL     1      36.929 -22.658 -15.260  0.00  0.00    -0.000 C 
ATOM     10  C   UNL     1      37.658 -22.991 -14.116  0.00  0.00    -0.002 C 
ATOM     11  C   UNL     1      34.811 -22.574 -16.474  0.00  0.00    -0.000 C 
ATOM     12  C   UNL     1      33.499 -23.712 -14.286  0.00  0.00    -0.000 C 
ATOM     13  C   UNL     1      33.422 -22.820 -16.542  0.00  0.00    -0.000 C 
ATOM     14  C   UNL     1      35.470 -21.999 -17.587  0.00  0.00    -0.000 C 
ATOM     15  C   UNL     1      37.567 -22.089 -16.371  0.00  0.00    -0.000 C 
ATOM     16  C   UNL     1      32.782 -23.392 -15.441  0.00  0.00    -0.000 C 
ATOM     17  C   UNL     1      36.847 -21.762 -17.519  0.00  0.00    -0.000 C 
ATOM     18  C   UNL     1      32.713 -22.490 -17.705  0.00  0.00    -0.000 C 
ATOM     19  C   UNL     1      34.737 -21.679 -18.739  0.00  0.00    -0.000 C 
ATOM     20  C   UNL     1      33.367 -21.923 -18.796  0.00  0.00    +0.000 C 
ENDROOT
BRANCH   2  21
ATOM     21  O   UNL     1      37.230 -26.167 -11.336  0.00  0.00    -0.379 OA
ATOM     22  H   UNL     1      36.441 -26.284 -11.888  0.00  0.00    +0.211 HD
ENDBRANCH   2  21
BRANCH   3  23
ATOM     23  O   UNL     1      38.225 -22.664 -11.145  0.00  0.00    -0.377 OA
ATOM     24  H   UNL     1      37.430 -22.109 -11.101  0.00  0.00    +0.211 HD
ENDBRANCH   3  23
BRANCH   4  25
ATOM     25  O   UNL     1      35.206 -25.245  -9.561  0.00  0.00    -0.382 OA
ATOM     26  H   UNL     1      34.302 -25.455  -9.842  0.00  0.00    +0.210 HD
ENDBRANCH   4  25
TORSDOF 3
ENDMDL
MODEL 2
REMARK VINA RESULT:     -10.7      3.081      5.014
REMARK  Name = 5287739
REMARK  3 active torsions:
REMARK  status: ('A' for Active; 'I' for Inactive)
REMARK    1  A    between atoms: C_2  and  O_21
REMARK    2  A    between atoms: C_3  and  O_23
REMARK    3  A    between atoms: C_4  and  O_25
REMARK                            x       y       z     vdW  Elec       q    Type
REMARK                         _______ _______ _______ _____ _____    ______ ____
ROOT
ATOM      1  C   UNL     1      31.646 -23.503 -15.330  0.00  0.00    -0.021 C 
ATOM      2  C   UNL     1      29.771 -24.993 -13.659  0.00  0.00    +0.168 C 
ATOM      3  C   UNL     1      31.124 -24.594 -13.065  0.00  0.00    +0.162 C 
ATOM      4  C   UNL     1      29.237 -23.867 -14.540  0.00  0.00    +0.144 C 
ATOM      5  C   UNL     1      30.178 -23.585 -15.710  0.00  0.00    +0.058 C 
ATOM      6  C   UNL     1      32.076 -23.994 -14.080  0.00  0.00    +0.003 C 
ATOM      7  C   UNL     1      32.599 -22.974 -16.253  0.00  0.00    -0.004 C 
ATOM      8  C   UNL     1      33.966 -22.909 -15.879  0.00  0.00    -0.000 C 
ATOM      9  C   UNL     1      34.379 -23.377 -14.612  0.00  0.00    -0.000 C 
ATOM     10  C   UNL     1      33.434 -23.914 -13.734  0.00  0.00    -0.002 C 
ATOM     11  C   UNL     1      34.941 -22.379 -16.769  0.00  0.00    -0.000 C 
ATOM     12  C   UNL     1      32.259 -22.506 -17.541  0.00  0.00    -0.000 C 
ATOM     13  C   UNL     1      34.558 -21.914 -18.047  0.00  0.00    -0.000 C 
ATOM     14  C   UNL     1      36.302 -22.313 -16.386  0.00  0.00    -0.000 C 
ATOM     15  C   UNL     1      35.730 -23.306 -14.248  0.00  0.00    -0.000 C 
ATOM     16  C   UNL     1      33.215 -21.987 -18.418  0.00  0.00    -0.000 C 
ATOM     17  C   UNL     1      36.680 -22.779 -15.122  0.00  0.00    -0.000 C 
ATOM     18  C   UNL     1      35.526 -21.392 -18.917  0.00  0.00    -0.000 C 
ATOM     19  C   UNL     1      37.250 -21.786 -17.276  0.00  0.00    -0.000 C 
ATOM     20  C   UNL     1      36.862 -21.328 -18.533  0.00  0.00    +0.000 C 
ENDROOT
BRANCH   2  21
ATOM     21  O   UNL     1      29.917 -26.182 -14.435  0.00  0.00    -0.379 OA
ATOM     22  H   UNL     1      29.111 -26.715 -14.363  0.00  0.00    +0.211 HD
ENDBRANCH   2  21
BRANCH   3  23
ATOM     23  O   UNL     1      30.925 -23.623 -12.039  0.00  0.00    -0.377 OA
ATOM     24  H   UNL     1      30.032 -23.721 -11.671  0.00  0.00    +0.211 HD
ENDBRANCH   3  23
BRANCH   4  25
ATOM     25  O   UNL     1      27.958 -24.216 -15.060  0.00  0.00    -0.382 OA
ATOM     26  H   UNL     1      27.673 -23.544 -15.698  0.00  0.00    +0.210 HD
ENDBRANCH   4  25
TORSDOF 3
ENDMDL
MODEL 3
REMARK VINA RESULT:     -10.7      0.950      3.174
REMARK  Name = 5287739
REMARK  3 active torsions:
REMARK  status: ('A' for Active; 'I' for Inactive)
REMARK    1  A    between atoms: C_2  and  O_21
REMARK    2  A    between atoms: C_3  and  O_23
REMARK    3  A    between atoms: C_4  and  O_25
REMARK                            x       y       z     vdW  Elec       q    Type
REMARK                         _______ _______ _______ _____ _____    ______ ____
ROOT
ATOM      1  C   UNL     1      36.544 -23.183 -13.787  0.00  0.00    -0.021 C 
ATOM      2  C   UNL     1      36.940 -23.674 -10.936  0.00  0.00    +0.168 C 
ATOM      3  C   UNL     1      35.629 -24.128 -11.581  0.00  0.00    +0.162 C 
ATOM      4  C   UNL     1      38.104 -23.918 -11.893  0.00  0.00    +0.144 C 
ATOM      5  C   UNL     1      37.936 -23.118 -13.184  0.00  0.00    +0.058 C 
ATOM      6  C   UNL     1      35.463 -23.653 -13.011  0.00  0.00    +0.003 C 
ATOM      7  C   UNL     1      36.315 -22.725 -15.120  0.00  0.00    -0.004 C 
ATOM      8  C   UNL     1      35.006 -22.792 -15.663  0.00  0.00    -0.000 C 
ATOM      9  C   UNL     1      33.940 -23.293 -14.886  0.00  0.00    -0.000 C 
ATOM     10  C   UNL     1      34.180 -23.713 -13.575  0.00  0.00    -0.002 C 
ATOM     11  C   UNL     1      34.744 -22.354 -16.992  0.00  0.00    -0.000 C 
ATOM     12  C   UNL     1      37.330 -22.196 -15.946  0.00  0.00    -0.000 C 
ATOM     13  C   UNL     1      35.790 -21.838 -17.788  0.00  0.00    -0.000 C 
ATOM     14  C   UNL     1      33.436 -22.429 -17.527  0.00  0.00    -0.000 C 
ATOM     15  C   UNL     1      32.650 -23.361 -15.430  0.00  0.00    -0.000 C 
ATOM     16  C   UNL     1      37.076 -21.763 -17.250  0.00  0.00    -0.000 C 
ATOM     17  C   UNL     1      32.401 -22.936 -16.734  0.00  0.00    -0.000 C 
ATOM     18  C   UNL     1      35.523 -21.410 -19.096  0.00  0.00    -0.000 C 
ATOM     19  C   UNL     1      33.196 -21.994 -18.839  0.00  0.00    -0.000 C 
ATOM     20  C   UNL     1      34.234 -21.489 -19.617  0.00  0.00    +0.000 C 
ENDROOT
BRANCH   2  21
ATOM     21  O   UNL     1      36.864 -22.285 -10.615  0.00  0.00    -0.379 OA
ATOM     22  H   UNL     1      36.458 -22.178  -9.742  0.00  0.00    +0.211 HD
ENDBRANCH   2  21
BRANCH   3  23
ATOM     23  O   UNL     1      35.574 -25.553 -11.594  0.00  0.00    -0.377 OA
ATOM     24  H   UNL     1      36.225 -25.896 -12.227  0.00  0.00    +0.211 HD
ENDBRANCH   3  23
BRANCH   4  25
ATOM     25  O   UNL     1      39.332 -23.537 -11.280  0.00  0.00    -0.382 OA
ATOM     26  H   UNL     1      39.166 -22.832 -10.634  0.00  0.00    +0.210 HD
ENDBRANCH   4  25
TORSDOF 3
ENDMDL
MODEL 4
REMARK VINA RESULT:     -10.2      1.585      3.854
REMARK  Name = 5287739
REMARK  3 active torsions:
REMARK  status: ('A' for Active; 'I' for Inactive)
REMARK    1  A    between atoms: C_2  and  O_21
REMARK    2  A    between atoms: C_3  and  O_23
REMARK    3  A    between atoms: C_4  and  O_25
REMARK                            x       y       z     vdW  Elec       q    Type
REMARK                         _______ _______ _______ _____ _____    ______ ____
ROOT
ATOM      1  C   UNL     1      36.331 -23.196 -15.546  0.00  0.00    -0.021 C 
ATOM      2  C   UNL     1      36.786 -24.344 -12.900  0.00  0.00    +0.168 C 
ATOM      3  C   UNL     1      35.420 -24.545 -13.560  0.00  0.00    +0.162 C 
ATOM      4  C   UNL     1      37.891 -24.449 -13.947  0.00  0.00    +0.144 C 
ATOM      5  C   UNL     1      37.743 -23.369 -15.018  0.00  0.00    +0.058 C 
ATOM      6  C   UNL     1      35.243 -23.750 -14.838  0.00  0.00    +0.003 C 
ATOM      7  C   UNL     1      36.093 -22.434 -16.730  0.00  0.00    -0.004 C 
ATOM      8  C   UNL     1      34.764 -22.282 -17.205  0.00  0.00    -0.000 C 
ATOM      9  C   UNL     1      33.689 -22.868 -16.503  0.00  0.00    -0.000 C 
ATOM     10  C   UNL     1      33.940 -23.588 -15.332  0.00  0.00    -0.002 C 
ATOM     11  C   UNL     1      34.493 -21.538 -18.387  0.00  0.00    -0.000 C 
ATOM     12  C   UNL     1      37.119 -21.806 -17.470  0.00  0.00    -0.000 C 
ATOM     13  C   UNL     1      35.550 -20.932 -19.102  0.00  0.00    -0.000 C 
ATOM     14  C   UNL     1      33.165 -21.396 -18.856  0.00  0.00    -0.000 C 
ATOM     15  C   UNL     1      32.380 -22.718 -16.980  0.00  0.00    -0.000 C 
ATOM     16  C   UNL     1      36.855 -21.073 -18.630  0.00  0.00    -0.000 C 
ATOM     17  C   UNL     1      32.121 -21.993 -18.142  0.00  0.00    -0.000 C 
ATOM     18  C   UNL     1      35.272 -20.202 -20.267  0.00  0.00    -0.000 C 
ATOM     19  C   UNL     1      32.916 -20.661 -20.024  0.00  0.00    -0.000 C 
ATOM     20  C   UNL     1      33.964 -20.068 -20.724  0.00  0.00    +0.000 C 
ENDROOT
BRANCH   2  21
ATOM     21  O   UNL     1      36.835 -23.062 -12.275  0.00  0.00    -0.379 OA
ATOM     22  H   UNL     1      36.143 -23.006 -11.599  0.00  0.00    +0.211 HD
ENDBRANCH   2  21
BRANCH   3  23
ATOM     23  O   UNL     1      35.248 -25.924 -13.886  0.00  0.00    -0.377 OA
ATOM     24  H   UNL     1      35.146 -26.438 -13.069  0.00  0.00    +0.211 HD
ENDBRANCH   3  23
BRANCH   4  25
ATOM     25  O   UNL     1      39.166 -24.305 -13.330  0.00  0.00    -0.382 OA
ATOM     26  H   UNL     1      39.457 -25.164 -12.984  0.00  0.00    +0.210 HD
ENDBRANCH   4  25
TORSDOF 3
ENDMDL
MODEL 5
REMARK VINA RESULT:      -9.8     14.877     17.900
REMARK  Name = 5287739
REMARK  3 active torsions:
REMARK  status: ('A' for Active; 'I' for Inactive)
REMARK    1  A    between atoms: C_2  and  O_21
REMARK    2  A    between atoms: C_3  and  O_23
REMARK    3  A    between atoms: C_4  and  O_25
REMARK                            x       y       z     vdW  Elec       q    Type
REMARK                         _______ _______ _______ _____ _____    ______ ____
ROOT
ATOM      1  C   UNL     1      32.919  -7.396 -23.110  0.00  0.00    -0.021 C 
ATOM      2  C   UNL     1      31.942  -4.645 -23.068  0.00  0.00    +0.168 C 
ATOM      3  C   UNL     1      31.665  -5.538 -21.857  0.00  0.00    +0.162 C 
ATOM      4  C   UNL     1      33.342  -4.920 -23.610  0.00  0.00    +0.144 C 
ATOM      5  C   UNL     1      33.481  -6.369 -24.076  0.00  0.00    +0.058 C 
ATOM      6  C   UNL     1      32.054  -6.987 -22.073  0.00  0.00    +0.003 C 
ATOM      7  C   UNL     1      33.224  -8.782 -23.275  0.00  0.00    -0.004 C 
ATOM      8  C   UNL     1      32.686  -9.726 -22.362  0.00  0.00    -0.000 C 
ATOM      9  C   UNL     1      31.846  -9.298 -21.312  0.00  0.00    -0.000 C 
ATOM     10  C   UNL     1      31.539  -7.941 -21.183  0.00  0.00    -0.002 C 
ATOM     11  C   UNL     1      32.978 -11.112 -22.492  0.00  0.00    -0.000 C 
ATOM     12  C   UNL     1      34.041  -9.280 -24.313  0.00  0.00    -0.000 C 
ATOM     13  C   UNL     1      33.806 -11.569 -23.541  0.00  0.00    -0.000 C 
ATOM     14  C   UNL     1      32.441 -12.047 -21.574  0.00  0.00    -0.000 C 
ATOM     15  C   UNL     1      31.322 -10.236 -20.412  0.00  0.00    -0.000 C 
ATOM     16  C   UNL     1      34.327 -10.641 -24.444  0.00  0.00    -0.000 C 
ATOM     17  C   UNL     1      31.617 -11.593 -20.539  0.00  0.00    -0.000 C 
ATOM     18  C   UNL     1      34.089 -12.937 -23.659  0.00  0.00    -0.000 C 
ATOM     19  C   UNL     1      32.740 -13.410 -21.715  0.00  0.00    -0.000 C 
ATOM     20  C   UNL     1      33.560 -13.851 -22.751  0.00  0.00    +0.000 C 
ENDROOT
BRANCH   2  21
ATOM     21  O   UNL     1      30.974  -4.900 -24.086  0.00  0.00    -0.379 OA
ATOM     22  H   UNL     1      30.834  -5.856 -24.166  0.00  0.00    +0.211 HD
ENDBRANCH   2  21
BRANCH   3  23
ATOM     23  O   UNL     1      32.404  -5.059 -20.735  0.00  0.00    -0.377 OA
ATOM     24  H   UNL     1      32.719  -4.160 -20.916  0.00  0.00    +0.211 HD
ENDBRANCH   3  23
BRANCH   4  25
ATOM     25  O   UNL     1      33.620  -4.060 -24.711  0.00  0.00    -0.382 OA
ATOM     26  H   UNL     1      34.125  -4.545 -25.381  0.00  0.00    +0.210 HD
ENDBRANCH   4  25
TORSDOF 3
ENDMDL
MODEL 6
REMARK VINA RESULT:      -9.7      1.822      3.064
REMARK  Name = 5287739
REMARK  3 active torsions:
REMARK  status: ('A' for Active; 'I' for Inactive)
REMARK    1  A    between atoms: C_2  and  O_21
REMARK    2  A    between atoms: C_3  and  O_23
REMARK    3  A    between atoms: C_4  and  O_25
REMARK                            x       y       z     vdW  Elec       q    Type
REMARK                         _______ _______ _______ _____ _____    ______ ____
ROOT
ATOM      1  C   UNL     1      34.851 -24.085 -13.031  0.00  0.00    -0.021 C 
ATOM      2  C   UNL     1      37.574 -24.966 -12.455  0.00  0.00    +0.168 C 
ATOM      3  C   UNL     1      37.319 -24.167 -13.735  0.00  0.00    +0.162 C 
ATOM      4  C   UNL     1      36.724 -24.411 -11.316  0.00  0.00    +0.144 C 
ATOM      5  C   UNL     1      35.234 -24.526 -11.630  0.00  0.00    +0.058 C 
ATOM      6  C   UNL     1      35.849 -23.930 -14.016  0.00  0.00    +0.003 C 
ATOM      7  C   UNL     1      33.480 -23.873 -13.369  0.00  0.00    -0.004 C 
ATOM      8  C   UNL     1      33.144 -23.463 -14.686  0.00  0.00    -0.000 C 
ATOM      9  C   UNL     1      34.155 -23.283 -15.653  0.00  0.00    -0.000 C 
ATOM     10  C   UNL     1      35.489 -23.521 -15.309  0.00  0.00    -0.002 C 
ATOM     11  C   UNL     1      31.788 -23.233 -15.054  0.00  0.00    -0.000 C 
ATOM     12  C   UNL     1      32.417 -24.052 -12.458  0.00  0.00    -0.000 C 
ATOM     13  C   UNL     1      30.755 -23.416 -14.109  0.00  0.00    -0.000 C 
ATOM     14  C   UNL     1      31.463 -22.820 -16.368  0.00  0.00    -0.000 C 
ATOM     15  C   UNL     1      33.817 -22.875 -16.950  0.00  0.00    -0.000 C 
ATOM     16  C   UNL     1      31.085 -23.828 -12.817  0.00  0.00    -0.000 C 
ATOM     17  C   UNL     1      32.488 -22.644 -17.303  0.00  0.00    -0.000 C 
ATOM     18  C   UNL     1      29.423 -23.185 -14.480  0.00  0.00    -0.000 C 
ATOM     19  C   UNL     1      30.122 -22.596 -16.714  0.00  0.00    -0.000 C 
ATOM     20  C   UNL     1      29.109 -22.777 -15.774  0.00  0.00    +0.000 C 
ENDROOT
BRANCH   2  21
ATOM     21  O   UNL     1      37.250 -26.339 -12.672  0.00  0.00    -0.379 OA
ATOM     22  H   UNL     1      37.378 -26.557 -13.608  0.00  0.00    +0.211 HD
ENDBRANCH   2  21
BRANCH   3  23
ATOM     23  O   UNL     1      37.946 -22.889 -13.631  0.00  0.00    -0.377 OA
ATOM     24  H   UNL     1      38.868 -23.005 -13.352  0.00  0.00    +0.211 HD
ENDBRANCH   3  23
BRANCH   4  25
ATOM     25  O   UNL     1      36.992 -25.124 -10.112  0.00  0.00    -0.382 OA
ATOM     26  H   UNL     1      36.166 -25.247  -9.619  0.00  0.00    +0.210 HD
ENDBRANCH   4  25
TORSDOF 3
ENDMDL
MODEL 7
REMARK VINA RESULT:      -9.5      2.089      4.393
REMARK  Name = 5287739
REMARK  3 active torsions:
REMARK  status: ('A' for Active; 'I' for Inactive)
REMARK    1  A    between atoms: C_2  and  O_21
REMARK    2  A    between atoms: C_3  and  O_23
REMARK    3  A    between atoms: C_4  and  O_25
REMARK                            x       y       z     vdW  Elec       q    Type
REMARK                         _______ _______ _______ _____ _____    ______ ____
ROOT
ATOM      1  C   UNL     1      34.036 -23.318 -15.055  0.00  0.00    -0.021 C 
ATOM      2  C   UNL     1      32.427 -24.169 -12.773  0.00  0.00    +0.168 C 
ATOM      3  C   UNL     1      31.746 -24.028 -14.136  0.00  0.00    +0.162 C 
ATOM      4  C   UNL     1      33.825 -24.757 -12.947  0.00  0.00    +0.144 C 
ATOM      5  C   UNL     1      34.706 -23.845 -13.799  0.00  0.00    +0.058 C 
ATOM      6  C   UNL     1      32.635 -23.403 -15.193  0.00  0.00    +0.003 C 
ATOM      7  C   UNL     1      34.814 -22.693 -16.077  0.00  0.00    -0.004 C 
ATOM      8  C   UNL     1      34.167 -22.205 -17.242  0.00  0.00    -0.000 C 
ATOM      9  C   UNL     1      32.768 -22.325 -17.380  0.00  0.00    -0.000 C 
ATOM     10  C   UNL     1      32.022 -22.916 -16.357  0.00  0.00    -0.002 C 
ATOM     11  C   UNL     1      34.913 -21.587 -18.285  0.00  0.00    -0.000 C 
ATOM     12  C   UNL     1      36.213 -22.524 -15.997  0.00  0.00    -0.000 C 
ATOM     13  C   UNL     1      36.313 -21.445 -18.168  0.00  0.00    -0.000 C 
ATOM     14  C   UNL     1      34.260 -21.107 -19.446  0.00  0.00    -0.000 C 
ATOM     15  C   UNL     1      32.136 -21.844 -18.535  0.00  0.00    -0.000 C 
ATOM     16  C   UNL     1      36.947 -21.916 -17.018  0.00  0.00    -0.000 C 
ATOM     17  C   UNL     1      32.873 -21.245 -19.556  0.00  0.00    -0.000 C 
ATOM     18  C   UNL     1      37.039 -20.835 -19.201  0.00  0.00    -0.000 C 
ATOM     19  C   UNL     1      35.011 -20.501 -20.464  0.00  0.00    -0.000 C 
ATOM     20  C   UNL     1      36.391 -20.367 -20.342  0.00  0.00    +0.000 C 
ENDROOT
BRANCH   2  21
ATOM     21  O   UNL     1      32.517 -22.891 -12.144  0.00  0.00    -0.379 OA
ATOM     22  H   UNL     1      31.726 -22.372 -12.354  0.00  0.00    +0.211 HD
ENDBRANCH   2  21
BRANCH   3  23
ATOM     23  O   UNL     1      31.357 -25.316 -14.609  0.00  0.00    -0.377 OA
ATOM     24  H   UNL     1      31.344 -25.941 -13.868  0.00  0.00    +0.211 HD
ENDBRANCH   3  23
BRANCH   4  25
ATOM     25  O   UNL     1      34.445 -24.931 -11.677  0.00  0.00    -0.382 OA
ATOM     26  H   UNL     1      34.854 -24.097 -11.398  0.00  0.00    +0.210 HD
ENDBRANCH   4  25
TORSDOF 3
ENDMDL
MODEL 8
REMARK VINA RESULT:      -9.5      2.064      4.401
REMARK  Name = 5287739
REMARK  3 active torsions:
REMARK  status: ('A' for Active; 'I' for Inactive)
REMARK    1  A    between atoms: C_2  and  O_21
REMARK    2  A    between atoms: C_3  and  O_23
REMARK    3  A    between atoms: C_4  and  O_25
REMARK                            x       y       z     vdW  Elec       q    Type
REMARK                         _______ _______ _______ _____ _____    ______ ____
ROOT
ATOM      1  C   UNL     1      35.298 -23.892 -14.428  0.00  0.00    -0.021 C 
ATOM      2  C   UNL     1      37.814 -24.155 -12.970  0.00  0.00    +0.168 C 
ATOM      3  C   UNL     1      36.547 -24.757 -12.358  0.00  0.00    +0.162 C 
ATOM      4  C   UNL     1      37.814 -24.368 -14.482  0.00  0.00    +0.144 C 
ATOM      5  C   UNL     1      36.621 -23.674 -15.138  0.00  0.00    +0.058 C 
ATOM      6  C   UNL     1      35.282 -24.395 -13.110  0.00  0.00    +0.003 C 
ATOM      7  C   UNL     1      34.071 -23.546 -15.071  0.00  0.00    -0.004 C 
ATOM      8  C   UNL     1      32.844 -23.756 -14.389  0.00  0.00    -0.000 C 
ATOM      9  C   UNL     1      32.842 -24.288 -13.082  0.00  0.00    -0.000 C 
ATOM     10  C   UNL     1      34.055 -24.597 -12.461  0.00  0.00    -0.002 C 
ATOM     11  C   UNL     1      31.603 -23.431 -15.004  0.00  0.00    -0.000 C 
ATOM     12  C   UNL     1      34.000 -22.992 -16.368  0.00  0.00    -0.000 C 
ATOM     13  C   UNL     1      31.577 -22.886 -16.306  0.00  0.00    -0.000 C 
ATOM     14  C   UNL     1      30.384 -23.649 -14.317  0.00  0.00    -0.000 C 
ATOM     15  C   UNL     1      31.627 -24.497 -12.415  0.00  0.00    -0.000 C 
ATOM     16  C   UNL     1      32.783 -22.671 -16.974  0.00  0.00    -0.000 C 
ATOM     17  C   UNL     1      30.413 -24.183 -13.025  0.00  0.00    -0.000 C 
ATOM     18  C   UNL     1      30.348 -22.571 -16.904  0.00  0.00    -0.000 C 
ATOM     19  C   UNL     1      29.169 -23.324 -14.939  0.00  0.00    -0.000 C 
ATOM     20  C   UNL     1      29.153 -22.790 -16.225  0.00  0.00    +0.000 C 
ENDROOT
BRANCH   2  21
ATOM     21  O   UNL     1      37.872 -22.759 -12.681  0.00  0.00    -0.379 OA
ATOM     22  H   UNL     1      38.708 -22.557 -12.233  0.00  0.00    +0.211 HD
ENDBRANCH   2  21
BRANCH   3  23
ATOM     23  O   UNL     1      36.650 -26.180 -12.354  0.00  0.00    -0.377 OA
ATOM     24  H   UNL     1      36.505 -26.511 -11.453  0.00  0.00    +0.211 HD
ENDBRANCH   3  23
BRANCH   4  25
ATOM     25  O   UNL     1      39.012 -23.848 -15.050  0.00  0.00    -0.382 OA
ATOM     26  H   UNL     1      39.297 -24.417 -15.781  0.00  0.00    +0.210 HD
ENDBRANCH   4  25
TORSDOF 3
ENDMDL
MODEL 9
REMARK VINA RESULT:      -9.1      5.285      8.218
REMARK  Name = 5287739
REMARK  3 active torsions:
REMARK  status: ('A' for Active; 'I' for Inactive)
REMARK    1  A    between atoms: C_2  and  O_21
REMARK    2  A    between atoms: C_3  and  O_23
REMARK    3  A    between atoms: C_4  and  O_25
REMARK                            x       y       z     vdW  Elec       q    Type
REMARK                         _______ _______ _______ _____ _____    ______ ____
ROOT
ATOM      1  C   UNL     1      35.088 -19.866 -20.630  0.00  0.00    -0.021 C 
ATOM      2  C   UNL     1      35.921 -17.682 -22.380  0.00  0.00    +0.168 C 
ATOM      3  C   UNL     1      36.970 -18.340 -21.480  0.00  0.00    +0.162 C 
ATOM      4  C   UNL     1      34.968 -18.741 -22.927  0.00  0.00    +0.144 C 
ATOM      5  C   UNL     1      34.216 -19.446 -21.799  0.00  0.00    +0.058 C 
ATOM      6  C   UNL     1      36.384 -19.325 -20.489  0.00  0.00    +0.003 C 
ATOM      7  C   UNL     1      34.585 -20.771 -19.646  0.00  0.00    -0.004 C 
ATOM      8  C   UNL     1      35.417 -21.148 -18.559  0.00  0.00    -0.000 C 
ATOM      9  C   UNL     1      36.722 -20.623 -18.448  0.00  0.00    -0.000 C 
ATOM     10  C   UNL     1      37.186 -19.719 -19.408  0.00  0.00    -0.002 C 
ATOM     11  C   UNL     1      34.951 -22.055 -17.567  0.00  0.00    -0.000 C 
ATOM     12  C   UNL     1      33.285 -21.320 -19.685  0.00  0.00    -0.000 C 
ATOM     13  C   UNL     1      33.646 -22.588 -17.648  0.00  0.00    -0.000 C 
ATOM     14  C   UNL     1      35.789 -22.431 -16.489  0.00  0.00    -0.000 C 
ATOM     15  C   UNL     1      37.539 -21.003 -17.375  0.00  0.00    -0.000 C 
ATOM     16  C   UNL     1      32.825 -22.209 -18.711  0.00  0.00    -0.000 C 
ATOM     17  C   UNL     1      37.079 -21.897 -16.408  0.00  0.00    -0.000 C 
ATOM     18  C   UNL     1      33.196 -23.482 -16.665  0.00  0.00    -0.000 C 
ATOM     19  C   UNL     1      35.314 -23.326 -15.519  0.00  0.00    -0.000 C 
ATOM     20  C   UNL     1      34.026 -23.849 -15.609  0.00  0.00    +0.000 C 
ENDROOT
BRANCH   2  21
ATOM     21  O   UNL     1      35.186 -16.712 -21.635  0.00  0.00    -0.379 OA
ATOM     22  H   UNL     1      35.033 -15.930 -22.186  0.00  0.00    +0.211 HD
ENDBRANCH   2  21
BRANCH   3  23
ATOM     23  O   UNL     1      37.910 -19.049 -22.285  0.00  0.00    -0.377 OA
ATOM     24  H   UNL     1      37.434 -19.624 -22.906  0.00  0.00    +0.211 HD
ENDBRANCH   3  23
BRANCH   4  25
ATOM     25  O   UNL     1      34.016 -18.139 -23.800  0.00  0.00    -0.382 OA
ATOM     26  H   UNL     1      33.576 -18.827 -24.324  0.00  0.00    +0.210 HD
ENDBRANCH   4  25
TORSDOF 3
ENDMDL
