MODEL 1
REMARK VINA RESULT:     -10.9      0.000      0.000
REMARK  Name = 70798655
REMARK  2 active torsions:
REMARK  status: ('A' for Active; 'I' for Inactive)
REMARK    1  A    between atoms: C_3  and  C_29
REMARK    2  A    between atoms: C_5  and  C_13
REMARK                            x       y       z     vdW  Elec       q    Type
REMARK                         _______ _______ _______ _____ _____    ______ ____
ROOT
ATOM      1  N   UNL     1      33.883 -23.572 -14.939  0.00  0.00    -0.245 N 
ATOM      2  N   UNL     1      32.313 -24.519 -13.660  0.00  0.00    -0.227 NA
ATOM      3  C   UNL     1      34.526 -24.056 -13.829  0.00  0.00    +0.130 C 
ATOM      4  C   UNL     1      32.536 -23.879 -14.789  0.00  0.00    +0.139 C 
ATOM      5  C   UNL     1      33.584 -22.502 -17.035  0.00  0.00    +0.012 C 
ATOM      6  C   UNL     1      34.406 -22.897 -16.039  0.00  0.00    +0.071 C 
ATOM      7  C   UNL     1      33.542 -24.632 -13.060  0.00  0.00    +0.120 C 
ATOM      8  C   UNL     1      31.661 -23.470 -15.834  0.00  0.00    +0.035 C 
ATOM      9  C   UNL     1      32.157 -22.817 -16.903  0.00  0.00    +0.004 C 
ENDROOT
BRANCH   5  13
ATOM     10  O   UNL     1      35.523 -19.788 -21.478  0.00  0.00    -0.414 OA
ATOM     11  N   UNL     1      33.269 -19.802 -21.238  0.00  0.00    -0.356 NA
ATOM     12  N   UNL     1      34.317 -18.683 -23.092  0.00  0.00    -0.302 N 
ATOM     13  C   UNL     1      34.147 -21.794 -18.200  0.00  0.00    -0.014 C 
ATOM     14  C   UNL     1      33.281 -21.163 -19.105  0.00  0.00    +0.089 C 
ATOM     15  C   UNL     1      35.536 -21.764 -18.383  0.00  0.00    -0.001 C 
ATOM     16  C   UNL     1      33.845 -20.497 -20.203  0.00  0.00    +0.152 C 
ATOM     17  C   UNL     1      35.225 -20.492 -20.347  0.00  0.00    +0.175 C 
ATOM     18  C   UNL     1      36.114 -21.104 -19.473  0.00  0.00    +0.040 C 
ATOM     19  C   UNL     1      34.302 -19.410 -21.951  0.00  0.00    +0.341 C 
ATOM     20  H   UNL     1      35.175 -18.461 -23.523  0.00  0.00    +0.148 HD
ATOM     21  H   UNL     1      33.472 -18.376 -23.491  0.00  0.00    +0.148 HD
ENDBRANCH   5  13
BRANCH   3  29
ATOM     22  O   UNL     1      38.382 -27.309 -14.142  0.00  0.00    -0.350 OA
ATOM     23  O   UNL     1      36.336 -22.969 -12.925  0.00  0.00    -0.268 OA
ATOM     24  N   UNL     1      36.794 -24.986 -14.012  0.00  0.00    -0.270 N 
ATOM     25  C   UNL     1      38.234 -24.924 -13.762  0.00  0.00    +0.126 C 
ATOM     26  C   UNL     1      36.369 -26.135 -14.821  0.00  0.00    +0.126 C 
ATOM     27  C   UNL     1      36.962 -27.422 -14.261  0.00  0.00    +0.164 C 
ATOM     28  C   UNL     1      38.739 -26.260 -13.238  0.00  0.00    +0.164 C 
ATOM     29  C   UNL     1      35.965 -23.962 -13.550  0.00  0.00    +0.265 C 
ENDBRANCH   3  29
TORSDOF 2
ENDMDL
MODEL 2
REMARK VINA RESULT:     -10.3      1.245      1.865
REMARK  Name = 70798655
REMARK  2 active torsions:
REMARK  status: ('A' for Active; 'I' for Inactive)
REMARK    1  A    between atoms: C_3  and  C_29
REMARK    2  A    between atoms: C_5  and  C_13
REMARK                            x       y       z     vdW  Elec       q    Type
REMARK                         _______ _______ _______ _____ _____    ______ ____
ROOT
ATOM      1  N   UNL     1      33.475 -23.860 -15.211  0.00  0.00    -0.245 N 
ATOM      2  N   UNL     1      31.808 -24.529 -13.880  0.00  0.00    -0.227 NA
ATOM      3  C   UNL     1      34.044 -24.641 -14.238  0.00  0.00    +0.130 C 
ATOM      4  C   UNL     1      32.111 -23.823 -14.949  0.00  0.00    +0.139 C 
ATOM      5  C   UNL     1      33.321 -22.476 -17.131  0.00  0.00    +0.012 C 
ATOM      6  C   UNL     1      34.078 -23.202 -16.280  0.00  0.00    +0.071 C 
ATOM      7  C   UNL     1      33.002 -25.038 -13.435  0.00  0.00    +0.120 C 
ATOM      8  C   UNL     1      31.304 -23.062 -15.841  0.00  0.00    +0.035 C 
ATOM      9  C   UNL     1      31.877 -22.422 -16.879  0.00  0.00    +0.004 C 
ENDROOT
BRANCH   5  13
ATOM     10  O   UNL     1      35.573 -19.829 -21.465  0.00  0.00    -0.414 OA
ATOM     11  N   UNL     1      33.314 -19.730 -21.316  0.00  0.00    -0.356 NA
ATOM     12  N   UNL     1      34.492 -18.651 -23.115  0.00  0.00    -0.302 N 
ATOM     13  C   UNL     1      33.966 -21.788 -18.266  0.00  0.00    -0.014 C 
ATOM     14  C   UNL     1      33.170 -21.106 -19.198  0.00  0.00    +0.089 C 
ATOM     15  C   UNL     1      35.361 -21.827 -18.392  0.00  0.00    -0.001 C 
ATOM     16  C   UNL     1      33.811 -20.462 -20.266  0.00  0.00    +0.152 C 
ATOM     17  C   UNL     1      35.195 -20.525 -20.354  0.00  0.00    +0.175 C 
ATOM     18  C   UNL     1      36.016 -21.188 -19.451  0.00  0.00    +0.040 C 
ATOM     19  C   UNL     1      34.394 -19.386 -21.983  0.00  0.00    +0.341 C 
ATOM     20  H   UNL     1      35.376 -18.470 -23.509  0.00  0.00    +0.148 HD
ATOM     21  H   UNL     1      33.679 -18.299 -23.545  0.00  0.00    +0.148 HD
ENDBRANCH   5  13
BRANCH   3  29
ATOM     22  O   UNL     1      37.528 -23.787 -10.677  0.00  0.00    -0.350 OA
ATOM     23  O   UNL     1      36.037 -25.354 -15.129  0.00  0.00    -0.268 OA
ATOM     24  N   UNL     1      36.070 -24.817 -12.856  0.00  0.00    -0.270 N 
ATOM     25  C   UNL     1      37.486 -25.138 -12.684  0.00  0.00    +0.126 C 
ATOM     26  C   UNL     1      35.383 -24.425 -11.619  0.00  0.00    +0.126 C 
ATOM     27  C   UNL     1      36.183 -23.352 -10.890  0.00  0.00    +0.164 C 
ATOM     28  C   UNL     1      38.192 -24.028 -11.921  0.00  0.00    +0.164 C 
ATOM     29  C   UNL     1      35.471 -24.965 -14.109  0.00  0.00    +0.265 C 
ENDBRANCH   3  29
TORSDOF 2
ENDMDL
MODEL 3
REMARK VINA RESULT:     -10.2      2.091      3.501
REMARK  Name = 70798655
REMARK  2 active torsions:
REMARK  status: ('A' for Active; 'I' for Inactive)
REMARK    1  A    between atoms: C_3  and  C_29
REMARK    2  A    between atoms: C_5  and  C_13
REMARK                            x       y       z     vdW  Elec       q    Type
REMARK                         _______ _______ _______ _____ _____    ______ ____
ROOT
ATOM      1  N   UNL     1      36.707 -24.848 -13.194  0.00  0.00    -0.245 N 
ATOM      2  N   UNL     1      36.344 -25.487 -11.082  0.00  0.00    -0.227 NA
ATOM      3  C   UNL     1      37.843 -25.498 -12.783  0.00  0.00    +0.130 C 
ATOM      4  C   UNL     1      35.823 -24.868 -12.122  0.00  0.00    +0.139 C 
ATOM      5  C   UNL     1      35.225 -23.665 -14.618  0.00  0.00    +0.012 C 
ATOM      6  C   UNL     1      36.422 -24.260 -14.424  0.00  0.00    +0.071 C 
ATOM      7  C   UNL     1      37.595 -25.879 -11.486  0.00  0.00    +0.120 C 
ATOM      8  C   UNL     1      34.559 -24.245 -12.318  0.00  0.00    +0.035 C 
ATOM      9  C   UNL     1      34.272 -23.673 -13.503  0.00  0.00    +0.004 C 
ENDROOT
BRANCH   5  13
ATOM     10  O   UNL     1      34.286 -21.285 -19.550  0.00  0.00    -0.414 OA
ATOM     11  N   UNL     1      36.370 -21.007 -18.703  0.00  0.00    -0.356 NA
ATOM     12  N   UNL     1      35.753 -20.060 -20.826  0.00  0.00    -0.302 N 
ATOM     13  C   UNL     1      34.927 -23.051 -15.926  0.00  0.00    -0.014 C 
ATOM     14  C   UNL     1      35.930 -22.328 -16.590  0.00  0.00    +0.089 C 
ATOM     15  C   UNL     1      33.650 -23.200 -16.483  0.00  0.00    -0.001 C 
ATOM     16  C   UNL     1      35.617 -21.756 -17.832  0.00  0.00    +0.152 C 
ATOM     17  C   UNL     1      34.340 -21.928 -18.347  0.00  0.00    +0.175 C 
ATOM     18  C   UNL     1      33.323 -22.636 -17.721  0.00  0.00    +0.040 C 
ATOM     19  C   UNL     1      35.537 -20.762 -19.690  0.00  0.00    +0.341 C 
ATOM     20  H   UNL     1      35.028 -19.955 -21.486  0.00  0.00    +0.148 HD
ATOM     21  H   UNL     1      36.633 -19.654 -20.994  0.00  0.00    +0.148 HD
ENDBRANCH   5  13
BRANCH   3  29
ATOM     22  O   UNL     1      39.512 -29.331 -15.625  0.00  0.00    -0.350 OA
ATOM     23  O   UNL     1      39.975 -24.926 -13.415  0.00  0.00    -0.268 OA
ATOM     24  N   UNL     1      39.065 -26.799 -14.474  0.00  0.00    -0.270 N 
ATOM     25  C   UNL     1      40.247 -27.049 -15.297  0.00  0.00    +0.126 C 
ATOM     26  C   UNL     1      37.941 -27.707 -14.736  0.00  0.00    +0.126 C 
ATOM     27  C   UNL     1      38.419 -29.154 -14.720  0.00  0.00    +0.164 C 
ATOM     28  C   UNL     1      40.628 -28.521 -15.245  0.00  0.00    +0.164 C 
ATOM     29  C   UNL     1      39.053 -25.722 -13.586  0.00  0.00    +0.265 C 
ENDBRANCH   3  29
TORSDOF 2
ENDMDL
MODEL 4
REMARK VINA RESULT:     -10.2      2.899      4.685
REMARK  Name = 70798655
REMARK  2 active torsions:
REMARK  status: ('A' for Active; 'I' for Inactive)
REMARK    1  A    between atoms: C_3  and  C_29
REMARK    2  A    between atoms: C_5  and  C_13
REMARK                            x       y       z     vdW  Elec       q    Type
REMARK                         _______ _______ _______ _____ _____    ______ ____
ROOT
ATOM      1  N   UNL     1      34.807 -22.534 -16.719  0.00  0.00    -0.245 N 
ATOM      2  N   UNL     1      35.693 -23.547 -14.933  0.00  0.00    -0.227 NA
ATOM      3  C   UNL     1      33.771 -23.160 -16.073  0.00  0.00    +0.130 C 
ATOM      4  C   UNL     1      35.957 -22.799 -15.985  0.00  0.00    +0.139 C 
ATOM      5  C   UNL     1      35.937 -21.237 -18.350  0.00  0.00    +0.012 C 
ATOM      6  C   UNL     1      34.787 -21.767 -17.881  0.00  0.00    +0.071 C 
ATOM      7  C   UNL     1      34.341 -23.775 -14.983  0.00  0.00    +0.120 C 
ATOM      8  C   UNL     1      37.173 -22.243 -16.470  0.00  0.00    +0.035 C 
ATOM      9  C   UNL     1      37.166 -21.499 -17.593  0.00  0.00    +0.004 C 
ENDROOT
BRANCH   5  13
ATOM     10  O   UNL     1      35.643 -18.214 -23.003  0.00  0.00    -0.414 OA
ATOM     11  N   UNL     1      33.771 -19.371 -22.458  0.00  0.00    -0.356 NA
ATOM     12  N   UNL     1      33.857 -17.998 -24.433  0.00  0.00    -0.302 N 
ATOM     13  C   UNL     1      35.908 -20.419 -19.578  0.00  0.00    -0.014 C 
ATOM     14  C   UNL     1      34.740 -20.386 -20.354  0.00  0.00    +0.089 C 
ATOM     15  C   UNL     1      37.046 -19.690 -19.948  0.00  0.00    -0.001 C 
ATOM     16  C   UNL     1      34.742 -19.599 -21.515  0.00  0.00    +0.152 C 
ATOM     17  C   UNL     1      35.890 -18.893 -21.845  0.00  0.00    +0.175 C 
ATOM     18  C   UNL     1      37.064 -18.900 -21.103  0.00  0.00    +0.040 C 
ATOM     19  C   UNL     1      34.357 -18.551 -23.304  0.00  0.00    +0.341 C 
ATOM     20  H   UNL     1      34.416 -17.395 -24.975  0.00  0.00    +0.148 HD
ATOM     21  H   UNL     1      32.935 -18.197 -24.711  0.00  0.00    +0.148 HD
ENDBRANCH   5  13
BRANCH   3  29
ATOM     22  O   UNL     1      29.485 -24.789 -13.945  0.00  0.00    -0.350 OA
ATOM     23  O   UNL     1      32.140 -22.891 -17.667  0.00  0.00    -0.268 OA
ATOM     24  N   UNL     1      31.392 -23.444 -15.524  0.00  0.00    -0.270 N 
ATOM     25  C   UNL     1      29.978 -23.442 -15.894  0.00  0.00    +0.126 C 
ATOM     26  C   UNL     1      31.645 -23.690 -14.098  0.00  0.00    +0.126 C 
ATOM     27  C   UNL     1      30.875 -24.918 -13.631  0.00  0.00    +0.164 C 
ATOM     28  C   UNL     1      29.287 -24.687 -15.357  0.00  0.00    +0.164 C 
ATOM     29  C   UNL     1      32.362 -23.158 -16.486  0.00  0.00    +0.265 C 
ENDBRANCH   3  29
TORSDOF 2
ENDMDL
MODEL 5
REMARK VINA RESULT:     -10.1      3.927      5.429
REMARK  Name = 70798655
REMARK  2 active torsions:
REMARK  status: ('A' for Active; 'I' for Inactive)
REMARK    1  A    between atoms: C_3  and  C_29
REMARK    2  A    between atoms: C_5  and  C_13
REMARK                            x       y       z     vdW  Elec       q    Type
REMARK                         _______ _______ _______ _____ _____    ______ ____
ROOT
ATOM      1  N   UNL     1      36.698 -24.151 -14.490  0.00  0.00    -0.245 N 
ATOM      2  N   UNL     1      38.655 -23.325 -15.186  0.00  0.00    -0.227 NA
ATOM      3  C   UNL     1      37.674 -24.876 -13.855  0.00  0.00    +0.130 C 
ATOM      4  C   UNL     1      37.347 -23.218 -15.290  0.00  0.00    +0.139 C 
ATOM      5  C   UNL     1      34.525 -23.442 -15.125  0.00  0.00    +0.012 C 
ATOM      6  C   UNL     1      35.313 -24.268 -14.402  0.00  0.00    +0.071 C 
ATOM      7  C   UNL     1      38.864 -24.350 -14.299  0.00  0.00    +0.120 C 
ATOM      8  C   UNL     1      36.526 -22.342 -16.053  0.00  0.00    +0.035 C 
ATOM      9  C   UNL     1      35.185 -22.446 -15.976  0.00  0.00    +0.004 C 
ENDROOT
BRANCH   5  13
ATOM     10  O   UNL     1      28.986 -23.799 -14.891  0.00  0.00    -0.414 OA
ATOM     11  N   UNL     1      29.822 -22.548 -16.586  0.00  0.00    -0.356 NA
ATOM     12  N   UNL     1      27.450 -22.835 -16.302  0.00  0.00    -0.302 N 
ATOM     13  C   UNL     1      33.059 -23.567 -15.021  0.00  0.00    -0.014 C 
ATOM     14  C   UNL     1      32.246 -22.917 -15.961  0.00  0.00    +0.089 C 
ATOM     15  C   UNL     1      32.504 -24.332 -13.986  0.00  0.00    -0.001 C 
ATOM     16  C   UNL     1      30.856 -23.054 -15.836  0.00  0.00    +0.152 C 
ATOM     17  C   UNL     1      30.348 -23.820 -14.797  0.00  0.00    +0.175 C 
ATOM     18  C   UNL     1      31.119 -24.479 -13.849  0.00  0.00    +0.040 C 
ATOM     19  C   UNL     1      28.752 -23.019 -15.984  0.00  0.00    +0.341 C 
ATOM     20  H   UNL     1      26.746 -23.253 -15.755  0.00  0.00    +0.148 HD
ATOM     21  H   UNL     1      27.208 -22.282 -17.079  0.00  0.00    +0.148 HD
ENDBRANCH   5  13
BRANCH   3  29
ATOM     22  O   UNL     1      37.548 -29.910 -14.291  0.00  0.00    -0.350 OA
ATOM     23  O   UNL     1      37.024 -25.666 -11.799  0.00  0.00    -0.268 OA
ATOM     24  N   UNL     1      37.766 -27.274 -13.322  0.00  0.00    -0.270 N 
ATOM     25  C   UNL     1      37.575 -28.396 -12.404  0.00  0.00    +0.126 C 
ATOM     26  C   UNL     1      38.355 -27.643 -14.615  0.00  0.00    +0.126 C 
ATOM     27  C   UNL     1      37.603 -28.823 -15.219  0.00  0.00    +0.164 C 
ATOM     28  C   UNL     1      36.847 -29.534 -13.103  0.00  0.00    +0.164 C 
ATOM     29  C   UNL     1      37.459 -25.977 -12.907  0.00  0.00    +0.265 C 
ENDBRANCH   3  29
TORSDOF 2
ENDMDL
MODEL 6
REMARK VINA RESULT:      -9.8      2.523      4.110
REMARK  Name = 70798655
REMARK  2 active torsions:
REMARK  status: ('A' for Active; 'I' for Inactive)
REMARK    1  A    between atoms: C_3  and  C_29
REMARK    2  A    between atoms: C_5  and  C_13
REMARK                            x       y       z     vdW  Elec       q    Type
REMARK                         _______ _______ _______ _____ _____    ______ ____
ROOT
ATOM      1  N   UNL     1      36.705 -25.634 -13.130  0.00  0.00    -0.245 N 
ATOM      2  N   UNL     1      36.938 -25.843 -10.915  0.00  0.00    -0.227 NA
ATOM      3  C   UNL     1      37.173 -26.904 -12.905  0.00  0.00    +0.130 C 
ATOM      4  C   UNL     1      36.578 -25.028 -11.885  0.00  0.00    +0.139 C 
ATOM      5  C   UNL     1      35.944 -23.734 -14.327  0.00  0.00    +0.012 C 
ATOM      6  C   UNL     1      36.396 -25.007 -14.334  0.00  0.00    +0.071 C 
ATOM      7  C   UNL     1      37.308 -27.007 -11.541  0.00  0.00    +0.120 C 
ATOM      8  C   UNL     1      36.101 -23.688 -11.868  0.00  0.00    +0.035 C 
ATOM      9  C   UNL     1      35.799 -23.071 -13.027  0.00  0.00    +0.004 C 
ENDROOT
BRANCH   5  13
ATOM     10  O   UNL     1      34.505 -21.323 -19.121  0.00  0.00    -0.414 OA
ATOM     11  N   UNL     1      32.836 -22.379 -18.008  0.00  0.00    -0.356 NA
ATOM     12  N   UNL     1      32.428 -21.268 -20.104  0.00  0.00    -0.302 N 
ATOM     13  C   UNL     1      35.611 -23.079 -15.606  0.00  0.00    -0.014 C 
ATOM     14  C   UNL     1      34.293 -23.130 -16.081  0.00  0.00    +0.089 C 
ATOM     15  C   UNL     1      36.616 -22.416 -16.324  0.00  0.00    -0.001 C 
ATOM     16  C   UNL     1      34.006 -22.498 -17.300  0.00  0.00    +0.152 C 
ATOM     17  C   UNL     1      35.031 -21.853 -17.978  0.00  0.00    +0.175 C 
ATOM     18  C   UNL     1      36.346 -21.780 -17.540  0.00  0.00    +0.040 C 
ATOM     19  C   UNL     1      33.191 -21.680 -19.065  0.00  0.00    +0.341 C 
ATOM     20  H   UNL     1      32.833 -20.747 -20.835  0.00  0.00    +0.148 HD
ATOM     21  H   UNL     1      31.470 -21.491 -20.129  0.00  0.00    +0.148 HD
ENDBRANCH   5  13
BRANCH   3  29
ATOM     22  O   UNL     1      40.937 -27.583 -16.210  0.00  0.00    -0.350 OA
ATOM     23  O   UNL     1      36.537 -28.674 -14.223  0.00  0.00    -0.268 OA
ATOM     24  N   UNL     1      38.743 -27.950 -14.482  0.00  0.00    -0.270 N 
ATOM     25  C   UNL     1      39.071 -28.949 -15.498  0.00  0.00    +0.126 C 
ATOM     26  C   UNL     1      39.870 -27.098 -14.084  0.00  0.00    +0.126 C 
ATOM     27  C   UNL     1      40.563 -26.531 -15.317  0.00  0.00    +0.164 C 
ATOM     28  C   UNL     1      39.787 -28.297 -16.671  0.00  0.00    +0.164 C 
ATOM     29  C   UNL     1      37.461 -27.917 -13.930  0.00  0.00    +0.265 C 
ENDBRANCH   3  29
TORSDOF 2
ENDMDL
MODEL 7
REMARK VINA RESULT:      -9.6      3.127      5.444
REMARK  Name = 70798655
REMARK  2 active torsions:
REMARK  status: ('A' for Active; 'I' for Inactive)
REMARK    1  A    between atoms: C_3  and  C_29
REMARK    2  A    between atoms: C_5  and  C_13
REMARK                            x       y       z     vdW  Elec       q    Type
REMARK                         _______ _______ _______ _____ _____    ______ ____
ROOT
ATOM      1  N   UNL     1      32.077 -23.505 -14.478  0.00  0.00    -0.245 N 
ATOM      2  N   UNL     1      32.173 -24.917 -12.747  0.00  0.00    -0.227 NA
ATOM      3  C   UNL     1      30.859 -23.434 -13.850  0.00  0.00    +0.130 C 
ATOM      4  C   UNL     1      32.842 -24.422 -13.768  0.00  0.00    +0.139 C 
ATOM      5  C   UNL     1      33.781 -23.048 -16.063  0.00  0.00    +0.012 C 
ATOM      6  C   UNL     1      32.529 -22.825 -15.606  0.00  0.00    +0.071 C 
ATOM      7  C   UNL     1      30.944 -24.309 -12.793  0.00  0.00    +0.120 C 
ATOM      8  C   UNL     1      34.163 -24.662 -14.240  0.00  0.00    +0.035 C 
ATOM      9  C   UNL     1      34.611 -24.009 -15.330  0.00  0.00    +0.004 C 
ENDROOT
BRANCH   5  13
ATOM     10  O   UNL     1      35.385 -20.272 -20.601  0.00  0.00    -0.414 OA
ATOM     11  N   UNL     1      33.147 -20.519 -20.336  0.00  0.00    -0.356 NA
ATOM     12  N   UNL     1      34.056 -19.349 -22.232  0.00  0.00    -0.302 N 
ATOM     13  C   UNL     1      34.256 -22.318 -17.254  0.00  0.00    -0.014 C 
ATOM     14  C   UNL     1      33.320 -21.808 -18.166  0.00  0.00    +0.089 C 
ATOM     15  C   UNL     1      35.632 -22.145 -17.453  0.00  0.00    -0.001 C 
ATOM     16  C   UNL     1      33.802 -21.119 -19.288  0.00  0.00    +0.152 C 
ATOM     17  C   UNL     1      35.172 -20.971 -19.447  0.00  0.00    +0.175 C 
ATOM     18  C   UNL     1      36.129 -21.459 -18.567  0.00  0.00    +0.040 C 
ATOM     19  C   UNL     1      34.127 -20.040 -21.071  0.00  0.00    +0.341 C 
ATOM     20  H   UNL     1      34.881 -19.050 -22.678  0.00  0.00    +0.148 HD
ATOM     21  H   UNL     1      33.179 -19.145 -22.630  0.00  0.00    +0.148 HD
ENDBRANCH   5  13
BRANCH   3  29
ATOM     22  O   UNL     1      27.172 -23.904 -17.275  0.00  0.00    -0.350 OA
ATOM     23  O   UNL     1      29.732 -21.434 -13.834  0.00  0.00    -0.268 OA
ATOM     24  N   UNL     1      28.732 -23.159 -15.051  0.00  0.00    -0.270 N 
ATOM     25  C   UNL     1      27.582 -22.355 -15.462  0.00  0.00    +0.126 C 
ATOM     26  C   UNL     1      28.680 -24.559 -15.489  0.00  0.00    +0.126 C 
ATOM     27  C   UNL     1      28.365 -24.635 -16.977  0.00  0.00    +0.164 C 
ATOM     28  C   UNL     1      27.325 -22.519 -16.953  0.00  0.00    +0.164 C 
ATOM     29  C   UNL     1      29.724 -22.591 -14.249  0.00  0.00    +0.265 C 
ENDBRANCH   3  29
TORSDOF 2
ENDMDL
MODEL 8
REMARK VINA RESULT:      -9.4     11.213     16.323
REMARK  Name = 70798655
REMARK  2 active torsions:
REMARK  status: ('A' for Active; 'I' for Inactive)
REMARK    1  A    between atoms: C_3  and  C_29
REMARK    2  A    between atoms: C_5  and  C_13
REMARK                            x       y       z     vdW  Elec       q    Type
REMARK                         _______ _______ _______ _____ _____    ______ ____
ROOT
ATOM      1  N   UNL     1      32.866  -8.596 -21.645  0.00  0.00    -0.245 N 
ATOM      2  N   UNL     1      31.875  -7.532 -19.946  0.00  0.00    -0.227 NA
ATOM      3  C   UNL     1      33.263  -7.285 -21.722  0.00  0.00    +0.130 C 
ATOM      4  C   UNL     1      32.022  -8.695 -20.545  0.00  0.00    +0.139 C 
ATOM      5  C   UNL     1      32.691 -10.893 -22.207  0.00  0.00    +0.012 C 
ATOM      6  C   UNL     1      33.201  -9.669 -22.466  0.00  0.00    +0.071 C 
ATOM      7  C   UNL     1      32.641  -6.654 -20.671  0.00  0.00    +0.120 C 
ATOM      8  C   UNL     1      31.482  -9.981 -20.263  0.00  0.00    +0.035 C 
ATOM      9  C   UNL     1      31.798 -11.027 -21.050  0.00  0.00    +0.004 C 
ENDROOT
BRANCH   5  13
ATOM     10  O   UNL     1      34.089 -15.275 -25.323  0.00  0.00    -0.414 OA
ATOM     11  N   UNL     1      34.094 -15.617 -23.082  0.00  0.00    -0.356 NA
ATOM     12  N   UNL     1      34.668 -17.382 -24.614  0.00  0.00    -0.302 N 
ATOM     13  C   UNL     1      33.056 -12.027 -23.077  0.00  0.00    -0.014 C 
ATOM     14  C   UNL     1      33.387 -13.260 -22.495  0.00  0.00    +0.089 C 
ATOM     15  C   UNL     1      33.065 -11.855 -24.468  0.00  0.00    -0.001 C 
ATOM     16  C   UNL     1      33.729 -14.320 -23.347  0.00  0.00    +0.152 C 
ATOM     17  C   UNL     1      33.726 -14.106 -24.718  0.00  0.00    +0.175 C 
ATOM     18  C   UNL     1      33.404 -12.902 -25.331  0.00  0.00    +0.040 C 
ATOM     19  C   UNL     1      34.291 -16.127 -24.279  0.00  0.00    +0.341 C 
ATOM     20  H   UNL     1      34.778 -17.627 -25.561  0.00  0.00    +0.148 HD
ATOM     21  H   UNL     1      34.831 -18.051 -23.910  0.00  0.00    +0.148 HD
ENDBRANCH   5  13
BRANCH   3  29
ATOM     22  O   UNL     1      32.562  -4.381 -25.800  0.00  0.00    -0.350 OA
ATOM     23  O   UNL     1      35.311  -7.145 -22.750  0.00  0.00    -0.268 OA
ATOM     24  N   UNL     1      33.657  -5.717 -23.574  0.00  0.00    -0.270 N 
ATOM     25  C   UNL     1      34.523  -5.112 -24.585  0.00  0.00    +0.126 C 
ATOM     26  C   UNL     1      32.309  -5.139 -23.507  0.00  0.00    +0.126 C 
ATOM     27  C   UNL     1      31.694  -5.074 -24.900  0.00  0.00    +0.164 C 
ATOM     28  C   UNL     1      33.813  -5.060 -25.930  0.00  0.00    +0.164 C 
ATOM     29  C   UNL     1      34.162  -6.708 -22.731  0.00  0.00    +0.265 C 
ENDBRANCH   3  29
TORSDOF 2
ENDMDL
MODEL 9
REMARK VINA RESULT:      -9.1      2.963      4.675
REMARK  Name = 70798655
REMARK  2 active torsions:
REMARK  status: ('A' for Active; 'I' for Inactive)
REMARK    1  A    between atoms: C_3  and  C_29
REMARK    2  A    between atoms: C_5  and  C_13
REMARK                            x       y       z     vdW  Elec       q    Type
REMARK                         _______ _______ _______ _____ _____    ______ ____
ROOT
ATOM      1  N   UNL     1      34.711 -22.474 -16.982  0.00  0.00    -0.245 N 
ATOM      2  N   UNL     1      36.040 -23.347 -15.410  0.00  0.00    -0.227 NA
ATOM      3  C   UNL     1      33.899 -23.192 -16.141  0.00  0.00    +0.130 C 
ATOM      4  C   UNL     1      36.006 -22.599 -16.493  0.00  0.00    +0.139 C 
ATOM      5  C   UNL     1      35.346 -21.100 -18.808  0.00  0.00    +0.012 C 
ATOM      6  C   UNL     1      34.377 -21.740 -18.117  0.00  0.00    +0.071 C 
ATOM      7  C   UNL     1      34.738 -23.718 -15.187  0.00  0.00    +0.120 C 
ATOM      8  C   UNL     1      37.033 -21.927 -17.213  0.00  0.00    +0.035 C 
ATOM      9  C   UNL     1      36.722 -21.214 -18.313  0.00  0.00    +0.004 C 
ENDROOT
BRANCH   5  13
ATOM     10  O   UNL     1      34.151 -18.057 -23.300  0.00  0.00    -0.414 OA
ATOM     11  N   UNL     1      36.126 -17.590 -22.289  0.00  0.00    -0.356 NA
ATOM     12  N   UNL     1      35.415 -16.390 -24.251  0.00  0.00    -0.302 N 
ATOM     13  C   UNL     1      34.984 -20.318 -20.005  0.00  0.00    -0.014 C 
ATOM     14  C   UNL     1      35.862 -19.328 -20.470  0.00  0.00    +0.089 C 
ATOM     15  C   UNL     1      33.771 -20.577 -20.657  0.00  0.00    -0.001 C 
ATOM     16  C   UNL     1      35.491 -18.601 -21.611  0.00  0.00    +0.152 C 
ATOM     17  C   UNL     1      34.281 -18.889 -22.226  0.00  0.00    +0.175 C 
ATOM     18  C   UNL     1      33.387 -19.861 -21.796  0.00  0.00    +0.040 C 
ATOM     19  C   UNL     1      35.293 -17.313 -23.269  0.00  0.00    +0.341 C 
ATOM     20  H   UNL     1      34.704 -16.292 -24.925  0.00  0.00    +0.148 HD
ATOM     21  H   UNL     1      36.214 -15.817 -24.290  0.00  0.00    +0.148 HD
ENDBRANCH   5  13
BRANCH   3  29
ATOM     22  O   UNL     1      30.289 -24.963 -13.078  0.00  0.00    -0.350 OA
ATOM     23  O   UNL     1      31.974 -23.216 -17.392  0.00  0.00    -0.268 OA
ATOM     24  N   UNL     1      31.711 -23.621 -15.107  0.00  0.00    -0.270 N 
ATOM     25  C   UNL     1      30.259 -23.774 -15.186  0.00  0.00    +0.126 C 
ATOM     26  C   UNL     1      32.256 -23.706 -13.746  0.00  0.00    +0.126 C 
ATOM     27  C   UNL     1      31.718 -24.944 -13.039  0.00  0.00    +0.164 C 
ATOM     28  C   UNL     1      29.814 -25.015 -14.426  0.00  0.00    +0.164 C 
ATOM     29  C   UNL     1      32.444 -23.348 -16.263  0.00  0.00    +0.265 C 
ENDBRANCH   3  29
TORSDOF 2
ENDMDL
