MODEL 1
REMARK VINA RESULT:     -12.4      0.000      0.000
REMARK  Name = 446805
REMARK  6 active torsions:
REMARK  status: ('A' for Active; 'I' for Inactive)
REMARK    1  A    between atoms: C_4  and  C_22
REMARK    2  A    between atoms: C_7  and  N_11
REMARK    3  A    between atoms: N_11  and  S_13
REMARK    4  A    between atoms: S_13  and  C_16
REMARK    5  A    between atoms: C_22  and  C_23
REMARK    6  A    between atoms: C_28  and  C_31
REMARK                            x       y       z     vdW  Elec       q    Type
REMARK                         _______ _______ _______ _____ _____    ______ ____
ROOT
ATOM      1  N   UNL     1      35.868 -19.059 -21.734  0.00  0.00    -0.262 N 
ATOM      2  N   UNL     1      33.686 -19.050 -22.158  0.00  0.00    -0.394 NA
ATOM      3  C   UNL     1      35.304 -19.848 -20.765  0.00  0.00    +0.079 C 
ATOM      4  C   UNL     1      34.862 -18.606 -22.541  0.00  0.00    +0.168 C 
ATOM      5  C   UNL     1      33.942 -19.828 -21.052  0.00  0.00    +0.129 C 
ATOM      6  C   UNL     1      33.058 -20.552 -20.233  0.00  0.00    +0.103 C 
ATOM      7  C   UNL     1      33.586 -21.271 -19.153  0.00  0.00    +0.050 C 
ATOM      8  C   UNL     1      35.852 -20.558 -19.696  0.00  0.00    +0.018 C 
ATOM      9  C   UNL     1      37.275 -18.760 -21.873  0.00  0.00    +0.119 C 
ATOM     10  C   UNL     1      34.958 -21.273 -18.892  0.00  0.00    +0.013 C 
ENDROOT
BRANCH   7  11
ATOM     11  N   UNL     1      32.706 -22.013 -18.308  0.00  0.00    -0.219 N 
ATOM     12  H   UNL     1      31.732 -21.866 -18.318  0.00  0.00    +0.173 HD
BRANCH  11  13
ATOM     13  S   UNL     1      33.438 -23.191 -17.261  0.00  0.00    +0.073 S 
ATOM     14  O   UNL     1      34.713 -22.687 -16.790  0.00  0.00    -0.150 OA
ATOM     15  O   UNL     1      33.346 -24.501 -17.878  0.00  0.00    -0.150 OA
BRANCH  13  16
ATOM     16  C   UNL     1      32.322 -23.193 -15.888  0.00  0.00    +0.125 C 
ATOM     17  C   UNL     1      32.832 -23.309 -14.606  0.00  0.00    +0.020 C 
ATOM     18  C   UNL     1      30.964 -23.079 -16.122  0.00  0.00    +0.020 C 
ATOM     19  C   UNL     1      31.952 -23.310 -13.523  0.00  0.00    +0.001 C 
ATOM     20  C   UNL     1      30.084 -23.081 -15.039  0.00  0.00    +0.001 C 
ATOM     21  C   UNL     1      30.578 -23.196 -13.740  0.00  0.00    +0.000 C 
ENDBRANCH  13  16
ENDBRANCH  11  13
ENDBRANCH   7  11
BRANCH   4  22
ATOM     22  C   UNL     1      35.119 -17.721 -23.697  0.00  0.00    +0.101 C 
BRANCH  22  23
ATOM     23  C   UNL     1      34.680 -16.279 -23.479  0.00  0.00    -0.014 C 
ATOM     24  C   UNL     1      34.953 -15.675 -22.269  0.00  0.00    -0.004 C 
ATOM     25  C   UNL     1      34.023 -15.622 -24.499  0.00  0.00    -0.004 C 
ATOM     26  C   UNL     1      34.550 -14.354 -22.070  0.00  0.00    +0.002 C 
ATOM     27  C   UNL     1      33.621 -14.301 -24.300  0.00  0.00    +0.002 C 
ATOM     28  C   UNL     1      33.885 -13.668 -23.085  0.00  0.00    +0.031 C 
BRANCH  28  31
ATOM     29  N   UNL     1      34.090 -11.235 -23.537  0.00  0.00    -0.343 N 
ATOM     30  N   UNL     1      32.473 -12.023 -22.046  0.00  0.00    -0.285 NA
ATOM     31  C   UNL     1      33.464 -12.291 -22.877  0.00  0.00    +0.117 C 
ATOM     32  H   UNL     1      33.789 -10.310 -23.381  0.00  0.00    +0.144 HD
ATOM     33  H   UNL     1      34.832 -11.412 -24.159  0.00  0.00    +0.144 HD
ATOM     34  H   UNL     1      32.187 -11.092 -21.903  0.00  0.00    +0.188 HD
ENDBRANCH  28  31
ENDBRANCH  22  23
ENDBRANCH   4  22
TORSDOF 6
ENDMDL
MODEL 2
REMARK VINA RESULT:     -12.2      3.300      9.686
REMARK  Name = 446805
REMARK  6 active torsions:
REMARK  status: ('A' for Active; 'I' for Inactive)
REMARK    1  A    between atoms: C_4  and  C_22
REMARK    2  A    between atoms: C_7  and  N_11
REMARK    3  A    between atoms: N_11  and  S_13
REMARK    4  A    between atoms: S_13  and  C_16
REMARK    5  A    between atoms: C_22  and  C_23
REMARK    6  A    between atoms: C_28  and  C_31
REMARK                            x       y       z     vdW  Elec       q    Type
REMARK                         _______ _______ _______ _____ _____    ______ ____
ROOT
ATOM      1  N   UNL     1      33.992 -22.780 -16.834  0.00  0.00    -0.262 N 
ATOM      2  N   UNL     1      32.146 -22.159 -17.904  0.00  0.00    -0.394 NA
ATOM      3  C   UNL     1      34.423 -22.050 -17.912  0.00  0.00    +0.079 C 
ATOM      4  C   UNL     1      32.627 -22.817 -16.873  0.00  0.00    +0.168 C 
ATOM      5  C   UNL     1      33.252 -21.672 -18.564  0.00  0.00    +0.129 C 
ATOM      6  C   UNL     1      33.337 -20.897 -19.732  0.00  0.00    +0.103 C 
ATOM      7  C   UNL     1      34.606 -20.531 -20.200  0.00  0.00    +0.050 C 
ATOM      8  C   UNL     1      35.696 -21.695 -18.358  0.00  0.00    +0.018 C 
ATOM      9  C   UNL     1      34.837 -23.400 -15.838  0.00  0.00    +0.119 C 
ATOM     10  C   UNL     1      35.763 -20.924 -19.523  0.00  0.00    +0.013 C 
ENDROOT
BRANCH   7  11
ATOM     11  N   UNL     1      34.717 -19.743 -21.386  0.00  0.00    -0.219 N 
ATOM     12  H   UNL     1      34.165 -19.927 -22.182  0.00  0.00    +0.173 HD
BRANCH  11  13
ATOM     13  S   UNL     1      35.869 -18.444 -21.358  0.00  0.00    +0.073 S 
ATOM     14  O   UNL     1      37.133 -18.913 -21.893  0.00  0.00    -0.150 OA
ATOM     15  O   UNL     1      35.816 -17.788 -20.065  0.00  0.00    -0.150 OA
BRANCH  13  16
ATOM     16  C   UNL     1      35.174 -17.320 -22.532  0.00  0.00    +0.125 C 
ATOM     17  C   UNL     1      34.664 -17.816 -23.720  0.00  0.00    +0.020 C 
ATOM     18  C   UNL     1      35.152 -15.968 -22.240  0.00  0.00    +0.020 C 
ATOM     19  C   UNL     1      34.115 -16.929 -24.646  0.00  0.00    +0.001 C 
ATOM     20  C   UNL     1      34.602 -15.081 -23.166  0.00  0.00    +0.001 C 
ATOM     21  C   UNL     1      34.084 -15.561 -24.369  0.00  0.00    +0.000 C 
ENDBRANCH  13  16
ENDBRANCH  11  13
ENDBRANCH   7  11
BRANCH   4  22
ATOM     22  C   UNL     1      31.830 -23.528 -15.852  0.00  0.00    +0.101 C 
BRANCH  22  23
ATOM     23  C   UNL     1      30.366 -23.109 -15.811  0.00  0.00    -0.014 C 
ATOM     24  C   UNL     1      29.537 -23.479 -16.850  0.00  0.00    -0.004 C 
ATOM     25  C   UNL     1      29.914 -22.373 -14.735  0.00  0.00    -0.004 C 
ATOM     26  C   UNL     1      28.196 -23.096 -16.812  0.00  0.00    +0.002 C 
ATOM     27  C   UNL     1      28.574 -21.989 -14.697  0.00  0.00    +0.002 C 
ATOM     28  C   UNL     1      27.715 -22.351 -15.735  0.00  0.00    +0.031 C 
BRANCH  28  31
ATOM     29  N   UNL     1      25.740 -21.228 -16.739  0.00  0.00    -0.343 N 
ATOM     30  N   UNL     1      25.570 -22.270 -14.654  0.00  0.00    -0.285 NA
ATOM     31  C   UNL     1      26.317 -21.951 -15.696  0.00  0.00    +0.117 C 
ATOM     32  H   UNL     1      24.792 -20.967 -16.691  0.00  0.00    +0.144 HD
ATOM     33  H   UNL     1      26.280 -20.978 -17.523  0.00  0.00    +0.144 HD
ATOM     34  H   UNL     1      24.624 -22.001 -14.624  0.00  0.00    +0.188 HD
ENDBRANCH  28  31
ENDBRANCH  22  23
ENDBRANCH   4  22
TORSDOF 6
ENDMDL
MODEL 3
REMARK VINA RESULT:     -12.0      3.673      6.681
REMARK  Name = 446805
REMARK  6 active torsions:
REMARK  status: ('A' for Active; 'I' for Inactive)
REMARK    1  A    between atoms: C_4  and  C_22
REMARK    2  A    between atoms: C_7  and  N_11
REMARK    3  A    between atoms: N_11  and  S_13
REMARK    4  A    between atoms: S_13  and  C_16
REMARK    5  A    between atoms: C_22  and  C_23
REMARK    6  A    between atoms: C_28  and  C_31
REMARK                            x       y       z     vdW  Elec       q    Type
REMARK                         _______ _______ _______ _____ _____    ______ ____
ROOT
ATOM      1  N   UNL     1      33.761 -13.231 -24.774  0.00  0.00    -0.262 N 
ATOM      2  N   UNL     1      34.117 -12.464 -22.719  0.00  0.00    -0.394 NA
ATOM      3  C   UNL     1      34.114 -14.327 -24.031  0.00  0.00    +0.079 C 
ATOM      4  C   UNL     1      33.777 -12.143 -23.947  0.00  0.00    +0.168 C 
ATOM      5  C   UNL     1      34.330 -13.824 -22.752  0.00  0.00    +0.129 C 
ATOM      6  C   UNL     1      34.714 -14.702 -21.724  0.00  0.00    +0.103 C 
ATOM      7  C   UNL     1      34.865 -16.061 -22.029  0.00  0.00    +0.050 C 
ATOM      8  C   UNL     1      34.258 -15.677 -24.357  0.00  0.00    +0.018 C 
ATOM      9  C   UNL     1      33.433 -13.230 -26.182  0.00  0.00    +0.119 C 
ATOM     10  C   UNL     1      34.640 -16.538 -23.323  0.00  0.00    +0.013 C 
ENDROOT
BRANCH   7  11
ATOM     11  N   UNL     1      35.255 -16.972 -21.001  0.00  0.00    -0.219 N 
ATOM     12  H   UNL     1      35.064 -16.792 -20.051  0.00  0.00    +0.173 HD
BRANCH  11  13
ATOM     13  S   UNL     1      36.082 -18.414 -21.506  0.00  0.00    +0.073 S 
ATOM     14  O   UNL     1      37.461 -18.357 -21.063  0.00  0.00    -0.150 OA
ATOM     15  O   UNL     1      35.766 -18.681 -22.897  0.00  0.00    -0.150 OA
BRANCH  13  16
ATOM     16  C   UNL     1      35.261 -19.653 -20.548  0.00  0.00    +0.125 C 
ATOM     17  C   UNL     1      33.879 -19.722 -20.577  0.00  0.00    +0.020 C 
ATOM     18  C   UNL     1      36.016 -20.529 -19.789  0.00  0.00    +0.020 C 
ATOM     19  C   UNL     1      33.232 -20.701 -19.822  0.00  0.00    +0.001 C 
ATOM     20  C   UNL     1      35.369 -21.507 -19.034  0.00  0.00    +0.001 C 
ATOM     21  C   UNL     1      33.977 -21.593 -19.050  0.00  0.00    +0.000 C 
ENDBRANCH  13  16
ENDBRANCH  11  13
ENDBRANCH   7  11
BRANCH   4  22
ATOM     22  C   UNL     1      33.443 -10.786 -24.426  0.00  0.00    +0.101 C 
BRANCH  22  23
ATOM     23  C   UNL     1      33.235  -9.771 -23.309  0.00  0.00    -0.014 C 
ATOM     24  C   UNL     1      32.216  -9.977 -22.403  0.00  0.00    -0.004 C 
ATOM     25  C   UNL     1      34.073  -8.677 -23.239  0.00  0.00    -0.004 C 
ATOM     26  C   UNL     1      32.025  -9.048 -21.380  0.00  0.00    +0.002 C 
ATOM     27  C   UNL     1      33.882  -7.747 -22.217  0.00  0.00    +0.002 C 
ATOM     28  C   UNL     1      32.858  -7.933 -21.288  0.00  0.00    +0.031 C 
BRANCH  28  31
ATOM     29  N   UNL     1      31.715  -5.945 -20.336  0.00  0.00    -0.343 N 
ATOM     30  N   UNL     1      33.385  -7.038 -19.121  0.00  0.00    -0.285 NA
ATOM     31  C   UNL     1      32.659  -6.963 -20.222  0.00  0.00    +0.117 C 
ATOM     32  H   UNL     1      31.597  -5.299 -19.602  0.00  0.00    +0.144 HD
ATOM     33  H   UNL     1      31.165  -5.871 -21.149  0.00  0.00    +0.144 HD
ATOM     34  H   UNL     1      33.253  -6.383 -18.398  0.00  0.00    +0.188 HD
ENDBRANCH  28  31
ENDBRANCH  22  23
ENDBRANCH   4  22
TORSDOF 6
ENDMDL
MODEL 4
REMARK VINA RESULT:     -11.9      4.254      7.624
REMARK  Name = 446805
REMARK  6 active torsions:
REMARK  status: ('A' for Active; 'I' for Inactive)
REMARK    1  A    between atoms: C_4  and  C_22
REMARK    2  A    between atoms: C_7  and  N_11
REMARK    3  A    between atoms: N_11  and  S_13
REMARK    4  A    between atoms: S_13  and  C_16
REMARK    5  A    between atoms: C_22  and  C_23
REMARK    6  A    between atoms: C_28  and  C_31
REMARK                            x       y       z     vdW  Elec       q    Type
REMARK                         _______ _______ _______ _____ _____    ______ ____
ROOT
ATOM      1  N   UNL     1      32.536 -23.081 -16.028  0.00  0.00    -0.262 N 
ATOM      2  N   UNL     1      34.653 -23.354 -16.647  0.00  0.00    -0.394 NA
ATOM      3  C   UNL     1      33.202 -23.465 -14.893  0.00  0.00    +0.079 C 
ATOM      4  C   UNL     1      33.444 -23.030 -17.048  0.00  0.00    +0.168 C 
ATOM      5  C   UNL     1      34.521 -23.629 -15.304  0.00  0.00    +0.129 C 
ATOM      6  C   UNL     1      35.489 -24.026 -14.366  0.00  0.00    +0.103 C 
ATOM      7  C   UNL     1      35.084 -24.244 -13.043  0.00  0.00    +0.050 C 
ATOM      8  C   UNL     1      32.777 -23.675 -13.580  0.00  0.00    +0.018 C 
ATOM      9  C   UNL     1      31.124 -22.786 -16.125  0.00  0.00    +0.119 C 
ATOM     10  C   UNL     1      33.752 -24.071 -12.659  0.00  0.00    +0.013 C 
ENDROOT
BRANCH   7  11
ATOM     11  N   UNL     1      36.050 -24.650 -12.071  0.00  0.00    -0.219 N 
ATOM     12  H   UNL     1      35.819 -25.267 -11.339  0.00  0.00    +0.173 HD
BRANCH  11  13
ATOM     13  S   UNL     1      37.653 -24.005 -12.247  0.00  0.00    +0.073 S 
ATOM     14  O   UNL     1      38.230 -23.791 -10.934  0.00  0.00    -0.150 OA
ATOM     15  O   UNL     1      37.631 -22.933 -13.225  0.00  0.00    -0.150 OA
BRANCH  13  16
ATOM     16  C   UNL     1      38.508 -25.362 -12.993  0.00  0.00    +0.125 C 
ATOM     17  C   UNL     1      37.952 -26.628 -12.924  0.00  0.00    +0.020 C 
ATOM     18  C   UNL     1      39.712 -25.131 -13.632  0.00  0.00    +0.020 C 
ATOM     19  C   UNL     1      38.626 -27.698 -13.513  0.00  0.00    +0.001 C 
ATOM     20  C   UNL     1      40.386 -26.201 -14.222  0.00  0.00    +0.001 C 
ATOM     21  C   UNL     1      39.843 -27.485 -14.162  0.00  0.00    +0.000 C 
ENDBRANCH  13  16
ENDBRANCH  11  13
ENDBRANCH   7  11
BRANCH   4  22
ATOM     22  C   UNL     1      33.062 -22.648 -18.423  0.00  0.00    +0.101 C 
BRANCH  22  23
ATOM     23  C   UNL     1      34.011 -21.649 -19.073  0.00  0.00    -0.014 C 
ATOM     24  C   UNL     1      35.366 -21.776 -18.851  0.00  0.00    -0.004 C 
ATOM     25  C   UNL     1      33.485 -20.647 -19.862  0.00  0.00    -0.004 C 
ATOM     26  C   UNL     1      36.236 -20.862 -19.446  0.00  0.00    +0.002 C 
ATOM     27  C   UNL     1      34.353 -19.732 -20.457  0.00  0.00    +0.002 C 
ATOM     28  C   UNL     1      35.729 -19.840 -20.249  0.00  0.00    +0.031 C 
BRANCH  28  31
ATOM     29  N   UNL     1      36.458 -18.470 -22.187  0.00  0.00    -0.343 N 
ATOM     30  N   UNL     1      37.650 -18.398 -20.178  0.00  0.00    -0.285 NA
ATOM     31  C   UNL     1      36.635 -18.885 -20.868  0.00  0.00    +0.117 C 
ATOM     32  H   UNL     1      37.084 -17.822 -22.586  0.00  0.00    +0.144 HD
ATOM     33  H   UNL     1      35.709 -18.822 -22.719  0.00  0.00    +0.144 HD
ATOM     34  H   UNL     1      38.265 -17.752 -20.595  0.00  0.00    +0.188 HD
ENDBRANCH  28  31
ENDBRANCH  22  23
ENDBRANCH   4  22
TORSDOF 6
ENDMDL
MODEL 5
REMARK VINA RESULT:     -11.7      4.295      9.986
REMARK  Name = 446805
REMARK  6 active torsions:
REMARK  status: ('A' for Active; 'I' for Inactive)
REMARK    1  A    between atoms: C_4  and  C_22
REMARK    2  A    between atoms: C_7  and  N_11
REMARK    3  A    between atoms: N_11  and  S_13
REMARK    4  A    between atoms: S_13  and  C_16
REMARK    5  A    between atoms: C_22  and  C_23
REMARK    6  A    between atoms: C_28  and  C_31
REMARK                            x       y       z     vdW  Elec       q    Type
REMARK                         _______ _______ _______ _____ _____    ______ ____
ROOT
ATOM      1  N   UNL     1      34.988 -17.492 -23.247  0.00  0.00    -0.262 N 
ATOM      2  N   UNL     1      35.577 -16.635 -21.283  0.00  0.00    -0.394 NA
ATOM      3  C   UNL     1      34.491 -16.214 -23.242  0.00  0.00    +0.079 C 
ATOM      4  C   UNL     1      35.627 -17.696 -22.057  0.00  0.00    +0.168 C 
ATOM      5  C   UNL     1      34.873 -15.700 -22.006  0.00  0.00    +0.129 C 
ATOM      6  C   UNL     1      34.516 -14.382 -21.672  0.00  0.00    +0.103 C 
ATOM      7  C   UNL     1      33.786 -13.632 -22.603  0.00  0.00    +0.050 C 
ATOM      8  C   UNL     1      33.765 -15.485 -24.184  0.00  0.00    +0.018 C 
ATOM      9  C   UNL     1      34.854 -18.450 -24.322  0.00  0.00    +0.119 C 
ATOM     10  C   UNL     1      33.418 -14.175 -23.836  0.00  0.00    +0.013 C 
ENDROOT
BRANCH   7  11
ATOM     11  N   UNL     1      33.412 -12.290 -22.284  0.00  0.00    -0.219 N 
ATOM     12  H   UNL     1      33.948 -11.520 -22.582  0.00  0.00    +0.173 HD
BRANCH  11  13
ATOM     13  S   UNL     1      31.963 -12.085 -21.348  0.00  0.00    +0.073 S 
ATOM     14  O   UNL     1      32.067 -12.860 -20.128  0.00  0.00    -0.150 OA
ATOM     15  O   UNL     1      30.810 -12.229 -22.216  0.00  0.00    -0.150 OA
BRANCH  13  16
ATOM     16  C   UNL     1      32.060 -10.375 -20.906  0.00  0.00    +0.125 C 
ATOM     17  C   UNL     1      32.293  -9.435 -21.896  0.00  0.00    +0.020 C 
ATOM     18  C   UNL     1      31.901 -10.010 -19.582  0.00  0.00    +0.020 C 
ATOM     19  C   UNL     1      32.369  -8.087 -21.548  0.00  0.00    +0.001 C 
ATOM     20  C   UNL     1      31.977  -8.661 -19.233  0.00  0.00    +0.001 C 
ATOM     21  C   UNL     1      32.211  -7.699 -20.216  0.00  0.00    +0.000 C 
ENDBRANCH  13  16
ENDBRANCH  11  13
ENDBRANCH   7  11
BRANCH   4  22
ATOM     22  C   UNL     1      36.282 -18.979 -21.726  0.00  0.00    +0.101 C 
BRANCH  22  23
ATOM     23  C   UNL     1      35.494 -19.840 -20.748  0.00  0.00    -0.014 C 
ATOM     24  C   UNL     1      36.182 -20.631 -19.852  0.00  0.00    -0.004 C 
ATOM     25  C   UNL     1      34.115 -19.802 -20.789  0.00  0.00    -0.004 C 
ATOM     26  C   UNL     1      35.459 -21.420 -18.956  0.00  0.00    +0.002 C 
ATOM     27  C   UNL     1      33.393 -20.591 -19.894  0.00  0.00    +0.002 C 
ATOM     28  C   UNL     1      34.065 -21.399 -18.977  0.00  0.00    +0.031 C 
BRANCH  28  31
ATOM     29  N   UNL     1      31.943 -22.036 -17.855  0.00  0.00    -0.343 N 
ATOM     30  N   UNL     1      33.927 -23.166 -17.354  0.00  0.00    -0.285 NA
ATOM     31  C   UNL     1      33.311 -22.222 -18.044  0.00  0.00    +0.117 C 
ATOM     32  H   UNL     1      31.453 -22.605 -17.217  0.00  0.00    +0.144 HD
ATOM     33  H   UNL     1      31.467 -21.336 -18.357  0.00  0.00    +0.144 HD
ATOM     34  H   UNL     1      33.419 -23.725 -16.722  0.00  0.00    +0.188 HD
ENDBRANCH  28  31
ENDBRANCH  22  23
ENDBRANCH   4  22
TORSDOF 6
ENDMDL
MODEL 6
REMARK VINA RESULT:     -11.6      3.904     10.483
REMARK  Name = 446805
REMARK  6 active torsions:
REMARK  status: ('A' for Active; 'I' for Inactive)
REMARK    1  A    between atoms: C_4  and  C_22
REMARK    2  A    between atoms: C_7  and  N_11
REMARK    3  A    between atoms: N_11  and  S_13
REMARK    4  A    between atoms: S_13  and  C_16
REMARK    5  A    between atoms: C_22  and  C_23
REMARK    6  A    between atoms: C_28  and  C_31
REMARK                            x       y       z     vdW  Elec       q    Type
REMARK                         _______ _______ _______ _____ _____    ______ ____
ROOT
ATOM      1  N   UNL     1      32.861 -22.368 -17.340  0.00  0.00    -0.262 N 
ATOM      2  N   UNL     1      35.055 -22.720 -17.355  0.00  0.00    -0.394 NA
ATOM      3  C   UNL     1      33.331 -21.699 -18.441  0.00  0.00    +0.079 C 
ATOM      4  C   UNL     1      33.927 -22.961 -16.725  0.00  0.00    +0.168 C 
ATOM      5  C   UNL     1      34.703 -21.935 -18.429  0.00  0.00    +0.129 C 
ATOM      6  C   UNL     1      35.503 -21.381 -19.443  0.00  0.00    +0.103 C 
ATOM      7  C   UNL     1      34.885 -20.608 -20.434  0.00  0.00    +0.050 C 
ATOM      8  C   UNL     1      32.695 -20.934 -19.418  0.00  0.00    +0.018 C 
ATOM      9  C   UNL     1      31.482 -22.430 -16.910  0.00  0.00    +0.119 C 
ATOM     10  C   UNL     1      33.505 -20.390 -20.420  0.00  0.00    +0.013 C 
ENDROOT
BRANCH   7  11
ATOM     11  N   UNL     1      35.679 -20.034 -21.473  0.00  0.00    -0.219 N 
ATOM     12  H   UNL     1      35.885 -20.530 -22.300  0.00  0.00    +0.173 HD
BRANCH  11  13
ATOM     13  S   UNL     1      36.262 -18.419 -21.210  0.00  0.00    +0.073 S 
ATOM     14  O   UNL     1      37.676 -18.363 -21.527  0.00  0.00    -0.150 OA
ATOM     15  O   UNL     1      35.775 -17.939 -19.931  0.00  0.00    -0.150 OA
BRANCH  13  16
ATOM     16  C   UNL     1      35.397 -17.516 -22.460  0.00  0.00    +0.125 C 
ATOM     17  C   UNL     1      34.812 -18.207 -23.508  0.00  0.00    +0.020 C 
ATOM     18  C   UNL     1      35.320 -16.139 -22.366  0.00  0.00    +0.020 C 
ATOM     19  C   UNL     1      34.129 -17.494 -24.493  0.00  0.00    +0.001 C 
ATOM     20  C   UNL     1      34.637 -15.426 -23.352  0.00  0.00    +0.001 C 
ATOM     21  C   UNL     1      34.041 -16.104 -24.415  0.00  0.00    +0.000 C 
ENDBRANCH  13  16
ENDBRANCH  11  13
ENDBRANCH   7  11
BRANCH   4  22
ATOM     22  C   UNL     1      33.777 -23.768 -15.496  0.00  0.00    +0.101 C 
BRANCH  22  23
ATOM     23  C   UNL     1      35.077 -23.971 -14.729  0.00  0.00    -0.014 C 
ATOM     24  C   UNL     1      35.621 -22.905 -14.044  0.00  0.00    -0.004 C 
ATOM     25  C   UNL     1      35.670 -25.217 -14.743  0.00  0.00    -0.004 C 
ATOM     26  C   UNL     1      36.812 -23.091 -13.341  0.00  0.00    +0.002 C 
ATOM     27  C   UNL     1      36.861 -25.404 -14.041  0.00  0.00    +0.002 C 
ATOM     28  C   UNL     1      37.431 -24.341 -13.340  0.00  0.00    +0.031 C 
BRANCH  28  31
ATOM     29  N   UNL     1      39.680 -25.366 -13.098  0.00  0.00    -0.343 N 
ATOM     30  N   UNL     1      38.860 -23.921 -11.454  0.00  0.00    -0.285 NA
ATOM     31  C   UNL     1      38.673 -24.536 -12.609  0.00  0.00    +0.117 C 
ATOM     32  H   UNL     1      40.513 -25.483 -12.585  0.00  0.00    +0.144 HD
ATOM     33  H   UNL     1      39.559 -25.835 -13.954  0.00  0.00    +0.144 HD
ATOM     34  H   UNL     1      39.699 -24.051 -10.957  0.00  0.00    +0.188 HD
ENDBRANCH  28  31
ENDBRANCH  22  23
ENDBRANCH   4  22
TORSDOF 6
ENDMDL
MODEL 7
REMARK VINA RESULT:     -11.5      4.245     10.409
REMARK  Name = 446805
REMARK  6 active torsions:
REMARK  status: ('A' for Active; 'I' for Inactive)
REMARK    1  A    between atoms: C_4  and  C_22
REMARK    2  A    between atoms: C_7  and  N_11
REMARK    3  A    between atoms: N_11  and  S_13
REMARK    4  A    between atoms: S_13  and  C_16
REMARK    5  A    between atoms: C_22  and  C_23
REMARK    6  A    between atoms: C_28  and  C_31
REMARK                            x       y       z     vdW  Elec       q    Type
REMARK                         _______ _______ _______ _____ _____    ______ ____
ROOT
ATOM      1  N   UNL     1      35.237 -18.738 -22.630  0.00  0.00    -0.262 N 
ATOM      2  N   UNL     1      35.747 -17.741 -20.710  0.00  0.00    -0.394 NA
ATOM      3  C   UNL     1      34.947 -17.411 -22.818  0.00  0.00    +0.079 C 
ATOM      4  C   UNL     1      35.712 -18.885 -21.357  0.00  0.00    +0.168 C 
ATOM      5  C   UNL     1      35.275 -16.810 -21.607  0.00  0.00    +0.129 C 
ATOM      6  C   UNL     1      35.094 -15.424 -21.458  0.00  0.00    +0.103 C 
ATOM      7  C   UNL     1      34.588 -14.697 -22.542  0.00  0.00    +0.050 C 
ATOM      8  C   UNL     1      34.443 -16.706 -23.912  0.00  0.00    +0.018 C 
ATOM      9  C   UNL     1      35.069 -19.790 -23.607  0.00  0.00    +0.119 C 
ATOM     10  C   UNL     1      34.270 -15.328 -23.747  0.00  0.00    +0.013 C 
ENDROOT
BRANCH   7  11
ATOM     11  N   UNL     1      34.396 -13.287 -22.413  0.00  0.00    -0.219 N 
ATOM     12  H   UNL     1      34.998 -12.731 -21.867  0.00  0.00    +0.173 HD
BRANCH  11  13
ATOM     13  S   UNL     1      33.049 -12.601 -23.268  0.00  0.00    +0.073 S 
ATOM     14  O   UNL     1      31.854 -12.719 -22.455  0.00  0.00    -0.150 OA
ATOM     15  O   UNL     1      33.058 -13.082 -24.637  0.00  0.00    -0.150 OA
BRANCH  13  16
ATOM     16  C   UNL     1      33.492 -10.889 -23.324  0.00  0.00    +0.125 C 
ATOM     17  C   UNL     1      34.578 -10.499 -24.089  0.00  0.00    +0.020 C 
ATOM     18  C   UNL     1      32.746  -9.976 -22.603  0.00  0.00    +0.020 C 
ATOM     19  C   UNL     1      34.927  -9.149 -24.134  0.00  0.00    +0.001 C 
ATOM     20  C   UNL     1      33.095  -8.625 -22.647  0.00  0.00    +0.001 C 
ATOM     21  C   UNL     1      34.185  -8.212 -23.412  0.00  0.00    +0.000 C 
ENDBRANCH  13  16
ENDBRANCH  11  13
ENDBRANCH   7  11
BRANCH   4  22
ATOM     22  C   UNL     1      36.123 -20.198 -20.818  0.00  0.00    +0.101 C 
BRANCH  22  23
ATOM     23  C   UNL     1      35.116 -20.811 -19.852  0.00  0.00    -0.014 C 
ATOM     24  C   UNL     1      35.576 -21.622 -18.836  0.00  0.00    -0.004 C 
ATOM     25  C   UNL     1      33.775 -20.535 -20.025  0.00  0.00    -0.004 C 
ATOM     26  C   UNL     1      34.654 -22.183 -17.952  0.00  0.00    +0.002 C 
ATOM     27  C   UNL     1      32.853 -21.096 -19.142  0.00  0.00    +0.002 C 
ATOM     28  C   UNL     1      33.293 -21.920 -18.106  0.00  0.00    +0.031 C 
BRANCH  28  31
ATOM     29  N   UNL     1      32.728 -23.405 -16.197  0.00  0.00    -0.343 N 
ATOM     30  N   UNL     1      31.052 -22.189 -17.280  0.00  0.00    -0.285 NA
ATOM     31  C   UNL     1      32.331 -22.506 -17.185  0.00  0.00    +0.117 C 
ATOM     32  H   UNL     1      32.059 -23.790 -15.585  0.00  0.00    +0.144 HD
ATOM     33  H   UNL     1      33.676 -23.656 -16.111  0.00  0.00    +0.144 HD
ATOM     34  H   UNL     1      30.399 -22.584 -16.658  0.00  0.00    +0.188 HD
ENDBRANCH  28  31
ENDBRANCH  22  23
ENDBRANCH   4  22
TORSDOF 6
ENDMDL
MODEL 8
REMARK VINA RESULT:     -10.9      4.567     11.036
REMARK  Name = 446805
REMARK  6 active torsions:
REMARK  status: ('A' for Active; 'I' for Inactive)
REMARK    1  A    between atoms: C_4  and  C_22
REMARK    2  A    between atoms: C_7  and  N_11
REMARK    3  A    between atoms: N_11  and  S_13
REMARK    4  A    between atoms: S_13  and  C_16
REMARK    5  A    between atoms: C_22  and  C_23
REMARK    6  A    between atoms: C_28  and  C_31
REMARK                            x       y       z     vdW  Elec       q    Type
REMARK                         _______ _______ _______ _____ _____    ______ ____
ROOT
ATOM      1  N   UNL     1      34.119 -22.723 -16.466  0.00  0.00    -0.262 N 
ATOM      2  N   UNL     1      36.301 -22.354 -16.671  0.00  0.00    -0.394 NA
ATOM      3  C   UNL     1      34.277 -22.136 -17.695  0.00  0.00    +0.079 C 
ATOM      4  C   UNL     1      35.356 -22.832 -15.894  0.00  0.00    +0.168 C 
ATOM      5  C   UNL     1      35.647 -21.917 -17.800  0.00  0.00    +0.129 C 
ATOM      6  C   UNL     1      36.158 -21.316 -18.964  0.00  0.00    +0.103 C 
ATOM      7  C   UNL     1      35.263 -20.960 -19.980  0.00  0.00    +0.050 C 
ATOM      8  C   UNL     1      33.367 -21.790 -18.694  0.00  0.00    +0.018 C 
ATOM      9  C   UNL     1      32.867 -23.147 -15.883  0.00  0.00    +0.119 C 
ATOM     10  C   UNL     1      33.892 -21.194 -19.846  0.00  0.00    +0.013 C 
ENDROOT
BRANCH   7  11
ATOM     11  N   UNL     1      35.760 -20.348 -21.171  0.00  0.00    -0.219 N 
ATOM     12  H   UNL     1      35.833 -20.847 -22.017  0.00  0.00    +0.173 HD
BRANCH  11  13
ATOM     13  S   UNL     1      36.226 -18.678 -21.055  0.00  0.00    +0.073 S 
ATOM     14  O   UNL     1      37.647 -18.559 -21.316  0.00  0.00    -0.150 OA
ATOM     15  O   UNL     1      35.647 -18.103 -19.855  0.00  0.00    -0.150 OA
BRANCH  13  16
ATOM     16  C   UNL     1      35.367 -17.969 -22.429  0.00  0.00    +0.125 C 
ATOM     17  C   UNL     1      35.427 -16.601 -22.627  0.00  0.00    +0.020 C 
ATOM     18  C   UNL     1      34.654 -18.796 -23.278  0.00  0.00    +0.020 C 
ATOM     19  C   UNL     1      34.750 -16.041 -23.712  0.00  0.00    +0.001 C 
ATOM     20  C   UNL     1      33.977 -18.237 -24.363  0.00  0.00    +0.001 C 
ATOM     21  C   UNL     1      34.025 -16.859 -24.579  0.00  0.00    +0.000 C 
ENDBRANCH  13  16
ENDBRANCH  11  13
ENDBRANCH   7  11
BRANCH   4  22
ATOM     22  C   UNL     1      35.552 -23.424 -14.554  0.00  0.00    +0.101 C 
BRANCH  22  23
ATOM     23  C   UNL     1      36.623 -24.507 -14.510  0.00  0.00    -0.014 C 
ATOM     24  C   UNL     1      36.246 -25.824 -14.676  0.00  0.00    -0.004 C 
ATOM     25  C   UNL     1      37.936 -24.137 -14.306  0.00  0.00    -0.004 C 
ATOM     26  C   UNL     1      37.226 -26.816 -14.636  0.00  0.00    +0.002 C 
ATOM     27  C   UNL     1      38.916 -25.129 -14.265  0.00  0.00    +0.002 C 
ATOM     28  C   UNL     1      38.561 -26.468 -14.430  0.00  0.00    +0.031 C 
BRANCH  28  31
ATOM     29  N   UNL     1      39.264 -28.825 -14.088  0.00  0.00    -0.343 N 
ATOM     30  N   UNL     1      40.844 -27.191 -14.631  0.00  0.00    -0.285 NA
ATOM     31  C   UNL     1      39.583 -27.502 -14.387  0.00  0.00    +0.117 C 
ATOM     32  H   UNL     1      39.972 -29.509 -14.065  0.00  0.00    +0.144 HD
ATOM     33  H   UNL     1      38.331 -29.077 -13.901  0.00  0.00    +0.144 HD
ATOM     34  H   UNL     1      41.538 -27.889 -14.602  0.00  0.00    +0.188 HD
ENDBRANCH  28  31
ENDBRANCH  22  23
ENDBRANCH   4  22
TORSDOF 6
ENDMDL
MODEL 9
REMARK VINA RESULT:     -10.5      8.776     14.783
REMARK  Name = 446805
REMARK  6 active torsions:
REMARK  status: ('A' for Active; 'I' for Inactive)
REMARK    1  A    between atoms: C_4  and  C_22
REMARK    2  A    between atoms: C_7  and  N_11
REMARK    3  A    between atoms: N_11  and  S_13
REMARK    4  A    between atoms: S_13  and  C_16
REMARK    5  A    between atoms: C_22  and  C_23
REMARK    6  A    between atoms: C_28  and  C_31
REMARK                            x       y       z     vdW  Elec       q    Type
REMARK                         _______ _______ _______ _____ _____    ______ ____
ROOT
ATOM      1  N   UNL     1      31.947  -9.477 -20.176  0.00  0.00    -0.262 N 
ATOM      2  N   UNL     1      32.259 -10.047 -22.302  0.00  0.00    -0.394 NA
ATOM      3  C   UNL     1      32.266  -8.312 -20.824  0.00  0.00    +0.079 C 
ATOM      4  C   UNL     1      31.956 -10.484 -21.100  0.00  0.00    +0.168 C 
ATOM      5  C   UNL     1      32.455  -8.693 -22.149  0.00  0.00    +0.129 C 
ATOM      6  C   UNL     1      32.799  -7.719 -23.102  0.00  0.00    +0.103 C 
ATOM      7  C   UNL     1      32.939  -6.391 -22.677  0.00  0.00    +0.050 C 
ATOM      8  C   UNL     1      32.399  -6.996 -20.380  0.00  0.00    +0.018 C 
ATOM      9  C   UNL     1      31.656  -9.611 -18.766  0.00  0.00    +0.119 C 
ATOM     10  C   UNL     1      32.742  -6.038 -21.340  0.00  0.00    +0.013 C 
ENDROOT
BRANCH   7  11
ATOM     11  N   UNL     1      33.290  -5.384 -23.628  0.00  0.00    -0.219 N 
ATOM     12  H   UNL     1      34.176  -5.365 -24.058  0.00  0.00    +0.173 HD
BRANCH  11  13
ATOM     13  S   UNL     1      32.075  -4.196 -23.991  0.00  0.00    +0.073 S 
ATOM     14  O   UNL     1      32.279  -3.032 -23.151  0.00  0.00    -0.150 OA
ATOM     15  O   UNL     1      30.778  -4.843 -24.050  0.00  0.00    -0.150 OA
BRANCH  13  16
ATOM     16  C   UNL     1      32.499  -3.743 -25.647  0.00  0.00    +0.125 C 
ATOM     17  C   UNL     1      33.525  -4.416 -26.288  0.00  0.00    +0.020 C 
ATOM     18  C   UNL     1      31.796  -2.728 -26.269  0.00  0.00    +0.020 C 
ATOM     19  C   UNL     1      33.858  -4.059 -27.595  0.00  0.00    +0.001 C 
ATOM     20  C   UNL     1      32.129  -2.371 -27.576  0.00  0.00    +0.001 C 
ATOM     21  C   UNL     1      33.160  -3.037 -28.239  0.00  0.00    +0.000 C 
ENDBRANCH  13  16
ENDBRANCH  11  13
ENDBRANCH   7  11
BRANCH   4  22
ATOM     22  C   UNL     1      31.654 -11.885 -20.738  0.00  0.00    +0.101 C 
BRANCH  22  23
ATOM     23  C   UNL     1      32.571 -12.905 -21.401  0.00  0.00    -0.014 C 
ATOM     24  C   UNL     1      32.532 -13.043 -22.773  0.00  0.00    -0.004 C 
ATOM     25  C   UNL     1      33.412 -13.658 -20.608  0.00  0.00    -0.004 C 
ATOM     26  C   UNL     1      33.372 -13.978 -23.380  0.00  0.00    +0.002 C 
ATOM     27  C   UNL     1      34.251 -14.592 -21.215  0.00  0.00    +0.002 C 
ATOM     28  C   UNL     1      34.231 -14.752 -22.601  0.00  0.00    +0.031 C 
BRANCH  28  31
ATOM     29  N   UNL     1      35.808 -16.666 -22.481  0.00  0.00    -0.343 N 
ATOM     30  N   UNL     1      35.249 -15.728 -24.547  0.00  0.00    -0.285 NA
ATOM     31  C   UNL     1      35.106 -15.726 -23.233  0.00  0.00    +0.117 C 
ATOM     32  H   UNL     1      36.396 -17.316 -22.930  0.00  0.00    +0.144 HD
ATOM     33  H   UNL     1      35.718 -16.680 -21.501  0.00  0.00    +0.144 HD
ATOM     34  H   UNL     1      35.841 -16.386 -24.978  0.00  0.00    +0.188 HD
ENDBRANCH  28  31
ENDBRANCH  22  23
ENDBRANCH   4  22
TORSDOF 6
ENDMDL
