MODEL 1
REMARK VINA RESULT:     -12.3      0.000      0.000
REMARK  Name = 25174099
REMARK  5 active torsions:
REMARK  status: ('A' for Active; 'I' for Inactive)
REMARK    1  A    between atoms: C_5  and  C_33
REMARK    2  A    between atoms: C_14  and  C_18
REMARK    3  A    between atoms: N_17  and  C_20
REMARK    4  A    between atoms: C_20  and  C_24
REMARK    5  A    between atoms: C_33  and  C_36
REMARK                            x       y       z     vdW  Elec       q    Type
REMARK                         _______ _______ _______ _____ _____    ______ ____
ROOT
ATOM      1  S   UNL     1      32.196 -12.480 -20.506  0.00  0.00    -0.064 S 
ATOM      2  O   UNL     1      33.729 -10.662 -24.838  0.00  0.00    -0.274 OA
ATOM      3  N   UNL     1      33.208 -14.004 -22.461  0.00  0.00    -0.379 NA
ATOM      4  N   UNL     1      33.902 -12.940 -24.487  0.00  0.00    -0.255 N 
ATOM      5  C   UNL     1      32.613  -8.975 -22.441  0.00  0.00    +0.028 C 
ATOM      6  C   UNL     1      31.631  -8.132 -21.590  0.00  0.00    +0.005 C 
ATOM      7  C   UNL     1      32.582 -10.423 -22.014  0.00  0.00    -0.027 C 
ATOM      8  C   UNL     1      31.763  -8.420 -20.088  0.00  0.00    +0.006 C 
ATOM      9  C   UNL     1      31.474  -9.891 -19.762  0.00  0.00    +0.032 C 
ATOM     10  C   UNL     1      32.091 -10.804 -20.777  0.00  0.00    +0.002 C 
ATOM     11  C   UNL     1      33.021 -11.565 -22.762  0.00  0.00    +0.154 C 
ATOM     12  C   UNL     1      32.877 -12.747 -22.048  0.00  0.00    +0.152 C 
ATOM     13  C   UNL     1      33.575 -11.638 -24.111  0.00  0.00    +0.239 C 
ATOM     14  C   UNL     1      33.706 -14.035 -23.658  0.00  0.00    +0.240 C 
ATOM     15  H   UNL     1      34.289 -13.089 -25.380  0.00  0.00    +0.157 HD
ENDROOT
BRANCH  14  18
ATOM     16  O   UNL     1      33.971 -15.499 -25.440  0.00  0.00    -0.266 OA
ATOM     17  N   UNL     1      34.608 -16.220 -23.301  0.00  0.00    -0.294 N 
ATOM     18  C   UNL     1      34.111 -15.337 -24.235  0.00  0.00    +0.290 C 
ATOM     19  H   UNL     1      34.655 -15.930 -22.361  0.00  0.00    +0.150 HD
BRANCH  17  20
ATOM     20  C   UNL     1      35.066 -17.549 -23.635  0.00  0.00    +0.117 C 
BRANCH  20  24
ATOM     21  O   UNL     1      35.949 -20.661 -18.995  0.00  0.00    -0.464 OA
ATOM     22  O   UNL     1      32.647 -22.055 -18.531  0.00  0.00    -0.271 OA
ATOM     23  N   UNL     1      33.377 -20.617 -20.171  0.00  0.00    -0.279 N 
ATOM     24  C   UNL     1      35.286 -18.390 -22.411  0.00  0.00    -0.001 C 
ATOM     25  C   UNL     1      34.442 -19.909 -20.737  0.00  0.00    +0.085 C 
ATOM     26  C   UNL     1      34.229 -19.123 -21.870  0.00  0.00    +0.015 C 
ATOM     27  C   UNL     1      35.700 -19.956 -20.139  0.00  0.00    +0.153 C 
ATOM     28  C   UNL     1      36.545 -18.433 -21.813  0.00  0.00    +0.001 C 
ATOM     29  C   UNL     1      36.752 -19.210 -20.672  0.00  0.00    +0.038 C 
ATOM     30  C   UNL     1      35.018 -21.695 -18.739  0.00  0.00    +0.290 C 
ATOM     31  C   UNL     1      33.561 -21.465 -19.104  0.00  0.00    +0.271 C 
ATOM     32  H   UNL     1      32.474 -20.507 -20.546  0.00  0.00    +0.155 HD
ENDBRANCH  20  24
ENDBRANCH  17  20
ENDBRANCH  14  18
BRANCH   5  33
ATOM     33  C   UNL     1      34.033  -8.402 -22.356  0.00  0.00    +0.089 C 
BRANCH  33  36
ATOM     34  O   UNL     1      34.091  -6.067 -23.009  0.00  0.00    -0.275 OA
ATOM     35  N   UNL     1      34.605  -7.681 -24.564  0.00  0.00    -0.329 N 
ATOM     36  C   UNL     1      34.235  -7.249 -23.309  0.00  0.00    +0.220 C 
ATOM     37  H   UNL     1      34.769  -7.027 -25.281  0.00  0.00    +0.145 HD
ATOM     38  H   UNL     1      34.705  -8.644 -24.743  0.00  0.00    +0.145 HD
ENDBRANCH  33  36
ENDBRANCH   5  33
TORSDOF 5
ENDMDL
MODEL 2
REMARK VINA RESULT:     -12.2      4.776     11.943
REMARK  Name = 25174099
REMARK  5 active torsions:
REMARK  status: ('A' for Active; 'I' for Inactive)
REMARK    1  A    between atoms: C_5  and  C_33
REMARK    2  A    between atoms: C_14  and  C_18
REMARK    3  A    between atoms: N_17  and  C_20
REMARK    4  A    between atoms: C_20  and  C_24
REMARK    5  A    between atoms: C_33  and  C_36
REMARK                            x       y       z     vdW  Elec       q    Type
REMARK                         _______ _______ _______ _____ _____    ______ ____
ROOT
ATOM      1  S   UNL     1      34.456 -23.926 -14.324  0.00  0.00    -0.064 S 
ATOM      2  O   UNL     1      31.579 -22.371 -18.029  0.00  0.00    -0.274 OA
ATOM      3  N   UNL     1      35.394 -22.600 -16.452  0.00  0.00    -0.379 NA
ATOM      4  N   UNL     1      33.844 -21.924 -18.143  0.00  0.00    -0.255 N 
ATOM      5  C   UNL     1      30.590 -23.848 -15.445  0.00  0.00    +0.028 C 
ATOM      6  C   UNL     1      30.070 -24.985 -14.530  0.00  0.00    +0.005 C 
ATOM      7  C   UNL     1      32.090 -23.717 -15.332  0.00  0.00    -0.027 C 
ATOM      8  C   UNL     1      30.660 -24.912 -13.114  0.00  0.00    +0.006 C 
ATOM      9  C   UNL     1      32.190 -25.026 -13.128  0.00  0.00    +0.032 C 
ATOM     10  C   UNL     1      32.784 -24.232 -14.250  0.00  0.00    +0.002 C 
ATOM     11  C   UNL     1      32.986 -23.085 -16.257  0.00  0.00    +0.154 C 
ATOM     12  C   UNL     1      34.303 -23.118 -15.819  0.00  0.00    +0.152 C 
ATOM     13  C   UNL     1      32.701 -22.441 -17.537  0.00  0.00    +0.239 C 
ATOM     14  C   UNL     1      35.108 -22.027 -17.580  0.00  0.00    +0.240 C 
ATOM     15  H   UNL     1      33.751 -21.464 -19.009  0.00  0.00    +0.157 HD
ENDROOT
BRANCH  14  18
ATOM     16  O   UNL     1      37.350 -21.732 -18.101  0.00  0.00    -0.266 OA
ATOM     17  N   UNL     1      35.752 -20.554 -19.349  0.00  0.00    -0.294 N 
ATOM     18  C   UNL     1      36.199 -21.419 -18.375  0.00  0.00    +0.290 C 
ATOM     19  H   UNL     1      34.782 -20.412 -19.440  0.00  0.00    +0.150 HD
BRANCH  17  20
ATOM     20  C   UNL     1      36.638 -19.847 -20.245  0.00  0.00    +0.117 C 
BRANCH  20  24
ATOM     21  O   UNL     1      33.737 -17.058 -24.220  0.00  0.00    -0.464 OA
ATOM     22  O   UNL     1      34.310 -13.654 -23.149  0.00  0.00    -0.271 OA
ATOM     23  N   UNL     1      35.069 -15.604 -22.192  0.00  0.00    -0.279 N 
ATOM     24  C   UNL     1      35.883 -19.091 -21.300  0.00  0.00    -0.001 C 
ATOM     25  C   UNL     1      35.143 -16.999 -22.248  0.00  0.00    +0.085 C 
ATOM     26  C   UNL     1      35.841 -17.697 -21.261  0.00  0.00    +0.015 C 
ATOM     27  C   UNL     1      34.483 -17.688 -23.264  0.00  0.00    +0.153 C 
ATOM     28  C   UNL     1      35.220 -19.783 -22.313  0.00  0.00    +0.001 C 
ATOM     29  C   UNL     1      34.513 -19.083 -23.292  0.00  0.00    +0.038 C 
ATOM     30  C   UNL     1      34.064 -15.694 -24.403  0.00  0.00    +0.290 C 
ATOM     31  C   UNL     1      34.460 -14.874 -23.187  0.00  0.00    +0.271 C 
ATOM     32  H   UNL     1      35.461 -15.132 -21.422  0.00  0.00    +0.155 HD
ENDBRANCH  20  24
ENDBRANCH  17  20
ENDBRANCH  14  18
BRANCH   5  33
ATOM     33  C   UNL     1      29.891 -22.525 -15.115  0.00  0.00    +0.089 C 
BRANCH  33  36
ATOM     34  O   UNL     1      27.509 -22.073 -15.039  0.00  0.00    -0.275 OA
ATOM     35  N   UNL     1      28.428 -22.934 -16.963  0.00  0.00    -0.329 N 
ATOM     36  C   UNL     1      28.487 -22.474 -15.665  0.00  0.00    +0.220 C 
ATOM     37  H   UNL     1      27.567 -22.954 -17.440  0.00  0.00    +0.145 HD
ATOM     38  H   UNL     1      29.247 -23.243 -17.413  0.00  0.00    +0.145 HD
ENDBRANCH  33  36
ENDBRANCH   5  33
TORSDOF 5
ENDMDL
MODEL 3
REMARK VINA RESULT:     -11.4      3.795     11.707
REMARK  Name = 25174099
REMARK  5 active torsions:
REMARK  status: ('A' for Active; 'I' for Inactive)
REMARK    1  A    between atoms: C_5  and  C_33
REMARK    2  A    between atoms: C_14  and  C_18
REMARK    3  A    between atoms: N_17  and  C_20
REMARK    4  A    between atoms: C_20  and  C_24
REMARK    5  A    between atoms: C_33  and  C_36
REMARK                            x       y       z     vdW  Elec       q    Type
REMARK                         _______ _______ _______ _____ _____    ______ ____
ROOT
ATOM      1  S   UNL     1      36.982 -21.686 -17.117  0.00  0.00    -0.064 S 
ATOM      2  O   UNL     1      32.219 -22.908 -17.609  0.00  0.00    -0.274 OA
ATOM      3  N   UNL     1      35.461 -20.863 -19.161  0.00  0.00    -0.379 NA
ATOM      4  N   UNL     1      33.172 -21.556 -19.223  0.00  0.00    -0.255 N 
ATOM      5  C   UNL     1      34.078 -23.730 -15.221  0.00  0.00    +0.028 C 
ATOM      6  C   UNL     1      34.978 -24.607 -14.314  0.00  0.00    +0.005 C 
ATOM      7  C   UNL     1      34.917 -22.909 -16.170  0.00  0.00    -0.027 C 
ATOM      8  C   UNL     1      36.146 -23.815 -13.709  0.00  0.00    +0.006 C 
ATOM      9  C   UNL     1      37.058 -23.226 -14.793  0.00  0.00    +0.032 C 
ATOM     10  C   UNL     1      36.259 -22.668 -15.930  0.00  0.00    +0.002 C 
ATOM     11  C   UNL     1      34.498 -22.286 -17.393  0.00  0.00    +0.154 C 
ATOM     12  C   UNL     1      35.526 -21.577 -18.000  0.00  0.00    +0.152 C 
ATOM     13  C   UNL     1      33.192 -22.301 -18.045  0.00  0.00    +0.239 C 
ATOM     14  C   UNL     1      34.286 -20.888 -19.711  0.00  0.00    +0.240 C 
ATOM     15  H   UNL     1      32.331 -21.501 -19.732  0.00  0.00    +0.157 HD
ENDROOT
BRANCH  14  18
ATOM     16  O   UNL     1      32.920 -19.886 -21.298  0.00  0.00    -0.266 OA
ATOM     17  N   UNL     1      35.239 -19.862 -21.648  0.00  0.00    -0.294 N 
ATOM     18  C   UNL     1      34.071 -20.154 -20.979  0.00  0.00    +0.290 C 
ATOM     19  H   UNL     1      36.092 -20.152 -21.250  0.00  0.00    +0.150 HD
BRANCH  17  20
ATOM     20  C   UNL     1      35.273 -19.151 -22.905  0.00  0.00    +0.117 C 
BRANCH  20  24
ATOM     21  O   UNL     1      34.385 -13.613 -22.173  0.00  0.00    -0.464 OA
ATOM     22  O   UNL     1      33.256 -12.710 -25.485  0.00  0.00    -0.271 OA
ATOM     23  N   UNL     1      33.894 -14.777 -24.704  0.00  0.00    -0.279 N 
ATOM     24  C   UNL     1      35.020 -17.682 -22.725  0.00  0.00    -0.001 C 
ATOM     25  C   UNL     1      34.320 -15.554 -23.622  0.00  0.00    +0.085 C 
ATOM     26  C   UNL     1      34.560 -16.917 -23.798  0.00  0.00    +0.015 C 
ATOM     27  C   UNL     1      34.547 -14.953 -22.384  0.00  0.00    +0.153 C 
ATOM     28  C   UNL     1      35.251 -17.082 -21.487  0.00  0.00    +0.001 C 
ATOM     29  C   UNL     1      35.022 -15.716 -21.317  0.00  0.00    +0.038 C 
ATOM     30  C   UNL     1      33.536 -12.978 -23.110  0.00  0.00    +0.290 C 
ATOM     31  C   UNL     1      33.569 -13.449 -24.554  0.00  0.00    +0.271 C 
ATOM     32  H   UNL     1      33.823 -15.191 -25.594  0.00  0.00    +0.155 HD
ENDBRANCH  20  24
ENDBRANCH  17  20
ENDBRANCH  14  18
BRANCH   5  33
ATOM     33  C   UNL     1      33.163 -22.837 -14.375  0.00  0.00    +0.089 C 
BRANCH  33  36
ATOM     34  O   UNL     1      31.755 -23.813 -12.658  0.00  0.00    -0.275 OA
ATOM     35  N   UNL     1      31.134 -24.005 -14.864  0.00  0.00    -0.329 N 
ATOM     36  C   UNL     1      31.967 -23.591 -13.847  0.00  0.00    +0.220 C 
ATOM     37  H   UNL     1      30.314 -24.509 -14.654  0.00  0.00    +0.145 HD
ATOM     38  H   UNL     1      31.357 -23.797 -15.799  0.00  0.00    +0.145 HD
ENDBRANCH  33  36
ENDBRANCH   5  33
TORSDOF 5
ENDMDL
MODEL 4
REMARK VINA RESULT:     -11.3      4.794     11.866
REMARK  Name = 25174099
REMARK  5 active torsions:
REMARK  status: ('A' for Active; 'I' for Inactive)
REMARK    1  A    between atoms: C_5  and  C_33
REMARK    2  A    between atoms: C_14  and  C_18
REMARK    3  A    between atoms: N_17  and  C_20
REMARK    4  A    between atoms: C_20  and  C_24
REMARK    5  A    between atoms: C_33  and  C_36
REMARK                            x       y       z     vdW  Elec       q    Type
REMARK                         _______ _______ _______ _____ _____    ______ ____
ROOT
ATOM      1  S   UNL     1      34.724 -23.717 -14.534  0.00  0.00    -0.064 S 
ATOM      2  O   UNL     1      31.434 -22.447 -17.995  0.00  0.00    -0.274 OA
ATOM      3  N   UNL     1      35.393 -22.468 -16.805  0.00  0.00    -0.379 NA
ATOM      4  N   UNL     1      33.657 -21.930 -18.359  0.00  0.00    -0.255 N 
ATOM      5  C   UNL     1      30.765 -23.827 -15.259  0.00  0.00    +0.028 C 
ATOM      6  C   UNL     1      30.383 -24.933 -14.244  0.00  0.00    +0.005 C 
ATOM      7  C   UNL     1      32.263 -23.639 -15.304  0.00  0.00    -0.027 C 
ATOM      8  C   UNL     1      31.109 -24.770 -12.901  0.00  0.00    +0.006 C 
ATOM      9  C   UNL     1      32.633 -24.833 -13.064  0.00  0.00    +0.032 C 
ATOM     10  C   UNL     1      33.080 -24.075 -14.276  0.00  0.00    +0.002 C 
ATOM     11  C   UNL     1      33.036 -23.024 -16.344  0.00  0.00    +0.154 C 
ATOM     12  C   UNL     1      34.391 -22.991 -16.042  0.00  0.00    +0.152 C 
ATOM     13  C   UNL     1      32.601 -22.455 -17.617  0.00  0.00    +0.239 C 
ATOM     14  C   UNL     1      34.973 -21.962 -17.924  0.00  0.00    +0.240 C 
ATOM     15  H   UNL     1      33.460 -21.517 -19.231  0.00  0.00    +0.157 HD
ENDROOT
BRANCH  14  18
ATOM     16  O   UNL     1      37.119 -21.276 -18.481  0.00  0.00    -0.266 OA
ATOM     17  N   UNL     1      35.404 -20.958 -20.050  0.00  0.00    -0.294 N 
ATOM     18  C   UNL     1      35.956 -21.358 -18.852  0.00  0.00    +0.290 C 
ATOM     19  H   UNL     1      34.441 -21.098 -20.191  0.00  0.00    +0.150 HD
BRANCH  17  20
ATOM     20  C   UNL     1      36.174 -20.344 -21.108  0.00  0.00    +0.117 C 
BRANCH  20  24
ATOM     21  O   UNL     1      34.611 -14.985 -22.021  0.00  0.00    -0.464 OA
ATOM     22  O   UNL     1      33.914 -15.126 -25.564  0.00  0.00    -0.271 OA
ATOM     23  N   UNL     1      34.637 -16.814 -24.179  0.00  0.00    -0.279 N 
ATOM     24  C   UNL     1      35.744 -18.929 -21.365  0.00  0.00    -0.001 C 
ATOM     25  C   UNL     1      34.972 -17.221 -22.884  0.00  0.00    +0.085 C 
ATOM     26  C   UNL     1      35.377 -18.536 -22.652  0.00  0.00    +0.015 C 
ATOM     27  C   UNL     1      34.942 -16.299 -21.839  0.00  0.00    +0.153 C 
ATOM     28  C   UNL     1      35.719 -18.007 -20.318  0.00  0.00    +0.001 C 
ATOM     29  C   UNL     1      35.325 -16.690 -20.555  0.00  0.00    +0.038 C 
ATOM     30  C   UNL     1      33.854 -14.737 -23.190  0.00  0.00    +0.290 C 
ATOM     31  C   UNL     1      34.156 -15.551 -24.436  0.00  0.00    +0.271 C 
ATOM     32  H   UNL     1      34.747 -17.446 -24.925  0.00  0.00    +0.155 HD
ENDBRANCH  20  24
ENDBRANCH  17  20
ENDBRANCH  14  18
BRANCH   5  33
ATOM     33  C   UNL     1      30.052 -22.512 -14.921  0.00  0.00    +0.089 C 
BRANCH  33  36
ATOM     34  O   UNL     1      27.681 -22.003 -14.919  0.00  0.00    -0.275 OA
ATOM     35  N   UNL     1      28.618 -22.982 -16.777  0.00  0.00    -0.329 N 
ATOM     36  C   UNL     1      28.661 -22.458 -15.503  0.00  0.00    +0.220 C 
ATOM     37  H   UNL     1      27.767 -23.006 -17.271  0.00  0.00    +0.145 HD
ATOM     38  H   UNL     1      29.438 -23.332 -17.193  0.00  0.00    +0.145 HD
ENDBRANCH  33  36
ENDBRANCH   5  33
TORSDOF 5
ENDMDL
MODEL 5
REMARK VINA RESULT:     -11.0      1.333      1.822
REMARK  Name = 25174099
REMARK  5 active torsions:
REMARK  status: ('A' for Active; 'I' for Inactive)
REMARK    1  A    between atoms: C_5  and  C_33
REMARK    2  A    between atoms: C_14  and  C_18
REMARK    3  A    between atoms: N_17  and  C_20
REMARK    4  A    between atoms: C_20  and  C_24
REMARK    5  A    between atoms: C_33  and  C_36
REMARK                            x       y       z     vdW  Elec       q    Type
REMARK                         _______ _______ _______ _____ _____    ______ ____
ROOT
ATOM      1  S   UNL     1      32.589 -12.952 -20.348  0.00  0.00    -0.064 S 
ATOM      2  O   UNL     1      33.792 -11.699 -24.974  0.00  0.00    -0.274 OA
ATOM      3  N   UNL     1      33.787 -14.629 -22.057  0.00  0.00    -0.379 NA
ATOM      4  N   UNL     1      34.296 -13.837 -24.256  0.00  0.00    -0.255 N 
ATOM      5  C   UNL     1      32.473  -9.803 -22.853  0.00  0.00    +0.028 C 
ATOM      6  C   UNL     1      31.390  -8.974 -22.119  0.00  0.00    +0.005 C 
ATOM      7  C   UNL     1      32.656 -11.147 -22.190  0.00  0.00    -0.027 C 
ATOM      8  C   UNL     1      31.580  -8.982 -20.595  0.00  0.00    +0.006 C 
ATOM      9  C   UNL     1      31.510 -10.402 -20.019  0.00  0.00    +0.032 C 
ATOM     10  C   UNL     1      32.240 -11.377 -20.890  0.00  0.00    +0.002 C 
ATOM     11  C   UNL     1      33.247 -12.327 -22.753  0.00  0.00    +0.154 C 
ATOM     12  C   UNL     1      33.283 -13.379 -21.847  0.00  0.00    +0.152 C 
ATOM     13  C   UNL     1      33.789 -12.550 -24.090  0.00  0.00    +0.239 C 
ATOM     14  C   UNL     1      34.270 -14.792 -23.250  0.00  0.00    +0.240 C 
ATOM     15  H   UNL     1      34.690 -14.080 -25.125  0.00  0.00    +0.157 HD
ENDROOT
BRANCH  14  18
ATOM     16  O   UNL     1      34.856 -16.419 -24.799  0.00  0.00    -0.266 OA
ATOM     17  N   UNL     1      35.326 -16.814 -22.535  0.00  0.00    -0.294 N 
ATOM     18  C   UNL     1      34.852 -16.104 -23.616  0.00  0.00    +0.290 C 
ATOM     19  H   UNL     1      35.246 -16.413 -21.640  0.00  0.00    +0.150 HD
BRANCH  17  20
ATOM     20  C   UNL     1      35.937 -18.118 -22.654  0.00  0.00    +0.117 C 
BRANCH  20  24
ATOM     21  O   UNL     1      33.897 -21.775 -18.851  0.00  0.00    -0.464 OA
ATOM     22  O   UNL     1      36.875 -22.380 -16.895  0.00  0.00    -0.271 OA
ATOM     23  N   UNL     1      36.619 -21.014 -18.728  0.00  0.00    -0.279 N 
ATOM     24  C   UNL     1      35.409 -19.080 -21.629  0.00  0.00    -0.001 C 
ATOM     25  C   UNL     1      35.761 -20.476 -19.692  0.00  0.00    +0.085 C 
ATOM     26  C   UNL     1      36.260 -19.588 -20.646  0.00  0.00    +0.015 C 
ATOM     27  C   UNL     1      34.423 -20.864 -19.723  0.00  0.00    +0.153 C 
ATOM     28  C   UNL     1      34.070 -19.470 -21.664  0.00  0.00    +0.001 C 
ATOM     29  C   UNL     1      33.577 -20.368 -20.716  0.00  0.00    +0.038 C 
ATOM     30  C   UNL     1      34.637 -21.924 -17.654  0.00  0.00    +0.290 C 
ATOM     31  C   UNL     1      36.152 -21.829 -17.722  0.00  0.00    +0.271 C 
ATOM     32  H   UNL     1      37.580 -20.805 -18.769  0.00  0.00    +0.155 HD
ENDBRANCH  20  24
ENDBRANCH  17  20
ENDBRANCH  14  18
BRANCH   5  33
ATOM     33  C   UNL     1      33.796  -9.031 -22.915  0.00  0.00    +0.089 C 
BRANCH  33  36
ATOM     34  O   UNL     1      32.924  -7.018 -23.951  0.00  0.00    -0.275 OA
ATOM     35  N   UNL     1      34.199  -6.839 -22.046  0.00  0.00    -0.329 N 
ATOM     36  C   UNL     1      33.577  -7.544 -23.053  0.00  0.00    +0.220 C 
ATOM     37  H   UNL     1      34.134  -5.857 -22.020  0.00  0.00    +0.145 HD
ATOM     38  H   UNL     1      34.709  -7.317 -21.353  0.00  0.00    +0.145 HD
ENDBRANCH  33  36
ENDBRANCH   5  33
TORSDOF 5
ENDMDL
MODEL 6
REMARK VINA RESULT:     -10.9      6.264     13.244
REMARK  Name = 25174099
REMARK  5 active torsions:
REMARK  status: ('A' for Active; 'I' for Inactive)
REMARK    1  A    between atoms: C_5  and  C_33
REMARK    2  A    between atoms: C_14  and  C_18
REMARK    3  A    between atoms: N_17  and  C_20
REMARK    4  A    between atoms: C_20  and  C_24
REMARK    5  A    between atoms: C_33  and  C_36
REMARK                            x       y       z     vdW  Elec       q    Type
REMARK                         _______ _______ _______ _____ _____    ______ ____
ROOT
ATOM      1  S   UNL     1      33.789 -24.058 -12.575  0.00  0.00    -0.064 S 
ATOM      2  O   UNL     1      37.484 -23.042 -15.695  0.00  0.00    -0.274 OA
ATOM      3  N   UNL     1      33.398 -23.269 -15.103  0.00  0.00    -0.379 NA
ATOM      4  N   UNL     1      35.315 -22.828 -16.464  0.00  0.00    -0.255 N 
ATOM      5  C   UNL     1      37.812 -24.061 -12.747  0.00  0.00    +0.028 C 
ATOM      6  C   UNL     1      38.100 -24.038 -11.225  0.00  0.00    +0.005 C 
ATOM      7  C   UNL     1      36.330 -23.941 -13.011  0.00  0.00    -0.027 C 
ATOM      8  C   UNL     1      37.172 -24.977 -10.441  0.00  0.00    +0.006 C 
ATOM      9  C   UNL     1      35.696 -24.596 -10.612  0.00  0.00    +0.032 C 
ATOM     10  C   UNL     1      35.393 -24.225 -12.032  0.00  0.00    +0.002 C 
ATOM     11  C   UNL     1      35.687 -23.542 -14.229  0.00  0.00    +0.154 C 
ATOM     12  C   UNL     1      34.302 -23.576 -14.129  0.00  0.00    +0.152 C 
ATOM     13  C   UNL     1      36.276 -23.127 -15.500  0.00  0.00    +0.239 C 
ATOM     14  C   UNL     1      33.952 -22.913 -16.221  0.00  0.00    +0.240 C 
ATOM     15  H   UNL     1      35.616 -22.544 -17.358  0.00  0.00    +0.157 HD
ENDROOT
BRANCH  14  18
ATOM     16  O   UNL     1      31.895 -22.821 -17.294  0.00  0.00    -0.266 OA
ATOM     17  N   UNL     1      33.768 -21.940 -18.397  0.00  0.00    -0.294 N 
ATOM     18  C   UNL     1      33.087 -22.552 -17.368  0.00  0.00    +0.290 C 
ATOM     19  H   UNL     1      34.736 -21.795 -18.297  0.00  0.00    +0.150 HD
BRANCH  17  20
ATOM     20  C   UNL     1      33.128 -21.500 -19.616  0.00  0.00    +0.117 C 
BRANCH  20  24
ATOM     21  O   UNL     1      36.343 -17.761 -22.388  0.00  0.00    -0.464 OA
ATOM     22  O   UNL     1      34.084 -16.839 -25.053  0.00  0.00    -0.271 OA
ATOM     23  N   UNL     1      33.741 -18.334 -23.339  0.00  0.00    -0.279 N 
ATOM     24  C   UNL     1      33.963 -20.496 -20.356  0.00  0.00    -0.001 C 
ATOM     25  C   UNL     1      34.233 -18.934 -22.176  0.00  0.00    +0.085 C 
ATOM     26  C   UNL     1      33.455 -19.872 -21.496  0.00  0.00    +0.015 C 
ATOM     27  C   UNL     1      35.517 -18.627 -21.727  0.00  0.00    +0.153 C 
ATOM     28  C   UNL     1      35.249 -20.192 -19.907  0.00  0.00    +0.001 C 
ATOM     29  C   UNL     1      36.029 -19.263 -20.596  0.00  0.00    +0.038 C 
ATOM     30  C   UNL     1      35.669 -16.858 -23.243  0.00  0.00    +0.290 C 
ATOM     31  C   UNL     1      34.442 -17.347 -23.993  0.00  0.00    +0.271 C 
ATOM     32  H   UNL     1      32.872 -18.623 -23.699  0.00  0.00    +0.155 HD
ENDBRANCH  20  24
ENDBRANCH  17  20
ENDBRANCH  14  18
BRANCH   5  33
ATOM     33  C   UNL     1      38.388 -25.328 -13.389  0.00  0.00    +0.089 C 
BRANCH  33  36
ATOM     34  O   UNL     1      40.790 -25.006 -13.285  0.00  0.00    -0.275 OA
ATOM     35  N   UNL     1      39.743 -24.995 -15.333  0.00  0.00    -0.329 N 
ATOM     36  C   UNL     1      39.767 -25.096 -13.958  0.00  0.00    +0.220 C 
ATOM     37  H   UNL     1      40.579 -24.843 -15.829  0.00  0.00    +0.145 HD
ATOM     38  H   UNL     1      38.890 -25.076 -15.817  0.00  0.00    +0.145 HD
ENDBRANCH  33  36
ENDBRANCH   5  33
TORSDOF 5
ENDMDL
MODEL 7
REMARK VINA RESULT:     -10.8      4.088      7.434
REMARK  Name = 25174099
REMARK  5 active torsions:
REMARK  status: ('A' for Active; 'I' for Inactive)
REMARK    1  A    between atoms: C_5  and  C_33
REMARK    2  A    between atoms: C_14  and  C_18
REMARK    3  A    between atoms: N_17  and  C_20
REMARK    4  A    between atoms: C_20  and  C_24
REMARK    5  A    between atoms: C_33  and  C_36
REMARK                            x       y       z     vdW  Elec       q    Type
REMARK                         _______ _______ _______ _____ _____    ______ ____
ROOT
ATOM      1  S   UNL     1      34.593  -6.383 -24.365  0.00  0.00    -0.064 S 
ATOM      2  O   UNL     1      30.868  -4.201 -21.960  0.00  0.00    -0.274 OA
ATOM      3  N   UNL     1      33.255  -7.552 -22.362  0.00  0.00    -0.379 NA
ATOM      4  N   UNL     1      31.477  -6.337 -21.323  0.00  0.00    -0.255 N 
ATOM      5  C   UNL     1      32.449  -2.976 -24.376  0.00  0.00    +0.028 C 
ATOM      6  C   UNL     1      33.447  -2.087 -25.159  0.00  0.00    +0.005 C 
ATOM      7  C   UNL     1      33.047  -4.334 -24.100  0.00  0.00    -0.027 C 
ATOM      8  C   UNL     1      34.081  -2.825 -26.347  0.00  0.00    +0.006 C 
ATOM      9  C   UNL     1      34.861  -4.067 -25.895  0.00  0.00    +0.032 C 
ATOM     10  C   UNL     1      34.120  -4.816 -24.831  0.00  0.00    +0.002 C 
ATOM     11  C   UNL     1      32.639  -5.285 -23.108  0.00  0.00    +0.154 C 
ATOM     12  C   UNL     1      33.392  -6.451 -23.155  0.00  0.00    +0.152 C 
ATOM     13  C   UNL     1      31.581  -5.188 -22.105  0.00  0.00    +0.239 C 
ATOM     14  C   UNL     1      32.303  -7.439 -21.489  0.00  0.00    +0.240 C 
ATOM     15  H   UNL     1      30.786  -6.369 -20.622  0.00  0.00    +0.157 HD
ENDROOT
BRANCH  14  18
ATOM     16  O   UNL     1      32.307  -8.402 -19.377  0.00  0.00    -0.266 OA
ATOM     17  N   UNL     1      31.517  -9.676 -21.181  0.00  0.00    -0.294 N 
ATOM     18  C   UNL     1      32.042  -8.563 -20.561  0.00  0.00    +0.290 C 
ATOM     19  H   UNL     1      31.362  -9.641 -22.153  0.00  0.00    +0.150 HD
BRANCH  17  20
ATOM     20  C   UNL     1      31.183 -10.891 -20.474  0.00  0.00    +0.117 C 
BRANCH  20  24
ATOM     21  O   UNL     1      34.507 -15.238 -21.904  0.00  0.00    -0.464 OA
ATOM     22  O   UNL     1      33.943 -15.318 -25.472  0.00  0.00    -0.271 OA
ATOM     23  N   UNL     1      33.039 -13.890 -23.911  0.00  0.00    -0.279 N 
ATOM     24  C   UNL     1      32.070 -12.034 -20.872  0.00  0.00    -0.001 C 
ATOM     25  C   UNL     1      32.983 -13.479 -22.577  0.00  0.00    +0.085 C 
ATOM     26  C   UNL     1      32.151 -12.419 -22.211  0.00  0.00    +0.015 C 
ATOM     27  C   UNL     1      33.724 -14.157 -21.610  0.00  0.00    +0.153 C 
ATOM     28  C   UNL     1      32.808 -12.714 -19.903  0.00  0.00    +0.001 C 
ATOM     29  C   UNL     1      33.629 -13.781 -20.270  0.00  0.00    +0.038 C 
ATOM     30  C   UNL     1      34.895 -15.319 -23.262  0.00  0.00    +0.290 C 
ATOM     31  C   UNL     1      33.905 -14.876 -24.326  0.00  0.00    +0.271 C 
ATOM     32  H   UNL     1      32.446 -13.465 -24.571  0.00  0.00    +0.155 HD
ENDBRANCH  20  24
ENDBRANCH  17  20
ENDBRANCH  14  18
BRANCH   5  33
ATOM     33  C   UNL     1      31.123  -3.098 -25.135  0.00  0.00    +0.089 C 
BRANCH  33  36
ATOM     34  O   UNL     1      29.066  -1.814 -25.195  0.00  0.00    -0.275 OA
ATOM     35  N   UNL     1      30.354  -1.786 -23.289  0.00  0.00    -0.329 N 
ATOM     36  C   UNL     1      30.066  -2.176 -24.579  0.00  0.00    +0.220 C 
ATOM     37  H   UNL     1      29.742  -1.182 -22.809  0.00  0.00    +0.145 HD
ATOM     38  H   UNL     1      31.171  -2.110 -22.848  0.00  0.00    +0.145 HD
ENDBRANCH  33  36
ENDBRANCH   5  33
TORSDOF 5
ENDMDL
MODEL 8
REMARK VINA RESULT:     -10.7      4.145     12.025
REMARK  Name = 25174099
REMARK  5 active torsions:
REMARK  status: ('A' for Active; 'I' for Inactive)
REMARK    1  A    between atoms: C_5  and  C_33
REMARK    2  A    between atoms: C_14  and  C_18
REMARK    3  A    between atoms: N_17  and  C_20
REMARK    4  A    between atoms: C_20  and  C_24
REMARK    5  A    between atoms: C_33  and  C_36
REMARK                            x       y       z     vdW  Elec       q    Type
REMARK                         _______ _______ _______ _____ _____    ______ ____
ROOT
ATOM      1  S   UNL     1      31.407 -22.795 -16.712  0.00  0.00    -0.064 S 
ATOM      2  O   UNL     1      36.334 -22.417 -16.652  0.00  0.00    -0.274 OA
ATOM      3  N   UNL     1      32.813 -21.639 -18.675  0.00  0.00    -0.379 NA
ATOM      4  N   UNL     1      35.194 -21.556 -18.470  0.00  0.00    -0.255 N 
ATOM      5  C   UNL     1      34.584 -23.825 -14.463  0.00  0.00    +0.028 C 
ATOM      6  C   UNL     1      33.842 -24.058 -13.124  0.00  0.00    +0.005 C 
ATOM      7  C   UNL     1      33.636 -23.294 -15.512  0.00  0.00    -0.027 C 
ATOM      8  C   UNL     1      32.516 -24.808 -13.312  0.00  0.00    +0.006 C 
ATOM      9  C   UNL     1      31.548 -24.038 -14.219  0.00  0.00    +0.032 C 
ATOM     10  C   UNL     1      32.264 -23.437 -15.390  0.00  0.00    +0.002 C 
ATOM     11  C   UNL     1      33.970 -22.600 -16.722  0.00  0.00    +0.154 C 
ATOM     12  C   UNL     1      32.845 -22.283 -17.474  0.00  0.00    +0.152 C 
ATOM     13  C   UNL     1      35.277 -22.206 -17.240  0.00  0.00    +0.239 C 
ATOM     14  C   UNL     1      33.989 -21.311 -19.112  0.00  0.00    +0.240 C 
ATOM     15  H   UNL     1      36.027 -21.258 -18.902  0.00  0.00    +0.157 HD
ENDROOT
BRANCH  14  18
ATOM     16  O   UNL     1      33.069 -20.273 -20.973  0.00  0.00    -0.266 OA
ATOM     17  N   UNL     1      35.405 -20.411 -20.816  0.00  0.00    -0.294 N 
ATOM     18  C   UNL     1      34.103 -20.605 -20.409  0.00  0.00    +0.290 C 
ATOM     19  H   UNL     1      36.130 -20.742 -20.238  0.00  0.00    +0.150 HD
BRANCH  17  20
ATOM     20  C   UNL     1      35.756 -19.744 -22.048  0.00  0.00    +0.117 C 
BRANCH  20  24
ATOM     21  O   UNL     1      34.344 -14.268 -21.932  0.00  0.00    -0.464 OA
ATOM     22  O   UNL     1      33.345 -13.800 -25.373  0.00  0.00    -0.271 OA
ATOM     23  N   UNL     1      34.112 -15.713 -24.353  0.00  0.00    -0.279 N 
ATOM     24  C   UNL     1      35.365 -18.294 -22.032  0.00  0.00    -0.001 C 
ATOM     25  C   UNL     1      34.538 -16.338 -23.177  0.00  0.00    +0.085 C 
ATOM     26  C   UNL     1      34.907 -17.684 -23.200  0.00  0.00    +0.015 C 
ATOM     27  C   UNL     1      34.635 -15.601 -21.997  0.00  0.00    +0.153 C 
ATOM     28  C   UNL     1      35.467 -17.559 -20.851  0.00  0.00    +0.001 C 
ATOM     29  C   UNL     1      35.109 -16.210 -20.834  0.00  0.00    +0.038 C 
ATOM     30  C   UNL     1      33.502 -13.808 -22.972  0.00  0.00    +0.290 C 
ATOM     31  C   UNL     1      33.664 -14.412 -24.357  0.00  0.00    +0.271 C 
ATOM     32  H   UNL     1      34.133 -16.216 -25.199  0.00  0.00    +0.155 HD
ENDBRANCH  20  24
ENDBRANCH  17  20
ENDBRANCH  14  18
BRANCH   5  33
ATOM     33  C   UNL     1      35.266 -25.114 -14.936  0.00  0.00    +0.089 C 
BRANCH  33  36
ATOM     34  O   UNL     1      36.820 -26.028 -13.313  0.00  0.00    -0.275 OA
ATOM     35  N   UNL     1      37.599 -24.582 -14.923  0.00  0.00    -0.329 N 
ATOM     36  C   UNL     1      36.615 -25.309 -14.288  0.00  0.00    +0.220 C 
ATOM     37  H   UNL     1      38.527 -24.622 -14.599  0.00  0.00    +0.145 HD
ATOM     38  H   UNL     1      37.372 -24.024 -15.701  0.00  0.00    +0.145 HD
ENDBRANCH  33  36
ENDBRANCH   5  33
TORSDOF 5
ENDMDL
MODEL 9
REMARK VINA RESULT:     -10.5      3.242      5.393
REMARK  Name = 25174099
REMARK  5 active torsions:
REMARK  status: ('A' for Active; 'I' for Inactive)
REMARK    1  A    between atoms: C_5  and  C_33
REMARK    2  A    between atoms: C_14  and  C_18
REMARK    3  A    between atoms: N_17  and  C_20
REMARK    4  A    between atoms: C_20  and  C_24
REMARK    5  A    between atoms: C_33  and  C_36
REMARK                            x       y       z     vdW  Elec       q    Type
REMARK                         _______ _______ _______ _____ _____    ______ ____
ROOT
ATOM      1  S   UNL     1      34.699 -16.130 -24.577  0.00  0.00    -0.064 S 
ATOM      2  O   UNL     1      34.456 -14.471 -19.928  0.00  0.00    -0.274 OA
ATOM      3  N   UNL     1      35.479 -17.574 -22.462  0.00  0.00    -0.379 NA
ATOM      4  N   UNL     1      35.280 -16.601 -20.287  0.00  0.00    -0.255 N 
ATOM      5  C   UNL     1      33.492 -12.915 -22.475  0.00  0.00    +0.028 C 
ATOM      6  C   UNL     1      33.481 -11.884 -23.631  0.00  0.00    +0.005 C 
ATOM      7  C   UNL     1      34.038 -14.241 -22.948  0.00  0.00    -0.027 C 
ATOM      8  C   UNL     1      32.890 -12.462 -24.925  0.00  0.00    +0.006 C 
ATOM      9  C   UNL     1      33.687 -13.673 -25.426  0.00  0.00    +0.032 C 
ATOM     10  C   UNL     1      34.081 -14.570 -24.292  0.00  0.00    +0.002 C 
ATOM     11  C   UNL     1      34.567 -15.306 -22.146  0.00  0.00    +0.154 C 
ATOM     12  C   UNL     1      34.951 -16.400 -22.911  0.00  0.00    +0.152 C 
ATOM     13  C   UNL     1      34.743 -15.383 -20.698  0.00  0.00    +0.239 C 
ATOM     14  C   UNL     1      35.613 -17.615 -21.173  0.00  0.00    +0.240 C 
ATOM     15  H   UNL     1      35.428 -16.749 -19.325  0.00  0.00    +0.157 HD
ENDROOT
BRANCH  14  18
ATOM     16  O   UNL     1      37.338 -18.800 -20.169  0.00  0.00    -0.266 OA
ATOM     17  N   UNL     1      35.277 -19.876 -20.475  0.00  0.00    -0.294 N 
ATOM     18  C   UNL     1      36.175 -18.834 -20.547  0.00  0.00    +0.290 C 
ATOM     19  H   UNL     1      34.369 -19.738 -20.828  0.00  0.00    +0.150 HD
BRANCH  17  20
ATOM     20  C   UNL     1      35.604 -21.162 -19.902  0.00  0.00    +0.117 C 
BRANCH  20  24
ATOM     21  O   UNL     1      31.621 -22.913 -16.287  0.00  0.00    -0.464 OA
ATOM     22  O   UNL     1      33.693 -24.479 -13.774  0.00  0.00    -0.271 OA
ATOM     23  N   UNL     1      34.342 -23.434 -15.718  0.00  0.00    -0.279 N 
ATOM     24  C   UNL     1      34.560 -21.623 -18.926  0.00  0.00    -0.001 C 
ATOM     25  C   UNL     1      33.967 -22.722 -16.861  0.00  0.00    +0.085 C 
ATOM     26  C   UNL     1      34.941 -22.302 -17.768  0.00  0.00    +0.015 C 
ATOM     27  C   UNL     1      32.619 -22.473 -17.111  0.00  0.00    +0.153 C 
ATOM     28  C   UNL     1      33.211 -21.376 -19.180  0.00  0.00    +0.001 C 
ATOM     29  C   UNL     1      32.239 -21.808 -18.277  0.00  0.00    +0.038 C 
ATOM     30  C   UNL     1      32.044 -23.195 -14.966  0.00  0.00    +0.290 C 
ATOM     31  C   UNL     1      33.424 -23.795 -14.759  0.00  0.00    +0.271 C 
ATOM     32  H   UNL     1      35.287 -23.683 -15.595  0.00  0.00    +0.155 HD
ENDBRANCH  20  24
ENDBRANCH  17  20
ENDBRANCH  14  18
BRANCH   5  33
ATOM     33  C   UNL     1      32.088 -13.075 -21.879  0.00  0.00    +0.089 C 
BRANCH  33  36
ATOM     34  O   UNL     1      32.300 -11.872 -19.783  0.00  0.00    -0.275 OA
ATOM     35  N   UNL     1      30.804 -11.124 -21.362  0.00  0.00    -0.329 N 
ATOM     36  C   UNL     1      31.769 -11.985 -20.885  0.00  0.00    +0.220 C 
ATOM     37  H   UNL     1      30.504 -10.367 -20.809  0.00  0.00    +0.145 HD
ATOM     38  H   UNL     1      30.415 -11.267 -22.254  0.00  0.00    +0.145 HD
ENDBRANCH  33  36
ENDBRANCH   5  33
TORSDOF 5
ENDMDL
