MODEL 1
REMARK VINA RESULT:     -11.6      0.000      0.000
REMARK  Name = 52920501
REMARK  9 active torsions:
REMARK  status: ('A' for Active; 'I' for Inactive)
REMARK    1  A    between atoms: N_1  and  C_12
REMARK    2  A    between atoms: C_5  and  O_27
REMARK    3  A    between atoms: C_9  and  C_15
REMARK    4  A    between atoms: C_15  and  S_16
REMARK    5  A    between atoms: S_16  and  N_19
REMARK    6  A    between atoms: N_19  and  C_21
REMARK    7  A    between atoms: C_21  and  C_22
REMARK    8  A    between atoms: C_22  and  N_23
REMARK    9  A    between atoms: O_27  and  C_35
REMARK                            x       y       z     vdW  Elec       q    Type
REMARK                         _______ _______ _______ _____ _____    ______ ____
ROOT
ATOM      1  N   UNL     1      32.604 -22.256 -18.229  0.00  0.00    -0.247 N 
ATOM      2  N   UNL     1      33.258 -22.681 -16.016  0.00  0.00    -0.300 NA
ATOM      3  N   UNL     1      31.036 -23.226 -16.777  0.00  0.00    -0.170 NA
ATOM      4  C   UNL     1      32.284 -22.745 -16.944  0.00  0.00    +0.152 C 
ATOM      5  C   UNL     1      32.917 -23.156 -14.800  0.00  0.00    +0.295 C 
ATOM      6  C   UNL     1      31.674 -23.675 -14.500  0.00  0.00    +0.094 C 
ATOM      7  C   UNL     1      30.765 -23.684 -15.538  0.00  0.00    +0.118 C 
ATOM      8  H   UNL     1      31.863 -22.323 -18.875  0.00  0.00    +0.165 HD
ENDROOT
BRANCH   1  12
ATOM      9  C   UNL     1      34.865 -20.325 -20.436  0.00  0.00    +0.004 C 
ATOM     10  C   UNL     1      33.704 -20.883 -19.902  0.00  0.00    +0.013 C 
ATOM     11  C   UNL     1      36.099 -20.577 -19.836  0.00  0.00    -0.002 C 
ATOM     12  C   UNL     1      33.775 -21.692 -18.768  0.00  0.00    +0.057 C 
ATOM     13  C   UNL     1      36.172 -21.386 -18.701  0.00  0.00    +0.001 C 
ATOM     14  C   UNL     1      35.009 -21.944 -18.168  0.00  0.00    +0.015 C 
BRANCH   9  15
ATOM     15  C   UNL     1      34.788 -19.459 -21.647  0.00  0.00    +0.195 C 
BRANCH  15  16
ATOM     16  S   UNL     1      35.906 -18.113 -21.424  0.00  0.00    +0.045 S 
ATOM     17  O   UNL     1      35.472 -17.340 -20.272  0.00  0.00    -0.157 OA
ATOM     18  O   UNL     1      37.260 -18.642 -21.483  0.00  0.00    -0.157 OA
BRANCH  16  19
ATOM     19  N   UNL     1      35.625 -17.214 -22.852  0.00  0.00    -0.185 NA
ATOM     20  H   UNL     1      35.010 -17.775 -23.442  0.00  0.00    +0.148 HD
BRANCH  19  21
ATOM     21  C   UNL     1      35.017 -15.875 -22.744  0.00  0.00    +0.068 C 
BRANCH  21  22
ATOM     22  C   UNL     1      34.266 -15.560 -24.030  0.00  0.00    -0.058 C 
BRANCH  22  23
ATOM     23  N   UNL     1      33.418 -14.389 -23.846  0.00  0.00    +0.385 N 
ATOM     24  C   UNL     1      33.912 -13.563 -22.743  0.00  0.00    -0.101 C 
ATOM     25  C   UNL     1      33.351 -13.601 -25.079  0.00  0.00    -0.101 C 
ATOM     26  H   UNL     1      32.478 -14.710 -23.615  0.00  0.00    -0.080 HD
ENDBRANCH  22  23
ENDBRANCH  21  22
ENDBRANCH  19  21
ENDBRANCH  16  19
ENDBRANCH  15  16
ENDBRANCH   9  15
ENDBRANCH   1  12
BRANCH   5  27
ATOM     27  O   UNL     1      33.886 -23.113 -13.812  0.00  0.00    -0.427 OA
BRANCH  27  35
ATOM     28  N   UNL     1      38.619 -25.662 -14.886  0.00  0.00    -0.316 N 
ATOM     29  C   UNL     1      36.435 -25.674 -14.434  0.00  0.00    +0.017 C 
ATOM     30  C   UNL     1      37.541 -24.845 -14.633  0.00  0.00    +0.048 C 
ATOM     31  C   UNL     1      38.236 -26.975 -14.854  0.00  0.00    +0.026 C 
ATOM     32  C   UNL     1      36.888 -27.015 -14.576  0.00  0.00    +0.012 C 
ATOM     33  C   UNL     1      35.186 -25.085 -14.153  0.00  0.00    +0.039 C 
ATOM     34  C   UNL     1      37.460 -23.450 -14.565  0.00  0.00    +0.018 C 
ATOM     35  C   UNL     1      35.090 -23.691 -14.083  0.00  0.00    +0.148 C 
ATOM     36  C   UNL     1      36.211 -22.887 -14.285  0.00  0.00    +0.039 C 
ATOM     37  C   UNL     1      39.202 -28.062 -15.093  0.00  0.00    +0.047 C 
ATOM     38  H   UNL     1      39.535 -25.347 -15.065  0.00  0.00    +0.152 HD
ENDBRANCH  27  35
ENDBRANCH   5  27
TORSDOF 9
ENDMDL
MODEL 2
REMARK VINA RESULT:     -11.5      3.458      9.770
REMARK  Name = 52920501
REMARK  9 active torsions:
REMARK  status: ('A' for Active; 'I' for Inactive)
REMARK    1  A    between atoms: N_1  and  C_12
REMARK    2  A    between atoms: C_5  and  O_27
REMARK    3  A    between atoms: C_9  and  C_15
REMARK    4  A    between atoms: C_15  and  S_16
REMARK    5  A    between atoms: S_16  and  N_19
REMARK    6  A    between atoms: N_19  and  C_21
REMARK    7  A    between atoms: C_21  and  C_22
REMARK    8  A    between atoms: C_22  and  N_23
REMARK    9  A    between atoms: O_27  and  C_35
REMARK                            x       y       z     vdW  Elec       q    Type
REMARK                         _______ _______ _______ _____ _____    ______ ____
ROOT
ATOM      1  N   UNL     1      34.298 -23.587 -12.783  0.00  0.00    -0.247 N 
ATOM      2  N   UNL     1      34.344 -23.507 -15.128  0.00  0.00    -0.300 NA
ATOM      3  N   UNL     1      32.286 -23.173 -13.918  0.00  0.00    -0.170 NA
ATOM      4  C   UNL     1      33.609 -23.413 -14.003  0.00  0.00    +0.152 C 
ATOM      5  C   UNL     1      33.654 -23.337 -16.275  0.00  0.00    +0.295 C 
ATOM      6  C   UNL     1      32.298 -23.086 -16.324  0.00  0.00    +0.094 C 
ATOM      7  C   UNL     1      31.659 -23.014 -15.103  0.00  0.00    +0.118 C 
ATOM      8  H   UNL     1      33.722 -23.510 -11.988  0.00  0.00    +0.165 HD
ENDROOT
BRANCH   1  12
ATOM      9  C   UNL     1      37.704 -25.029 -12.935  0.00  0.00    +0.004 C 
ATOM     10  C   UNL     1      36.367 -24.773 -13.235  0.00  0.00    +0.013 C 
ATOM     11  C   UNL     1      38.323 -24.359 -11.879  0.00  0.00    -0.002 C 
ATOM     12  C   UNL     1      35.647 -23.846 -12.481  0.00  0.00    +0.057 C 
ATOM     13  C   UNL     1      37.604 -23.432 -11.124  0.00  0.00    +0.001 C 
ATOM     14  C   UNL     1      36.266 -23.176 -11.425  0.00  0.00    +0.015 C 
BRANCH   9  15
ATOM     15  C   UNL     1      38.473 -26.019 -13.742  0.00  0.00    +0.195 C 
BRANCH  15  16
ATOM     16  S   UNL     1      39.804 -25.165 -14.524  0.00  0.00    +0.045 S 
ATOM     17  O   UNL     1      39.282 -23.947 -15.122  0.00  0.00    -0.157 OA
ATOM     18  O   UNL     1      40.910 -25.101 -13.581  0.00  0.00    -0.157 OA
BRANCH  16  19
ATOM     19  N   UNL     1      40.223 -26.272 -15.759  0.00  0.00    -0.185 NA
ATOM     20  H   UNL     1      41.058 -25.906 -16.217  0.00  0.00    +0.148 HD
BRANCH  19  21
ATOM     21  C   UNL     1      40.507 -27.672 -15.397  0.00  0.00    +0.068 C 
BRANCH  21  22
ATOM     22  C   UNL     1      39.958 -28.592 -16.478  0.00  0.00    -0.058 C 
BRANCH  22  23
ATOM     23  N   UNL     1      38.858 -29.390 -15.952  0.00  0.00    +0.385 N 
ATOM     24  C   UNL     1      39.056 -29.666 -14.527  0.00  0.00    -0.101 C 
ATOM     25  C   UNL     1      37.579 -28.710 -16.163  0.00  0.00    -0.101 C 
ATOM     26  H   UNL     1      38.840 -30.277 -16.455  0.00  0.00    -0.080 HD
ENDBRANCH  22  23
ENDBRANCH  21  22
ENDBRANCH  19  21
ENDBRANCH  16  19
ENDBRANCH  15  16
ENDBRANCH   9  15
ENDBRANCH   1  12
BRANCH   5  27
ATOM     27  O   UNL     1      34.367 -23.423 -17.458  0.00  0.00    -0.427 OA
BRANCH  27  35
ATOM     28  N   UNL     1      34.312 -19.178 -20.927  0.00  0.00    -0.316 N 
ATOM     29  C   UNL     1      35.381 -20.695 -19.689  0.00  0.00    +0.017 C 
ATOM     30  C   UNL     1      34.118 -20.233 -20.065  0.00  0.00    +0.048 C 
ATOM     31  C   UNL     1      35.650 -18.957 -21.109  0.00  0.00    +0.026 C 
ATOM     32  C   UNL     1      36.338 -19.880 -20.355  0.00  0.00    +0.012 C 
ATOM     33  C   UNL     1      35.468 -21.784 -18.799  0.00  0.00    +0.039 C 
ATOM     34  C   UNL     1      32.933 -20.808 -19.593  0.00  0.00    +0.018 C 
ATOM     35  C   UNL     1      34.291 -22.369 -18.319  0.00  0.00    +0.148 C 
ATOM     36  C   UNL     1      33.044 -21.887 -18.711  0.00  0.00    +0.039 C 
ATOM     37  C   UNL     1      36.137 -17.879 -21.989  0.00  0.00    +0.047 C 
ATOM     38  H   UNL     1      33.592 -18.657 -21.352  0.00  0.00    +0.152 HD
ENDBRANCH  27  35
ENDBRANCH   5  27
TORSDOF 9
ENDMDL
MODEL 3
REMARK VINA RESULT:     -11.0      1.819      4.857
REMARK  Name = 52920501
REMARK  9 active torsions:
REMARK  status: ('A' for Active; 'I' for Inactive)
REMARK    1  A    between atoms: N_1  and  C_12
REMARK    2  A    between atoms: C_5  and  O_27
REMARK    3  A    between atoms: C_9  and  C_15
REMARK    4  A    between atoms: C_15  and  S_16
REMARK    5  A    between atoms: S_16  and  N_19
REMARK    6  A    between atoms: N_19  and  C_21
REMARK    7  A    between atoms: C_21  and  C_22
REMARK    8  A    between atoms: C_22  and  N_23
REMARK    9  A    between atoms: O_27  and  C_35
REMARK                            x       y       z     vdW  Elec       q    Type
REMARK                         _______ _______ _______ _____ _____    ______ ____
ROOT
ATOM      1  N   UNL     1      36.534 -21.675 -17.950  0.00  0.00    -0.247 N 
ATOM      2  N   UNL     1      35.489 -22.393 -15.976  0.00  0.00    -0.300 NA
ATOM      3  N   UNL     1      37.884 -22.503 -16.218  0.00  0.00    -0.170 NA
ATOM      4  C   UNL     1      36.641 -22.217 -16.651  0.00  0.00    +0.152 C 
ATOM      5  C   UNL     1      35.628 -22.913 -14.739  0.00  0.00    +0.295 C 
ATOM      6  C   UNL     1      36.844 -23.248 -14.180  0.00  0.00    +0.094 C 
ATOM      7  C   UNL     1      37.949 -23.020 -14.974  0.00  0.00    +0.118 C 
ATOM      8  H   UNL     1      37.400 -21.564 -18.406  0.00  0.00    +0.165 HD
ENDROOT
BRANCH   1  12
ATOM      9  C   UNL     1      34.540 -20.120 -20.654  0.00  0.00    +0.004 C 
ATOM     10  C   UNL     1      35.633 -20.529 -19.891  0.00  0.00    +0.013 C 
ATOM     11  C   UNL     1      33.245 -20.444 -20.248  0.00  0.00    -0.002 C 
ATOM     12  C   UNL     1      35.432 -21.262 -18.721  0.00  0.00    +0.057 C 
ATOM     13  C   UNL     1      33.043 -21.177 -19.078  0.00  0.00    +0.001 C 
ATOM     14  C   UNL     1      34.137 -21.586 -18.315  0.00  0.00    +0.015 C 
BRANCH   9  15
ATOM     15  C   UNL     1      34.756 -19.337 -21.905  0.00  0.00    +0.195 C 
BRANCH  15  16
ATOM     16  S   UNL     1      35.896 -18.041 -21.543  0.00  0.00    +0.045 S 
ATOM     17  O   UNL     1      35.423 -17.325 -20.369  0.00  0.00    -0.157 OA
ATOM     18  O   UNL     1      37.236 -18.604 -21.565  0.00  0.00    -0.157 OA
BRANCH  16  19
ATOM     19  N   UNL     1      35.714 -17.050 -22.926  0.00  0.00    -0.185 NA
ATOM     20  H   UNL     1      35.236 -17.608 -23.633  0.00  0.00    +0.148 HD
BRANCH  19  21
ATOM     21  C   UNL     1      34.970 -15.783 -22.803  0.00  0.00    +0.068 C 
BRANCH  21  22
ATOM     22  C   UNL     1      34.190 -15.532 -24.085  0.00  0.00    -0.058 C 
BRANCH  22  23
ATOM     23  N   UNL     1      33.325 -14.369 -23.931  0.00  0.00    +0.385 N 
ATOM     24  C   UNL     1      33.724 -13.580 -22.763  0.00  0.00    -0.101 C 
ATOM     25  C   UNL     1      33.355 -13.539 -25.137  0.00  0.00    -0.101 C 
ATOM     26  H   UNL     1      32.370 -14.699 -23.789  0.00  0.00    -0.080 HD
ENDBRANCH  22  23
ENDBRANCH  21  22
ENDBRANCH  19  21
ENDBRANCH  16  19
ENDBRANCH  15  16
ENDBRANCH   9  15
ENDBRANCH   1  12
BRANCH   5  27
ATOM     27  O   UNL     1      34.471 -23.112 -14.005  0.00  0.00    -0.427 OA
BRANCH  27  35
ATOM     28  N   UNL     1      29.600 -23.082 -16.520  0.00  0.00    -0.316 N 
ATOM     29  C   UNL     1      30.897 -22.744 -14.737  0.00  0.00    +0.017 C 
ATOM     30  C   UNL     1      30.898 -23.159 -16.070  0.00  0.00    +0.048 C 
ATOM     31  C   UNL     1      28.779 -22.635 -15.521  0.00  0.00    +0.026 C 
ATOM     32  C   UNL     1      29.553 -22.417 -14.403  0.00  0.00    +0.012 C 
ATOM     33  C   UNL     1      32.115 -22.728 -14.030  0.00  0.00    +0.039 C 
ATOM     34  C   UNL     1      32.063 -23.559 -16.735  0.00  0.00    +0.018 C 
ATOM     35  C   UNL     1      33.288 -23.125 -14.682  0.00  0.00    +0.148 C 
ATOM     36  C   UNL     1      33.260 -23.534 -16.013  0.00  0.00    +0.039 C 
ATOM     37  C   UNL     1      27.331 -22.462 -15.737  0.00  0.00    +0.047 C 
ATOM     38  H   UNL     1      29.304 -23.315 -17.430  0.00  0.00    +0.152 HD
ENDBRANCH  27  35
ENDBRANCH   5  27
TORSDOF 9
ENDMDL
MODEL 4
REMARK VINA RESULT:     -10.9      3.557     12.197
REMARK  Name = 52920501
REMARK  9 active torsions:
REMARK  status: ('A' for Active; 'I' for Inactive)
REMARK    1  A    between atoms: N_1  and  C_12
REMARK    2  A    between atoms: C_5  and  O_27
REMARK    3  A    between atoms: C_9  and  C_15
REMARK    4  A    between atoms: C_15  and  S_16
REMARK    5  A    between atoms: S_16  and  N_19
REMARK    6  A    between atoms: N_19  and  C_21
REMARK    7  A    between atoms: C_21  and  C_22
REMARK    8  A    between atoms: C_22  and  N_23
REMARK    9  A    between atoms: O_27  and  C_35
REMARK                            x       y       z     vdW  Elec       q    Type
REMARK                         _______ _______ _______ _____ _____    ______ ____
ROOT
ATOM      1  N   UNL     1      34.699 -18.526 -23.145  0.00  0.00    -0.247 N 
ATOM      2  N   UNL     1      34.636 -16.295 -22.420  0.00  0.00    -0.300 NA
ATOM      3  N   UNL     1      34.261 -16.855 -24.733  0.00  0.00    -0.170 NA
ATOM      4  C   UNL     1      34.523 -17.158 -23.447  0.00  0.00    +0.152 C 
ATOM      5  C   UNL     1      34.464 -14.997 -22.745  0.00  0.00    +0.295 C 
ATOM      6  C   UNL     1      34.190 -14.556 -24.023  0.00  0.00    +0.094 C 
ATOM      7  C   UNL     1      34.099 -15.540 -24.987  0.00  0.00    +0.118 C 
ATOM      8  H   UNL     1      34.607 -19.119 -23.925  0.00  0.00    +0.165 HD
ENDROOT
BRANCH   1  12
ATOM      9  C   UNL     1      34.220 -20.455 -20.021  0.00  0.00    +0.004 C 
ATOM     10  C   UNL     1      33.942 -19.780 -21.209  0.00  0.00    +0.013 C 
ATOM     11  C   UNL     1      35.535 -20.555 -19.567  0.00  0.00    -0.002 C 
ATOM     12  C   UNL     1      34.979 -19.207 -21.945  0.00  0.00    +0.057 C 
ATOM     13  C   UNL     1      36.573 -19.982 -20.303  0.00  0.00    +0.001 C 
ATOM     14  C   UNL     1      36.294 -19.307 -21.492  0.00  0.00    +0.015 C 
BRANCH   9  15
ATOM     15  C   UNL     1      33.111 -21.069 -19.235  0.00  0.00    +0.195 C 
BRANCH  15  16
ATOM     16  S   UNL     1      33.727 -22.544 -18.489  0.00  0.00    +0.045 S 
ATOM     17  O   UNL     1      33.810 -23.576 -19.509  0.00  0.00    -0.157 OA
ATOM     18  O   UNL     1      34.902 -22.192 -17.706  0.00  0.00    -0.157 OA
BRANCH  16  19
ATOM     19  N   UNL     1      32.458 -22.916 -17.404  0.00  0.00    -0.185 NA
ATOM     20  H   UNL     1      31.957 -23.715 -17.793  0.00  0.00    +0.148 HD
BRANCH  19  21
ATOM     21  C   UNL     1      32.788 -23.252 -16.007  0.00  0.00    +0.068 C 
BRANCH  21  22
ATOM     22  C   UNL     1      31.561 -23.035 -15.134  0.00  0.00    -0.058 C 
BRANCH  22  23
ATOM     23  N   UNL     1      30.396 -23.678 -15.731  0.00  0.00    +0.385 N 
ATOM     24  C   UNL     1      30.031 -24.881 -14.981  0.00  0.00    -0.101 C 
ATOM     25  C   UNL     1      29.265 -22.750 -15.784  0.00  0.00    -0.101 C 
ATOM     26  H   UNL     1      30.637 -23.951 -16.684  0.00  0.00    -0.080 HD
ENDBRANCH  22  23
ENDBRANCH  21  22
ENDBRANCH  19  21
ENDBRANCH  16  19
ENDBRANCH  15  16
ENDBRANCH   9  15
ENDBRANCH   1  12
BRANCH   5  27
ATOM     27  O   UNL     1      34.569 -14.071 -21.721  0.00  0.00    -0.427 OA
BRANCH  27  35
ATOM     28  N   UNL     1      31.221  -9.734 -21.920  0.00  0.00    -0.316 N 
ATOM     29  C   UNL     1      33.041 -10.848 -22.572  0.00  0.00    +0.017 C 
ATOM     30  C   UNL     1      31.929 -10.898 -21.728  0.00  0.00    +0.048 C 
ATOM     31  C   UNL     1      31.843  -8.951 -22.854  0.00  0.00    +0.026 C 
ATOM     32  C   UNL     1      32.974  -9.614 -23.276  0.00  0.00    +0.012 C 
ATOM     33  C   UNL     1      33.943 -11.930 -22.571  0.00  0.00    +0.039 C 
ATOM     34  C   UNL     1      31.674 -11.982 -20.879  0.00  0.00    +0.018 C 
ATOM     35  C   UNL     1      33.701 -13.020 -21.728  0.00  0.00    +0.148 C 
ATOM     36  C   UNL     1      32.584 -13.044 -20.895  0.00  0.00    +0.039 C 
ATOM     37  C   UNL     1      31.291  -7.642 -23.248  0.00  0.00    +0.047 C 
ATOM     38  H   UNL     1      30.386  -9.499 -21.454  0.00  0.00    +0.152 HD
ENDBRANCH  27  35
ENDBRANCH   5  27
TORSDOF 9
ENDMDL
MODEL 5
REMARK VINA RESULT:     -10.7      2.813     10.254
REMARK  Name = 52920501
REMARK  9 active torsions:
REMARK  status: ('A' for Active; 'I' for Inactive)
REMARK    1  A    between atoms: N_1  and  C_12
REMARK    2  A    between atoms: C_5  and  O_27
REMARK    3  A    between atoms: C_9  and  C_15
REMARK    4  A    between atoms: C_15  and  S_16
REMARK    5  A    between atoms: S_16  and  N_19
REMARK    6  A    between atoms: N_19  and  C_21
REMARK    7  A    between atoms: C_21  and  C_22
REMARK    8  A    between atoms: C_22  and  N_23
REMARK    9  A    between atoms: O_27  and  C_35
REMARK                            x       y       z     vdW  Elec       q    Type
REMARK                         _______ _______ _______ _____ _____    ______ ____
ROOT
ATOM      1  N   UNL     1      34.107 -22.561 -17.249  0.00  0.00    -0.247 N 
ATOM      2  N   UNL     1      34.973 -21.027 -18.799  0.00  0.00    -0.300 NA
ATOM      3  N   UNL     1      32.690 -21.785 -18.951  0.00  0.00    -0.170 NA
ATOM      4  C   UNL     1      33.914 -21.751 -18.389  0.00  0.00    +0.152 C 
ATOM      5  C   UNL     1      34.753 -20.266 -19.891  0.00  0.00    +0.295 C 
ATOM      6  C   UNL     1      33.547 -20.212 -20.559  0.00  0.00    +0.094 C 
ATOM      7  C   UNL     1      32.541 -21.001 -20.039  0.00  0.00    +0.118 C 
ATOM      8  H   UNL     1      33.307 -23.071 -16.985  0.00  0.00    +0.165 HD
ENDROOT
BRANCH   1  12
ATOM      9  C   UNL     1      36.231 -23.899 -14.528  0.00  0.00    +0.004 C 
ATOM     10  C   UNL     1      35.129 -23.682 -15.355  0.00  0.00    +0.013 C 
ATOM     11  C   UNL     1      37.423 -23.212 -14.760  0.00  0.00    -0.002 C 
ATOM     12  C   UNL     1      35.218 -22.780 -16.414  0.00  0.00    +0.057 C 
ATOM     13  C   UNL     1      37.513 -22.308 -15.820  0.00  0.00    +0.001 C 
ATOM     14  C   UNL     1      36.410 -22.092 -16.646  0.00  0.00    +0.015 C 
BRANCH   9  15
ATOM     15  C   UNL     1      36.136 -24.865 -13.396  0.00  0.00    +0.195 C 
BRANCH  15  16
ATOM     16  S   UNL     1      35.510 -23.997 -11.994  0.00  0.00    +0.045 S 
ATOM     17  O   UNL     1      35.272 -24.955 -10.927  0.00  0.00    -0.157 OA
ATOM     18  O   UNL     1      36.365 -22.843 -11.763  0.00  0.00    -0.157 OA
BRANCH  16  19
ATOM     19  N   UNL     1      34.012 -23.435 -12.598  0.00  0.00    -0.185 NA
ATOM     20  H   UNL     1      34.202 -22.981 -13.492  0.00  0.00    +0.148 HD
BRANCH  19  21
ATOM     21  C   UNL     1      32.926 -24.405 -12.829  0.00  0.00    +0.068 C 
BRANCH  21  22
ATOM     22  C   UNL     1      31.689 -23.666 -13.318  0.00  0.00    -0.058 C 
BRANCH  22  23
ATOM     23  N   UNL     1      31.193 -24.270 -14.549  0.00  0.00    +0.385 N 
ATOM     24  C   UNL     1      29.969 -25.031 -14.294  0.00  0.00    -0.101 C 
ATOM     25  C   UNL     1      30.950 -23.245 -15.566  0.00  0.00    -0.101 C 
ATOM     26  H   UNL     1      31.906 -24.911 -14.898  0.00  0.00    -0.080 HD
ENDBRANCH  22  23
ENDBRANCH  21  22
ENDBRANCH  19  21
ENDBRANCH  16  19
ENDBRANCH  15  16
ENDBRANCH   9  15
ENDBRANCH   1  12
BRANCH   5  27
ATOM     27  O   UNL     1      35.813 -19.502 -20.351  0.00  0.00    -0.427 OA
BRANCH  27  35
ATOM     28  N   UNL     1      34.641 -15.222 -23.571  0.00  0.00    -0.316 N 
ATOM     29  C   UNL     1      34.940 -16.154 -21.566  0.00  0.00    +0.017 C 
ATOM     30  C   UNL     1      34.956 -16.404 -22.940  0.00  0.00    +0.048 C 
ATOM     31  C   UNL     1      34.427 -14.236 -22.647  0.00  0.00    +0.026 C 
ATOM     32  C   UNL     1      34.605 -14.782 -21.396  0.00  0.00    +0.012 C 
ATOM     33  C   UNL     1      35.232 -17.210 -20.681  0.00  0.00    +0.039 C 
ATOM     34  C   UNL     1      35.251 -17.663 -23.475  0.00  0.00    +0.018 C 
ATOM     35  C   UNL     1      35.529 -18.475 -21.201  0.00  0.00    +0.148 C 
ATOM     36  C   UNL     1      35.537 -18.696 -22.577  0.00  0.00    +0.039 C 
ATOM     37  C   UNL     1      34.072 -12.865 -23.057  0.00  0.00    +0.047 C 
ATOM     38  H   UNL     1      34.579 -15.103 -24.547  0.00  0.00    +0.152 HD
ENDBRANCH  27  35
ENDBRANCH   5  27
TORSDOF 9
ENDMDL
MODEL 6
REMARK VINA RESULT:     -10.6      2.831     11.256
REMARK  Name = 52920501
REMARK  9 active torsions:
REMARK  status: ('A' for Active; 'I' for Inactive)
REMARK    1  A    between atoms: N_1  and  C_12
REMARK    2  A    between atoms: C_5  and  O_27
REMARK    3  A    between atoms: C_9  and  C_15
REMARK    4  A    between atoms: C_15  and  S_16
REMARK    5  A    between atoms: S_16  and  N_19
REMARK    6  A    between atoms: N_19  and  C_21
REMARK    7  A    between atoms: C_21  and  C_22
REMARK    8  A    between atoms: C_22  and  N_23
REMARK    9  A    between atoms: O_27  and  C_35
REMARK                            x       y       z     vdW  Elec       q    Type
REMARK                         _______ _______ _______ _____ _____    ______ ____
ROOT
ATOM      1  N   UNL     1      34.232 -22.383 -17.399  0.00  0.00    -0.247 N 
ATOM      2  N   UNL     1      35.016 -20.894 -19.034  0.00  0.00    -0.300 NA
ATOM      3  N   UNL     1      32.722 -21.632 -19.031  0.00  0.00    -0.170 NA
ATOM      4  C   UNL     1      33.978 -21.597 -18.544  0.00  0.00    +0.152 C 
ATOM      5  C   UNL     1      34.738 -20.155 -20.128  0.00  0.00    +0.295 C 
ATOM      6  C   UNL     1      33.494 -20.104 -20.723  0.00  0.00    +0.094 C 
ATOM      7  C   UNL     1      32.515 -20.871 -20.125  0.00  0.00    +0.118 C 
ATOM      8  H   UNL     1      33.445 -22.879 -17.076  0.00  0.00    +0.165 HD
ENDROOT
BRANCH   1  12
ATOM      9  C   UNL     1      36.508 -23.689 -14.787  0.00  0.00    +0.004 C 
ATOM     10  C   UNL     1      35.360 -23.480 -15.550  0.00  0.00    +0.013 C 
ATOM     11  C   UNL     1      37.687 -23.012 -15.100  0.00  0.00    -0.002 C 
ATOM     12  C   UNL     1      35.390 -22.595 -16.628  0.00  0.00    +0.057 C 
ATOM     13  C   UNL     1      37.718 -22.126 -16.178  0.00  0.00    +0.001 C 
ATOM     14  C   UNL     1      36.569 -21.917 -16.941  0.00  0.00    +0.015 C 
BRANCH   9  15
ATOM     15  C   UNL     1      36.476 -24.636 -13.635  0.00  0.00    +0.195 C 
BRANCH  15  16
ATOM     16  S   UNL     1      37.032 -26.208 -14.211  0.00  0.00    +0.045 S 
ATOM     17  O   UNL     1      36.135 -26.658 -15.262  0.00  0.00    -0.157 OA
ATOM     18  O   UNL     1      38.462 -26.112 -14.461  0.00  0.00    -0.157 OA
BRANCH  16  19
ATOM     19  N   UNL     1      36.801 -27.168 -12.814  0.00  0.00    -0.185 NA
ATOM     20  H   UNL     1      35.820 -27.448 -12.803  0.00  0.00    +0.148 HD
BRANCH  19  21
ATOM     21  C   UNL     1      37.601 -28.395 -12.651  0.00  0.00    +0.068 C 
BRANCH  21  22
ATOM     22  C   UNL     1      37.300 -29.348 -13.798  0.00  0.00    -0.058 C 
BRANCH  22  23
ATOM     23  N   UNL     1      38.284 -29.187 -14.861  0.00  0.00    +0.385 N 
ATOM     24  C   UNL     1      39.597 -29.669 -14.426  0.00  0.00    -0.101 C 
ATOM     25  C   UNL     1      37.859 -29.893 -16.071  0.00  0.00    -0.101 C 
ATOM     26  H   UNL     1      38.360 -28.192 -15.076  0.00  0.00    -0.080 HD
ENDBRANCH  22  23
ENDBRANCH  21  22
ENDBRANCH  19  21
ENDBRANCH  16  19
ENDBRANCH  15  16
ENDBRANCH   9  15
ENDBRANCH   1  12
BRANCH   5  27
ATOM     27  O   UNL     1      35.774 -19.413 -20.668  0.00  0.00    -0.427 OA
BRANCH  27  35
ATOM     28  N   UNL     1      34.451 -15.057 -23.723  0.00  0.00    -0.316 N 
ATOM     29  C   UNL     1      34.907 -16.023 -21.764  0.00  0.00    +0.017 C 
ATOM     30  C   UNL     1      34.783 -16.257 -23.136  0.00  0.00    +0.048 C 
ATOM     31  C   UNL     1      34.360 -14.075 -22.774  0.00  0.00    +0.026 C 
ATOM     32  C   UNL     1      34.638 -14.642 -21.551  0.00  0.00    +0.012 C 
ATOM     33  C   UNL     1      35.245 -17.099 -20.920  0.00  0.00    +0.039 C 
ATOM     34  C   UNL     1      34.981 -17.519 -23.707  0.00  0.00    +0.018 C 
ATOM     35  C   UNL     1      35.447 -18.367 -21.478  0.00  0.00    +0.148 C 
ATOM     36  C   UNL     1      35.316 -18.571 -22.850  0.00  0.00    +0.039 C 
ATOM     37  C   UNL     1      34.016 -12.689 -23.136  0.00  0.00    +0.047 C 
ATOM     38  H   UNL     1      34.300 -14.924 -24.687  0.00  0.00    +0.152 HD
ENDBRANCH  27  35
ENDBRANCH   5  27
TORSDOF 9
ENDMDL
MODEL 7
REMARK VINA RESULT:     -10.3      4.012      8.504
REMARK  Name = 52920501
REMARK  9 active torsions:
REMARK  status: ('A' for Active; 'I' for Inactive)
REMARK    1  A    between atoms: N_1  and  C_12
REMARK    2  A    between atoms: C_5  and  O_27
REMARK    3  A    between atoms: C_9  and  C_15
REMARK    4  A    between atoms: C_15  and  S_16
REMARK    5  A    between atoms: S_16  and  N_19
REMARK    6  A    between atoms: N_19  and  C_21
REMARK    7  A    between atoms: C_21  and  C_22
REMARK    8  A    between atoms: C_22  and  N_23
REMARK    9  A    between atoms: O_27  and  C_35
REMARK                            x       y       z     vdW  Elec       q    Type
REMARK                         _______ _______ _______ _____ _____    ______ ____
ROOT
ATOM      1  N   UNL     1      33.249 -15.520 -24.835  0.00  0.00    -0.247 N 
ATOM      2  N   UNL     1      34.552 -16.710 -23.288  0.00  0.00    -0.300 NA
ATOM      3  N   UNL     1      33.311 -17.859 -25.005  0.00  0.00    -0.170 NA
ATOM      4  C   UNL     1      33.728 -16.757 -24.352  0.00  0.00    +0.152 C 
ATOM      5  C   UNL     1      34.990 -17.910 -22.854  0.00  0.00    +0.295 C 
ATOM      6  C   UNL     1      34.638 -19.111 -23.434  0.00  0.00    +0.094 C 
ATOM      7  C   UNL     1      33.788 -19.024 -24.518  0.00  0.00    +0.118 C 
ATOM      8  H   UNL     1      32.650 -15.602 -25.613  0.00  0.00    +0.165 HD
ENDROOT
BRANCH   1  12
ATOM      9  C   UNL     1      33.680 -12.558 -22.655  0.00  0.00    +0.004 C 
ATOM     10  C   UNL     1      33.470 -13.875 -23.063  0.00  0.00    +0.013 C 
ATOM     11  C   UNL     1      33.878 -11.556 -23.606  0.00  0.00    -0.002 C 
ATOM     12  C   UNL     1      33.460 -14.191 -24.422  0.00  0.00    +0.057 C 
ATOM     13  C   UNL     1      33.867 -11.872 -24.965  0.00  0.00    +0.001 C 
ATOM     14  C   UNL     1      33.658 -13.190 -25.372  0.00  0.00    +0.015 C 
BRANCH   9  15
ATOM     15  C   UNL     1      33.692 -12.221 -21.202  0.00  0.00    +0.195 C 
BRANCH  15  16
ATOM     16  S   UNL     1      32.044 -12.386 -20.594  0.00  0.00    +0.045 S 
ATOM     17  O   UNL     1      31.121 -12.073 -21.672  0.00  0.00    -0.157 OA
ATOM     18  O   UNL     1      31.950 -13.660 -19.897  0.00  0.00    -0.157 OA
BRANCH  16  19
ATOM     19  N   UNL     1      32.000 -11.137 -19.426  0.00  0.00    -0.185 NA
ATOM     20  H   UNL     1      32.960 -10.982 -19.117  0.00  0.00    +0.148 HD
BRANCH  19  21
ATOM     21  C   UNL     1      31.451  -9.823 -19.806  0.00  0.00    +0.068 C 
BRANCH  21  22
ATOM     22  C   UNL     1      32.408  -8.730 -19.354  0.00  0.00    -0.058 C 
BRANCH  22  23
ATOM     23  N   UNL     1      32.742  -7.856 -20.472  0.00  0.00    +0.385 N 
ATOM     24  C   UNL     1      32.448  -8.514 -21.746  0.00  0.00    -0.101 C 
ATOM     25  C   UNL     1      32.013  -6.590 -20.374  0.00  0.00    -0.101 C 
ATOM     26  H   UNL     1      33.742  -7.658 -20.433  0.00  0.00    -0.080 HD
ENDBRANCH  22  23
ENDBRANCH  21  22
ENDBRANCH  19  21
ENDBRANCH  16  19
ENDBRANCH  15  16
ENDBRANCH   9  15
ENDBRANCH   1  12
BRANCH   5  27
ATOM     27  O   UNL     1      35.841 -17.913 -21.762  0.00  0.00    -0.427 OA
BRANCH  27  35
ATOM     28  N   UNL     1      35.211 -22.104 -18.284  0.00  0.00    -0.316 N 
ATOM     29  C   UNL     1      34.398 -20.556 -19.670  0.00  0.00    +0.017 C 
ATOM     30  C   UNL     1      35.573 -21.072 -19.120  0.00  0.00    +0.048 C 
ATOM     31  C   UNL     1      33.851 -22.258 -18.285  0.00  0.00    +0.026 C 
ATOM     32  C   UNL     1      33.319 -21.313 -19.134  0.00  0.00    +0.012 C 
ATOM     33  C   UNL     1      34.487 -19.477 -20.571  0.00  0.00    +0.039 C 
ATOM     34  C   UNL     1      36.838 -20.561 -19.428  0.00  0.00    +0.018 C 
ATOM     35  C   UNL     1      35.746 -18.956 -20.890  0.00  0.00    +0.148 C 
ATOM     36  C   UNL     1      36.903 -19.491 -20.326  0.00  0.00    +0.039 C 
ATOM     37  C   UNL     1      33.196 -23.297 -17.470  0.00  0.00    +0.047 C 
ATOM     38  H   UNL     1      35.839 -22.652 -17.760  0.00  0.00    +0.152 HD
ENDBRANCH  27  35
ENDBRANCH   5  27
TORSDOF 9
ENDMDL
MODEL 8
REMARK VINA RESULT:     -10.1      7.857     17.181
REMARK  Name = 52920501
REMARK  9 active torsions:
REMARK  status: ('A' for Active; 'I' for Inactive)
REMARK    1  A    between atoms: N_1  and  C_12
REMARK    2  A    between atoms: C_5  and  O_27
REMARK    3  A    between atoms: C_9  and  C_15
REMARK    4  A    between atoms: C_15  and  S_16
REMARK    5  A    between atoms: S_16  and  N_19
REMARK    6  A    between atoms: N_19  and  C_21
REMARK    7  A    between atoms: C_21  and  C_22
REMARK    8  A    between atoms: C_22  and  N_23
REMARK    9  A    between atoms: O_27  and  C_35
REMARK                            x       y       z     vdW  Elec       q    Type
REMARK                         _______ _______ _______ _____ _____    ______ ____
ROOT
ATOM      1  N   UNL     1      33.122  -8.373 -21.856  0.00  0.00    -0.247 N 
ATOM      2  N   UNL     1      32.076  -6.601 -22.982  0.00  0.00    -0.300 NA
ATOM      3  N   UNL     1      31.958  -6.783 -20.582  0.00  0.00    -0.170 NA
ATOM      4  C   UNL     1      32.347  -7.194 -21.804  0.00  0.00    +0.152 C 
ATOM      5  C   UNL     1      31.333  -5.478 -22.895  0.00  0.00    +0.295 C 
ATOM      6  C   UNL     1      30.872  -4.952 -21.706  0.00  0.00    +0.094 C 
ATOM      7  C   UNL     1      31.219  -5.655 -20.569  0.00  0.00    +0.118 C 
ATOM      8  H   UNL     1      33.296  -8.772 -20.972  0.00  0.00    +0.165 HD
ENDROOT
BRANCH   1  12
ATOM      9  C   UNL     1      33.740 -11.035 -24.354  0.00  0.00    +0.004 C 
ATOM     10  C   UNL     1      33.171 -10.326 -23.296  0.00  0.00    +0.013 C 
ATOM     11  C   UNL     1      34.835 -10.507 -25.038  0.00  0.00    -0.002 C 
ATOM     12  C   UNL     1      33.696  -9.089 -22.923  0.00  0.00    +0.057 C 
ATOM     13  C   UNL     1      35.361  -9.269 -24.665  0.00  0.00    +0.001 C 
ATOM     14  C   UNL     1      34.791  -8.561 -23.607  0.00  0.00    +0.015 C 
BRANCH   9  15
ATOM     15  C   UNL     1      33.179 -12.357 -24.753  0.00  0.00    +0.195 C 
BRANCH  15  16
ATOM     16  S   UNL     1      33.427 -13.479 -23.414  0.00  0.00    +0.045 S 
ATOM     17  O   UNL     1      34.775 -13.295 -22.903  0.00  0.00    -0.157 OA
ATOM     18  O   UNL     1      32.285 -13.368 -22.520  0.00  0.00    -0.157 OA
BRANCH  16  19
ATOM     19  N   UNL     1      33.324 -14.982 -24.223  0.00  0.00    -0.185 NA
ATOM     20  H   UNL     1      33.004 -14.790 -25.172  0.00  0.00    +0.148 HD
BRANCH  19  21
ATOM     21  C   UNL     1      34.534 -15.816 -24.337  0.00  0.00    +0.068 C 
BRANCH  21  22
ATOM     22  C   UNL     1      34.155 -17.279 -24.154  0.00  0.00    -0.058 C 
BRANCH  22  23
ATOM     23  N   UNL     1      35.090 -17.934 -23.248  0.00  0.00    +0.385 N 
ATOM     24  C   UNL     1      35.397 -17.067 -22.108  0.00  0.00    -0.101 C 
ATOM     25  C   UNL     1      34.548 -19.211 -22.781  0.00  0.00    -0.101 C 
ATOM     26  H   UNL     1      35.954 -18.115 -23.759  0.00  0.00    -0.080 HD
ENDBRANCH  22  23
ENDBRANCH  21  22
ENDBRANCH  19  21
ENDBRANCH  16  19
ENDBRANCH  15  16
ENDBRANCH   9  15
ENDBRANCH   1  12
BRANCH   5  27
ATOM     27  O   UNL     1      31.028  -4.831 -24.081  0.00  0.00    -0.427 OA
BRANCH  27  35
ATOM     28  N   UNL     1      35.207  -2.373 -26.641  0.00  0.00    -0.316 N 
ATOM     29  C   UNL     1      34.222  -4.169 -25.757  0.00  0.00    +0.017 C 
ATOM     30  C   UNL     1      34.068  -2.802 -25.999  0.00  0.00    +0.048 C 
ATOM     31  C   UNL     1      36.074  -3.418 -26.814  0.00  0.00    +0.026 C 
ATOM     32  C   UNL     1      35.493  -4.544 -26.276  0.00  0.00    +0.012 C 
ATOM     33  C   UNL     1      33.186  -4.863 -25.102  0.00  0.00    +0.039 C 
ATOM     34  C   UNL     1      32.925  -2.092 -25.617  0.00  0.00    +0.018 C 
ATOM     35  C   UNL     1      32.036  -4.166 -24.714  0.00  0.00    +0.148 C 
ATOM     36  C   UNL     1      31.909  -2.802 -24.969  0.00  0.00    +0.039 C 
ATOM     37  C   UNL     1      37.378  -3.232 -27.477  0.00  0.00    +0.047 C 
ATOM     38  H   UNL     1      35.375  -1.448 -26.935  0.00  0.00    +0.152 HD
ENDBRANCH  27  35
ENDBRANCH   5  27
TORSDOF 9
ENDMDL
MODEL 9
REMARK VINA RESULT:      -9.9      2.964     10.252
REMARK  Name = 52920501
REMARK  9 active torsions:
REMARK  status: ('A' for Active; 'I' for Inactive)
REMARK    1  A    between atoms: N_1  and  C_12
REMARK    2  A    between atoms: C_5  and  O_27
REMARK    3  A    between atoms: C_9  and  C_15
REMARK    4  A    between atoms: C_15  and  S_16
REMARK    5  A    between atoms: S_16  and  N_19
REMARK    6  A    between atoms: N_19  and  C_21
REMARK    7  A    between atoms: C_21  and  C_22
REMARK    8  A    between atoms: C_22  and  N_23
REMARK    9  A    between atoms: O_27  and  C_35
REMARK                            x       y       z     vdW  Elec       q    Type
REMARK                         _______ _______ _______ _____ _____    ______ ____
ROOT
ATOM      1  N   UNL     1      33.758 -23.731 -15.047  0.00  0.00    -0.247 N 
ATOM      2  N   UNL     1      34.968 -22.731 -16.791  0.00  0.00    -0.300 NA
ATOM      3  N   UNL     1      32.559 -22.798 -16.836  0.00  0.00    -0.170 NA
ATOM      4  C   UNL     1      33.762 -23.053 -16.286  0.00  0.00    +0.152 C 
ATOM      5  C   UNL     1      34.934 -22.085 -17.976  0.00  0.00    +0.295 C 
ATOM      6  C   UNL     1      33.770 -21.765 -18.642  0.00  0.00    +0.094 C 
ATOM      7  C   UNL     1      32.600 -22.150 -18.019  0.00  0.00    +0.118 C 
ATOM      8  H   UNL     1      32.856 -23.946 -14.716  0.00  0.00    +0.165 HD
ENDROOT
BRANCH   1  12
ATOM      9  C   UNL     1      36.861 -25.356 -13.847  0.00  0.00    +0.004 C 
ATOM     10  C   UNL     1      35.837 -24.933 -14.695  0.00  0.00    +0.013 C 
ATOM     11  C   UNL     1      36.838 -25.005 -12.497  0.00  0.00    -0.002 C 
ATOM     12  C   UNL     1      34.791 -24.159 -14.193  0.00  0.00    +0.057 C 
ATOM     13  C   UNL     1      35.792 -24.231 -11.994  0.00  0.00    +0.001 C 
ATOM     14  C   UNL     1      34.768 -23.808 -12.843  0.00  0.00    +0.015 C 
BRANCH   9  15
ATOM     15  C   UNL     1      37.980 -26.182 -14.384  0.00  0.00    +0.195 C 
BRANCH  15  16
ATOM     16  S   UNL     1      39.454 -25.215 -14.309  0.00  0.00    +0.045 S 
ATOM     17  O   UNL     1      39.262 -24.020 -15.113  0.00  0.00    -0.157 OA
ATOM     18  O   UNL     1      39.843 -25.102 -12.912  0.00  0.00    -0.157 OA
BRANCH  16  19
ATOM     19  N   UNL     1      40.567 -26.254 -15.088  0.00  0.00    -0.185 NA
ATOM     20  H   UNL     1      41.114 -26.709 -14.357  0.00  0.00    +0.148 HD
BRANCH  19  21
ATOM     21  C   UNL     1      40.054 -27.319 -15.969  0.00  0.00    +0.068 C 
BRANCH  21  22
ATOM     22  C   UNL     1      40.852 -28.593 -15.734  0.00  0.00    -0.058 C 
BRANCH  22  23
ATOM     23  N   UNL     1      39.970 -29.669 -15.298  0.00  0.00    +0.385 N 
ATOM     24  C   UNL     1      39.796 -29.635 -13.844  0.00  0.00    -0.101 C 
ATOM     25  C   UNL     1      38.672 -29.576 -15.967  0.00  0.00    -0.101 C 
ATOM     26  H   UNL     1      40.403 -30.557 -15.552  0.00  0.00    -0.080 HD
ENDBRANCH  22  23
ENDBRANCH  21  22
ENDBRANCH  19  21
ENDBRANCH  16  19
ENDBRANCH  15  16
ENDBRANCH   9  15
ENDBRANCH   1  12
BRANCH   5  27
ATOM     27  O   UNL     1      36.150 -21.732 -18.536  0.00  0.00    -0.427 OA
BRANCH  27  35
ATOM     28  N   UNL     1      35.947 -17.797 -22.348  0.00  0.00    -0.316 N 
ATOM     29  C   UNL     1      35.134 -19.624 -21.359  0.00  0.00    +0.017 C 
ATOM     30  C   UNL     1      36.173 -18.692 -21.327  0.00  0.00    +0.048 C 
ATOM     31  C   UNL     1      34.804 -18.130 -23.024  0.00  0.00    +0.026 C 
ATOM     32  C   UNL     1      34.277 -19.257 -22.435  0.00  0.00    +0.012 C 
ATOM     33  C   UNL     1      35.124 -20.663 -20.407  0.00  0.00    +0.039 C 
ATOM     34  C   UNL     1      37.207 -18.747 -20.386  0.00  0.00    +0.018 C 
ATOM     35  C   UNL     1      36.152 -20.730 -19.460  0.00  0.00    +0.148 C 
ATOM     36  C   UNL     1      37.177 -19.786 -19.452  0.00  0.00    +0.039 C 
ATOM     37  C   UNL     1      34.331 -17.333 -24.170  0.00  0.00    +0.047 C 
ATOM     38  H   UNL     1      36.524 -17.028 -22.562  0.00  0.00    +0.152 HD
ENDBRANCH  27  35
ENDBRANCH   5  27
TORSDOF 9
ENDMDL
