MODEL 1
REMARK VINA RESULT:     -11.1      0.000      0.000
REMARK  Name = 176407
REMARK  5 active torsions:
REMARK  status: ('A' for Active; 'I' for Inactive)
REMARK    1  A    between atoms: N_1  and  C_20
REMARK    2  A    between atoms: C_11  and  C_16
REMARK    3  A    between atoms: C_20  and  C_21
REMARK    4  A    between atoms: C_21  and  C_22
REMARK    5  A    between atoms: C_27  and  O_28
REMARK                            x       y       z     vdW  Elec       q    Type
REMARK                         _______ _______ _______ _____ _____    ______ ____
ROOT
ATOM      1  N   UNL     1      36.170 -21.083 -19.407  0.00  0.00    -0.258 N 
ATOM      2  N   UNL     1      33.826 -22.756 -16.639  0.00  0.00    -0.059 N 
ATOM      3  N   UNL     1      34.034 -21.641 -18.693  0.00  0.00    -0.245 NA
ATOM      4  N   UNL     1      35.926 -22.206 -17.344  0.00  0.00    -0.294 NA
ATOM      5  N   UNL     1      32.919 -23.280 -15.801  0.00  0.00    -0.090 NA
ATOM      6  N   UNL     1      31.942 -22.368 -17.659  0.00  0.00    -0.267 NA
ATOM      7  N   UNL     1      35.660 -23.333 -15.274  0.00  0.00    -0.318 N 
ATOM      8  C   UNL     1      35.332 -21.650 -18.476  0.00  0.00    +0.213 C 
ATOM      9  C   UNL     1      33.247 -22.212 -17.749  0.00  0.00    +0.251 C 
ATOM     10  C   UNL     1      35.191 -22.758 -16.424  0.00  0.00    +0.282 C 
ATOM     11  C   UNL     1      31.791 -23.018 -16.466  0.00  0.00    +0.153 C 
ATOM     12  H   UNL     1      37.141 -21.091 -19.241  0.00  0.00    +0.160 HD
ATOM     13  H   UNL     1      35.030 -23.730 -14.629  0.00  0.00    +0.146 HD
ATOM     14  H   UNL     1      36.627 -23.351 -15.091  0.00  0.00    +0.146 HD
ENDROOT
BRANCH  11  16
ATOM     15  O   UNL     1      29.290 -22.899 -16.392  0.00  0.00    -0.439 OA
ATOM     16  C   UNL     1      30.468 -23.407 -15.946  0.00  0.00    +0.221 C 
ATOM     17  C   UNL     1      30.249 -24.326 -14.946  0.00  0.00    +0.052 C 
ATOM     18  C   UNL     1      28.846 -24.387 -14.767  0.00  0.00    +0.045 C 
ATOM     19  C   UNL     1      28.308 -23.500 -15.670  0.00  0.00    +0.181 C 
ENDBRANCH  11  16
BRANCH   1  20
ATOM     20  C   UNL     1      35.678 -20.484 -20.606  0.00  0.00    +0.103 C 
BRANCH  20  21
ATOM     21  C   UNL     1      36.028 -18.997 -20.658  0.00  0.00    +0.048 C 
BRANCH  21  22
ATOM     22  C   UNL     1      35.449 -18.293 -21.860  0.00  0.00    -0.020 C 
ATOM     23  C   UNL     1      35.537 -16.913 -21.948  0.00  0.00    -0.001 C 
ATOM     24  C   UNL     1      34.838 -19.040 -22.855  0.00  0.00    -0.001 C 
ATOM     25  C   UNL     1      35.001 -16.263 -23.059  0.00  0.00    +0.036 C 
ATOM     26  C   UNL     1      34.302 -18.390 -23.966  0.00  0.00    +0.036 C 
ATOM     27  C   UNL     1      34.384 -17.001 -24.069  0.00  0.00    +0.134 C 
BRANCH  27  28
ATOM     28  O   UNL     1      33.861 -16.366 -25.153  0.00  0.00    -0.506 OA
ATOM     29  H   UNL     1      33.297 -15.627 -25.036  0.00  0.00    +0.292 HD
ENDBRANCH  27  28
ENDBRANCH  21  22
ENDBRANCH  20  21
ENDBRANCH   1  20
TORSDOF 5
ENDMDL
MODEL 2
REMARK VINA RESULT:     -10.9      5.168      9.627
REMARK  Name = 176407
REMARK  5 active torsions:
REMARK  status: ('A' for Active; 'I' for Inactive)
REMARK    1  A    between atoms: N_1  and  C_20
REMARK    2  A    between atoms: C_11  and  C_16
REMARK    3  A    between atoms: C_20  and  C_21
REMARK    4  A    between atoms: C_21  and  C_22
REMARK    5  A    between atoms: C_27  and  O_28
REMARK                            x       y       z     vdW  Elec       q    Type
REMARK                         _______ _______ _______ _____ _____    ______ ____
ROOT
ATOM      1  N   UNL     1      35.966 -17.734 -22.250  0.00  0.00    -0.258 N 
ATOM      2  N   UNL     1      33.832 -14.450 -23.039  0.00  0.00    -0.059 N 
ATOM      3  N   UNL     1      34.895 -15.830 -21.466  0.00  0.00    -0.245 NA
ATOM      4  N   UNL     1      34.887 -16.323 -23.806  0.00  0.00    -0.294 NA
ATOM      5  N   UNL     1      33.119 -13.320 -23.150  0.00  0.00    -0.090 NA
ATOM      6  N   UNL     1      33.684 -13.764 -20.977  0.00  0.00    -0.267 NA
ATOM      7  N   UNL     1      33.796 -14.894 -25.354  0.00  0.00    -0.318 N 
ATOM      8  C   UNL     1      35.232 -16.594 -22.482  0.00  0.00    +0.213 C 
ATOM      9  C   UNL     1      34.172 -14.718 -21.744  0.00  0.00    +0.251 C 
ATOM     10  C   UNL     1      34.192 -15.262 -24.097  0.00  0.00    +0.282 C 
ATOM     11  C   UNL     1      33.056 -12.942 -21.871  0.00  0.00    +0.153 C 
ATOM     12  H   UNL     1      36.216 -18.303 -23.013  0.00  0.00    +0.160 HD
ATOM     13  H   UNL     1      33.271 -14.071 -25.483  0.00  0.00    +0.146 HD
ATOM     14  H   UNL     1      34.037 -15.451 -26.129  0.00  0.00    +0.146 HD
ENDROOT
BRANCH  11  16
ATOM     15  O   UNL     1      32.243 -10.597 -22.214  0.00  0.00    -0.439 OA
ATOM     16  C   UNL     1      32.355 -11.715 -21.451  0.00  0.00    +0.221 C 
ATOM     17  C   UNL     1      31.728 -11.537 -20.239  0.00  0.00    +0.052 C 
ATOM     18  C   UNL     1      31.196 -10.226 -20.260  0.00  0.00    +0.045 C 
ATOM     19  C   UNL     1      31.536  -9.696 -21.483  0.00  0.00    +0.181 C 
ENDBRANCH  11  16
BRANCH   1  20
ATOM     20  C   UNL     1      36.378 -18.115 -20.937  0.00  0.00    +0.103 C 
BRANCH  20  21
ATOM     21  C   UNL     1      36.567 -19.628 -20.841  0.00  0.00    +0.048 C 
BRANCH  21  22
ATOM     22  C   UNL     1      35.433 -20.323 -20.127  0.00  0.00    -0.020 C 
ATOM     23  C   UNL     1      34.125 -19.991 -20.443  0.00  0.00    -0.001 C 
ATOM     24  C   UNL     1      35.721 -21.280 -19.167  0.00  0.00    -0.001 C 
ATOM     25  C   UNL     1      33.078 -20.632 -19.783  0.00  0.00    +0.036 C 
ATOM     26  C   UNL     1      34.674 -21.921 -18.506  0.00  0.00    +0.036 C 
ATOM     27  C   UNL     1      33.352 -21.597 -18.814  0.00  0.00    +0.134 C 
BRANCH  27  28
ATOM     28  O   UNL     1      32.329 -22.223 -18.170  0.00  0.00    -0.506 OA
ATOM     29  H   UNL     1      31.814 -21.755 -17.543  0.00  0.00    +0.292 HD
ENDBRANCH  27  28
ENDBRANCH  21  22
ENDBRANCH  20  21
ENDBRANCH   1  20
TORSDOF 5
ENDMDL
MODEL 3
REMARK VINA RESULT:     -10.7      3.335      4.935
REMARK  Name = 176407
REMARK  5 active torsions:
REMARK  status: ('A' for Active; 'I' for Inactive)
REMARK    1  A    between atoms: N_1  and  C_20
REMARK    2  A    between atoms: C_11  and  C_16
REMARK    3  A    between atoms: C_20  and  C_21
REMARK    4  A    between atoms: C_21  and  C_22
REMARK    5  A    between atoms: C_27  and  O_28
REMARK                            x       y       z     vdW  Elec       q    Type
REMARK                         _______ _______ _______ _____ _____    ______ ____
ROOT
ATOM      1  N   UNL     1      32.377 -22.278 -18.259  0.00  0.00    -0.258 N 
ATOM      2  N   UNL     1      32.864 -23.507 -14.489  0.00  0.00    -0.059 N 
ATOM      3  N   UNL     1      33.816 -22.864 -16.535  0.00  0.00    -0.245 NA
ATOM      4  N   UNL     1      31.451 -22.931 -16.186  0.00  0.00    -0.294 NA
ATOM      5  N   UNL     1      33.181 -23.914 -13.251  0.00  0.00    -0.090 NA
ATOM      6  N   UNL     1      35.041 -23.535 -14.530  0.00  0.00    -0.267 NA
ATOM      7  N   UNL     1      30.541 -23.591 -14.097  0.00  0.00    -0.318 N 
ATOM      8  C   UNL     1      32.584 -22.700 -16.966  0.00  0.00    +0.213 C 
ATOM      9  C   UNL     1      33.971 -23.280 -15.255  0.00  0.00    +0.251 C 
ATOM     10  C   UNL     1      31.575 -23.332 -14.955  0.00  0.00    +0.282 C 
ATOM     11  C   UNL     1      34.514 -23.915 -13.326  0.00  0.00    +0.153 C 
ATOM     12  H   UNL     1      31.453 -22.158 -18.578  0.00  0.00    +0.160 HD
ATOM     13  H   UNL     1      30.727 -23.891 -13.178  0.00  0.00    +0.146 HD
ATOM     14  H   UNL     1      29.611 -23.475 -14.398  0.00  0.00    +0.146 HD
ENDROOT
BRANCH  11  16
ATOM     15  O   UNL     1      35.019 -24.128 -10.881  0.00  0.00    -0.439 OA
ATOM     16  C   UNL     1      35.363 -24.300 -12.184  0.00  0.00    +0.221 C 
ATOM     17  C   UNL     1      36.608 -24.878 -12.283  0.00  0.00    +0.052 C 
ATOM     18  C   UNL     1      37.056 -25.073 -10.954  0.00  0.00    +0.045 C 
ATOM     19  C   UNL     1      36.054 -24.601 -10.140  0.00  0.00    +0.181 C 
ENDBRANCH  11  16
BRANCH   1  20
ATOM     20  C   UNL     1      33.458 -22.009 -19.151  0.00  0.00    +0.103 C 
BRANCH  20  21
ATOM     21  C   UNL     1      33.223 -20.709 -19.918  0.00  0.00    +0.048 C 
BRANCH  21  22
ATOM     22  C   UNL     1      34.498 -20.081 -20.425  0.00  0.00    -0.020 C 
ATOM     23  C   UNL     1      35.689 -20.334 -19.764  0.00  0.00    -0.001 C 
ATOM     24  C   UNL     1      34.454 -19.262 -21.543  0.00  0.00    -0.001 C 
ATOM     25  C   UNL     1      36.867 -19.753 -20.232  0.00  0.00    +0.036 C 
ATOM     26  C   UNL     1      35.632 -18.681 -22.011  0.00  0.00    +0.036 C 
ATOM     27  C   UNL     1      36.839 -18.927 -21.356  0.00  0.00    +0.134 C 
BRANCH  27  28
ATOM     28  O   UNL     1      37.990 -18.361 -21.813  0.00  0.00    -0.506 OA
ATOM     29  H   UNL     1      37.995 -17.905 -22.631  0.00  0.00    +0.292 HD
ENDBRANCH  27  28
ENDBRANCH  21  22
ENDBRANCH  20  21
ENDBRANCH   1  20
TORSDOF 5
ENDMDL
MODEL 4
REMARK VINA RESULT:     -10.5      1.390      2.259
REMARK  Name = 176407
REMARK  5 active torsions:
REMARK  status: ('A' for Active; 'I' for Inactive)
REMARK    1  A    between atoms: N_1  and  C_20
REMARK    2  A    between atoms: C_11  and  C_16
REMARK    3  A    between atoms: C_20  and  C_21
REMARK    4  A    between atoms: C_21  and  C_22
REMARK    5  A    between atoms: C_27  and  O_28
REMARK                            x       y       z     vdW  Elec       q    Type
REMARK                         _______ _______ _______ _____ _____    ______ ____
ROOT
ATOM      1  N   UNL     1      35.536 -19.746 -21.202  0.00  0.00    -0.258 N 
ATOM      2  N   UNL     1      34.504 -21.841 -17.961  0.00  0.00    -0.059 N 
ATOM      3  N   UNL     1      33.862 -20.696 -19.905  0.00  0.00    -0.245 NA
ATOM      4  N   UNL     1      36.149 -20.907 -19.238  0.00  0.00    -0.294 NA
ATOM      5  N   UNL     1      34.010 -22.529 -16.920  0.00  0.00    -0.090 NA
ATOM      6  N   UNL     1      32.358 -21.803 -18.329  0.00  0.00    -0.267 NA
ATOM      7  N   UNL     1      36.743 -22.075 -17.261  0.00  0.00    -0.318 N 
ATOM      8  C   UNL     1      35.143 -20.465 -20.097  0.00  0.00    +0.213 C 
ATOM      9  C   UNL     1      33.522 -21.407 -18.804  0.00  0.00    +0.251 C 
ATOM     10  C   UNL     1      35.846 -21.591 -18.174  0.00  0.00    +0.282 C 
ATOM     11  C   UNL     1      32.703 -22.477 -17.190  0.00  0.00    +0.153 C 
ATOM     12  H   UNL     1      36.496 -19.575 -21.342  0.00  0.00    +0.160 HD
ATOM     13  H   UNL     1      36.426 -22.586 -16.481  0.00  0.00    +0.146 HD
ATOM     14  H   UNL     1      37.707 -21.914 -17.385  0.00  0.00    +0.146 HD
ENDROOT
BRANCH  11  16
ATOM     15  O   UNL     1      30.358 -23.061 -16.531  0.00  0.00    -0.439 OA
ATOM     16  C   UNL     1      31.698 -23.107 -16.316  0.00  0.00    +0.221 C 
ATOM     17  C   UNL     1      31.979 -23.819 -15.172  0.00  0.00    +0.052 C 
ATOM     18  C   UNL     1      30.730 -24.237 -14.653  0.00  0.00    +0.045 C 
ATOM     19  C   UNL     1      29.776 -23.751 -15.515  0.00  0.00    +0.181 C 
ENDBRANCH  11  16
BRANCH   1  20
ATOM     20  C   UNL     1      34.597 -19.243 -22.153  0.00  0.00    +0.103 C 
BRANCH  20  21
ATOM     21  C   UNL     1      35.299 -18.412 -23.226  0.00  0.00    +0.048 C 
BRANCH  21  22
ATOM     22  C   UNL     1      34.864 -16.967 -23.235  0.00  0.00    -0.020 C 
ATOM     23  C   UNL     1      34.283 -16.440 -24.377  0.00  0.00    -0.001 C 
ATOM     24  C   UNL     1      35.054 -16.193 -22.101  0.00  0.00    -0.001 C 
ATOM     25  C   UNL     1      33.882 -15.104 -24.386  0.00  0.00    +0.036 C 
ATOM     26  C   UNL     1      34.653 -14.858 -22.110  0.00  0.00    +0.036 C 
ATOM     27  C   UNL     1      34.067 -14.313 -23.252  0.00  0.00    +0.134 C 
BRANCH  27  28
ATOM     28  O   UNL     1      33.674 -13.010 -23.262  0.00  0.00    -0.506 OA
ATOM     29  H   UNL     1      33.120 -12.682 -22.581  0.00  0.00    +0.292 HD
ENDBRANCH  27  28
ENDBRANCH  21  22
ENDBRANCH  20  21
ENDBRANCH   1  20
TORSDOF 5
ENDMDL
MODEL 5
REMARK VINA RESULT:     -10.4      7.710     12.395
REMARK  Name = 176407
REMARK  5 active torsions:
REMARK  status: ('A' for Active; 'I' for Inactive)
REMARK    1  A    between atoms: N_1  and  C_20
REMARK    2  A    between atoms: C_11  and  C_16
REMARK    3  A    between atoms: C_20  and  C_21
REMARK    4  A    between atoms: C_21  and  C_22
REMARK    5  A    between atoms: C_27  and  O_28
REMARK                            x       y       z     vdW  Elec       q    Type
REMARK                         _______ _______ _______ _____ _____    ______ ____
ROOT
ATOM      1  N   UNL     1      33.727 -14.565 -22.845  0.00  0.00    -0.258 N 
ATOM      2  N   UNL     1      32.593 -10.755 -22.451  0.00  0.00    -0.059 N 
ATOM      3  N   UNL     1      34.063 -12.332 -23.378  0.00  0.00    -0.245 NA
ATOM      4  N   UNL     1      32.265 -12.953 -21.929  0.00  0.00    -0.294 NA
ATOM      5  N   UNL     1      32.330  -9.441 -22.415  0.00  0.00    -0.090 NA
ATOM      6  N   UNL     1      34.138  -9.916 -23.736  0.00  0.00    -0.267 NA
ATOM      7  N   UNL     1      30.808 -11.318 -21.018  0.00  0.00    -0.318 N 
ATOM      8  C   UNL     1      33.366 -13.243 -22.734  0.00  0.00    +0.213 C 
ATOM      9  C   UNL     1      33.670 -11.043 -23.239  0.00  0.00    +0.251 C 
ATOM     10  C   UNL     1      31.870 -11.722 -21.779  0.00  0.00    +0.282 C 
ATOM     11  C   UNL     1      33.297  -8.975 -23.209  0.00  0.00    +0.153 C 
ATOM     12  H   UNL     1      33.203 -15.244 -22.361  0.00  0.00    +0.160 HD
ATOM     13  H   UNL     1      30.578 -10.361 -20.962  0.00  0.00    +0.146 HD
ATOM     14  H   UNL     1      30.272 -11.982 -20.527  0.00  0.00    +0.146 HD
ENDROOT
BRANCH  11  16
ATOM     15  O   UNL     1      32.407  -6.672 -23.639  0.00  0.00    -0.439 OA
ATOM     16  C   UNL     1      33.445  -7.538 -23.502  0.00  0.00    +0.221 C 
ATOM     17  C   UNL     1      34.644  -6.885 -23.677  0.00  0.00    +0.052 C 
ATOM     18  C   UNL     1      34.321  -5.532 -23.937  0.00  0.00    +0.045 C 
ATOM     19  C   UNL     1      32.948  -5.454 -23.903  0.00  0.00    +0.181 C 
ENDBRANCH  11  16
BRANCH   1  20
ATOM     20  C   UNL     1      34.836 -14.985 -23.641  0.00  0.00    +0.103 C 
BRANCH  20  21
ATOM     21  C   UNL     1      34.646 -16.420 -24.128  0.00  0.00    +0.048 C 
BRANCH  21  22
ATOM     22  C   UNL     1      34.879 -17.448 -23.048  0.00  0.00    -0.020 C 
ATOM     23  C   UNL     1      34.325 -18.712 -23.182  0.00  0.00    -0.001 C 
ATOM     24  C   UNL     1      35.643 -17.110 -21.943  0.00  0.00    -0.001 C 
ATOM     25  C   UNL     1      34.539 -19.661 -22.183  0.00  0.00    +0.036 C 
ATOM     26  C   UNL     1      35.858 -18.060 -20.944  0.00  0.00    +0.036 C 
ATOM     27  C   UNL     1      35.306 -19.336 -21.064  0.00  0.00    +0.134 C 
BRANCH  27  28
ATOM     28  O   UNL     1      35.516 -20.264 -20.091  0.00  0.00    -0.506 OA
ATOM     29  H   UNL     1      35.639 -19.992 -19.203  0.00  0.00    +0.292 HD
ENDBRANCH  27  28
ENDBRANCH  21  22
ENDBRANCH  20  21
ENDBRANCH   1  20
TORSDOF 5
ENDMDL
MODEL 6
REMARK VINA RESULT:     -10.4      2.609      3.962
REMARK  Name = 176407
REMARK  5 active torsions:
REMARK  status: ('A' for Active; 'I' for Inactive)
REMARK    1  A    between atoms: N_1  and  C_20
REMARK    2  A    between atoms: C_11  and  C_16
REMARK    3  A    between atoms: C_20  and  C_21
REMARK    4  A    between atoms: C_21  and  C_22
REMARK    5  A    between atoms: C_27  and  O_28
REMARK                            x       y       z     vdW  Elec       q    Type
REMARK                         _______ _______ _______ _____ _____    ______ ____
ROOT
ATOM      1  N   UNL     1      34.024 -21.278 -19.726  0.00  0.00    -0.258 N 
ATOM      2  N   UNL     1      33.636 -23.076 -16.180  0.00  0.00    -0.059 N 
ATOM      3  N   UNL     1      35.032 -22.185 -17.843  0.00  0.00    -0.245 NA
ATOM      4  N   UNL     1      32.648 -22.182 -18.033  0.00  0.00    -0.294 NA
ATOM      5  N   UNL     1      33.662 -23.677 -14.981  0.00  0.00    -0.090 NA
ATOM      6  N   UNL     1      35.767 -23.209 -15.749  0.00  0.00    -0.267 NA
ATOM      7  N   UNL     1      31.283 -23.097 -16.322  0.00  0.00    -0.318 N 
ATOM      8  C   UNL     1      33.930 -21.897 -18.502  0.00  0.00    +0.213 C 
ATOM      9  C   UNL     1      34.891 -22.794 -16.641  0.00  0.00    +0.251 C 
ATOM     10  C   UNL     1      32.487 -22.767 -16.882  0.00  0.00    +0.282 C 
ATOM     11  C   UNL     1      34.978 -23.735 -14.764  0.00  0.00    +0.153 C 
ATOM     12  H   UNL     1      33.197 -21.064 -20.216  0.00  0.00    +0.160 HD
ATOM     13  H   UNL     1      31.254 -23.539 -15.442  0.00  0.00    +0.146 HD
ATOM     14  H   UNL     1      30.446 -22.890 -16.796  0.00  0.00    +0.146 HD
ENDROOT
BRANCH  11  16
ATOM     15  O   UNL     1      36.495 -25.299 -13.525  0.00  0.00    -0.439 OA
ATOM     16  C   UNL     1      35.544 -24.328 -13.539  0.00  0.00    +0.221 C 
ATOM     17  C   UNL     1      35.188 -23.984 -12.255  0.00  0.00    +0.052 C 
ATOM     18  C   UNL     1      35.970 -24.795 -11.399  0.00  0.00    +0.045 C 
ATOM     19  C   UNL     1      36.748 -25.577 -12.220  0.00  0.00    +0.181 C 
ENDBRANCH  11  16
BRANCH   1  20
ATOM     20  C   UNL     1      35.282 -20.935 -20.308  0.00  0.00    +0.103 C 
BRANCH  20  21
ATOM     21  C   UNL     1      35.519 -19.427 -20.247  0.00  0.00    +0.048 C 
BRANCH  21  22
ATOM     22  C   UNL     1      35.167 -18.719 -21.533  0.00  0.00    -0.020 C 
ATOM     23  C   UNL     1      34.541 -19.426 -22.548  0.00  0.00    -0.001 C 
ATOM     24  C   UNL     1      35.478 -17.376 -21.676  0.00  0.00    -0.001 C 
ATOM     25  C   UNL     1      34.216 -18.772 -23.736  0.00  0.00    +0.036 C 
ATOM     26  C   UNL     1      35.153 -16.723 -22.864  0.00  0.00    +0.036 C 
ATOM     27  C   UNL     1      34.522 -17.420 -23.895  0.00  0.00    +0.134 C 
BRANCH  27  28
ATOM     28  O   UNL     1      34.205 -16.783 -25.055  0.00  0.00    -0.506 OA
ATOM     29  H   UNL     1      33.507 -16.159 -25.071  0.00  0.00    +0.292 HD
ENDBRANCH  27  28
ENDBRANCH  21  22
ENDBRANCH  20  21
ENDBRANCH   1  20
TORSDOF 5
ENDMDL
MODEL 7
REMARK VINA RESULT:     -10.2      2.824      4.248
REMARK  Name = 176407
REMARK  5 active torsions:
REMARK  status: ('A' for Active; 'I' for Inactive)
REMARK    1  A    between atoms: N_1  and  C_20
REMARK    2  A    between atoms: C_11  and  C_16
REMARK    3  A    between atoms: C_20  and  C_21
REMARK    4  A    between atoms: C_21  and  C_22
REMARK    5  A    between atoms: C_27  and  O_28
REMARK                            x       y       z     vdW  Elec       q    Type
REMARK                         _______ _______ _______ _____ _____    ______ ____
ROOT
ATOM      1  N   UNL     1      34.322 -19.909 -20.900  0.00  0.00    -0.258 N 
ATOM      2  N   UNL     1      34.299 -22.182 -17.615  0.00  0.00    -0.059 N 
ATOM      3  N   UNL     1      35.508 -20.917 -19.179  0.00  0.00    -0.245 NA
ATOM      4  N   UNL     1      33.135 -21.188 -19.309  0.00  0.00    -0.294 NA
ATOM      5  N   UNL     1      34.446 -22.924 -16.508  0.00  0.00    -0.090 NA
ATOM      6  N   UNL     1      36.446 -22.102 -17.258  0.00  0.00    -0.267 NA
ATOM      7  N   UNL     1      31.962 -22.478 -17.701  0.00  0.00    -0.318 N 
ATOM      8  C   UNL     1      34.354 -20.687 -19.767  0.00  0.00    +0.213 C 
ATOM      9  C   UNL     1      35.490 -21.689 -18.066  0.00  0.00    +0.251 C 
ATOM     10  C   UNL     1      33.094 -21.932 -18.242  0.00  0.00    +0.282 C 
ATOM     11  C   UNL     1      35.767 -22.845 -16.332  0.00  0.00    +0.153 C 
ATOM     12  H   UNL     1      33.456 -19.739 -21.337  0.00  0.00    +0.160 HD
ATOM     13  H   UNL     1      32.022 -23.030 -16.887  0.00  0.00    +0.146 HD
ATOM     14  H   UNL     1      31.087 -22.319 -18.123  0.00  0.00    +0.146 HD
ENDROOT
BRANCH  11  16
ATOM     15  O   UNL     1      36.508 -24.862 -15.043  0.00  0.00    -0.439 OA
ATOM     16  C   UNL     1      36.450 -23.515 -15.211  0.00  0.00    +0.221 C 
ATOM     17  C   UNL     1      37.112 -22.873 -14.190  0.00  0.00    +0.052 C 
ATOM     18  C   UNL     1      37.610 -23.891 -13.342  0.00  0.00    +0.045 C 
ATOM     19  C   UNL     1      37.215 -25.082 -13.904  0.00  0.00    +0.181 C 
ENDBRANCH  11  16
BRANCH   1  20
ATOM     20  C   UNL     1      35.504 -19.340 -21.463  0.00  0.00    +0.103 C 
BRANCH  20  21
ATOM     21  C   UNL     1      35.281 -18.947 -22.922  0.00  0.00    +0.048 C 
BRANCH  21  22
ATOM     22  C   UNL     1      34.940 -17.487 -23.097  0.00  0.00    -0.020 C 
ATOM     23  C   UNL     1      35.142 -16.611 -22.043  0.00  0.00    -0.001 C 
ATOM     24  C   UNL     1      34.431 -17.050 -24.310  0.00  0.00    -0.001 C 
ATOM     25  C   UNL     1      34.826 -15.263 -22.205  0.00  0.00    +0.036 C 
ATOM     26  C   UNL     1      34.115 -15.701 -24.472  0.00  0.00    +0.036 C 
ATOM     27  C   UNL     1      34.313 -14.807 -23.419  0.00  0.00    +0.134 C 
BRANCH  27  28
ATOM     28  O   UNL     1      34.005 -13.491 -23.576  0.00  0.00    -0.506 OA
ATOM     29  H   UNL     1      34.090 -12.900 -22.854  0.00  0.00    +0.292 HD
ENDBRANCH  27  28
ENDBRANCH  21  22
ENDBRANCH  20  21
ENDBRANCH   1  20
TORSDOF 5
ENDMDL
MODEL 8
REMARK VINA RESULT:     -10.1      3.648      9.393
REMARK  Name = 176407
REMARK  5 active torsions:
REMARK  status: ('A' for Active; 'I' for Inactive)
REMARK    1  A    between atoms: N_1  and  C_20
REMARK    2  A    between atoms: C_11  and  C_16
REMARK    3  A    between atoms: C_20  and  C_21
REMARK    4  A    between atoms: C_21  and  C_22
REMARK    5  A    between atoms: C_27  and  O_28
REMARK                            x       y       z     vdW  Elec       q    Type
REMARK                         _______ _______ _______ _____ _____    ______ ____
ROOT
ATOM      1  N   UNL     1      36.292 -23.218 -15.573  0.00  0.00    -0.258 N 
ATOM      2  N   UNL     1      34.454 -21.510 -18.682  0.00  0.00    -0.059 N 
ATOM      3  N   UNL     1      36.417 -21.845 -17.439  0.00  0.00    -0.245 NA
ATOM      4  N   UNL     1      34.335 -22.861 -16.846  0.00  0.00    -0.294 NA
ATOM      5  N   UNL     1      33.976 -20.873 -19.760  0.00  0.00    -0.090 NA
ATOM      6  N   UNL     1      36.206 -20.466 -19.446  0.00  0.00    -0.267 NA
ATOM      7  N   UNL     1      32.380 -22.488 -18.137  0.00  0.00    -0.318 N 
ATOM      8  C   UNL     1      35.694 -22.614 -16.654  0.00  0.00    +0.213 C 
ATOM      9  C   UNL     1      35.785 -21.270 -18.491  0.00  0.00    +0.251 C 
ATOM     10  C   UNL     1      33.707 -22.319 -17.848  0.00  0.00    +0.282 C 
ATOM     11  C   UNL     1      35.078 -20.253 -20.189  0.00  0.00    +0.153 C 
ATOM     12  H   UNL     1      35.747 -23.793 -14.987  0.00  0.00    +0.160 HD
ATOM     13  H   UNL     1      31.985 -22.039 -18.920  0.00  0.00    +0.146 HD
ATOM     14  H   UNL     1      31.820 -23.059 -17.563  0.00  0.00    +0.146 HD
ENDROOT
BRANCH  11  16
ATOM     15  O   UNL     1      34.401 -19.676 -22.531  0.00  0.00    -0.439 OA
ATOM     16  C   UNL     1      35.078 -19.395 -21.387  0.00  0.00    +0.221 C 
ATOM     17  C   UNL     1      35.758 -18.205 -21.509  0.00  0.00    +0.052 C 
ATOM     18  C   UNL     1      35.481 -17.725 -22.811  0.00  0.00    +0.045 C 
ATOM     19  C   UNL     1      34.652 -18.655 -23.393  0.00  0.00    +0.181 C 
ENDBRANCH  11  16
BRANCH   1  20
ATOM     20  C   UNL     1      37.677 -23.041 -15.275  0.00  0.00    +0.103 C 
BRANCH  20  21
ATOM     21  C   UNL     1      38.221 -24.227 -14.479  0.00  0.00    +0.048 C 
BRANCH  21  22
ATOM     22  C   UNL     1      37.691 -24.286 -13.067  0.00  0.00    -0.020 C 
ATOM     23  C   UNL     1      37.626 -25.508 -12.417  0.00  0.00    -0.001 C 
ATOM     24  C   UNL     1      37.280 -23.117 -12.447  0.00  0.00    -0.001 C 
ATOM     25  C   UNL     1      37.136 -25.563 -11.113  0.00  0.00    +0.036 C 
ATOM     26  C   UNL     1      36.790 -23.172 -11.142  0.00  0.00    +0.036 C 
ATOM     27  C   UNL     1      36.718 -24.395 -10.475  0.00  0.00    +0.134 C 
BRANCH  27  28
ATOM     28  O   UNL     1      36.241 -24.449  -9.201  0.00  0.00    -0.506 OA
ATOM     29  H   UNL     1      36.592 -23.881  -8.544  0.00  0.00    +0.292 HD
ENDBRANCH  27  28
ENDBRANCH  21  22
ENDBRANCH  20  21
ENDBRANCH   1  20
TORSDOF 5
ENDMDL
MODEL 9
REMARK VINA RESULT:      -9.9      7.030     11.762
REMARK  Name = 176407
REMARK  5 active torsions:
REMARK  status: ('A' for Active; 'I' for Inactive)
REMARK    1  A    between atoms: N_1  and  C_20
REMARK    2  A    between atoms: C_11  and  C_16
REMARK    3  A    between atoms: C_20  and  C_21
REMARK    4  A    between atoms: C_21  and  C_22
REMARK    5  A    between atoms: C_27  and  O_28
REMARK                            x       y       z     vdW  Elec       q    Type
REMARK                         _______ _______ _______ _____ _____    ______ ____
ROOT
ATOM      1  N   UNL     1      34.223 -16.012 -24.315  0.00  0.00    -0.258 N 
ATOM      2  N   UNL     1      33.588 -12.086 -24.694  0.00  0.00    -0.059 N 
ATOM      3  N   UNL     1      34.221 -13.902 -23.349  0.00  0.00    -0.245 NA
ATOM      4  N   UNL     1      33.590 -14.162 -25.641  0.00  0.00    -0.294 NA
ATOM      5  N   UNL     1      33.417 -10.756 -24.671  0.00  0.00    -0.090 NA
ATOM      6  N   UNL     1      34.113 -11.563 -22.646  0.00  0.00    -0.267 NA
ATOM      7  N   UNL     1      32.957 -12.293 -26.956  0.00  0.00    -0.318 N 
ATOM      8  C   UNL     1      34.015 -14.655 -24.407  0.00  0.00    +0.213 C 
ATOM      9  C   UNL     1      34.004 -12.572 -23.487  0.00  0.00    +0.251 C 
ATOM     10  C   UNL     1      33.374 -12.889 -25.797  0.00  0.00    +0.282 C 
ATOM     11  C   UNL     1      33.748 -10.487 -23.406  0.00  0.00    +0.153 C 
ATOM     12  H   UNL     1      34.067 -16.572 -25.109  0.00  0.00    +0.160 HD
ATOM     13  H   UNL     1      32.818 -11.318 -26.986  0.00  0.00    +0.146 HD
ATOM     14  H   UNL     1      32.796 -12.837 -27.760  0.00  0.00    +0.146 HD
ENDROOT
BRANCH  11  16
ATOM     15  O   UNL     1      32.889  -8.697 -21.878  0.00  0.00    -0.439 OA
ATOM     16  C   UNL     1      33.723  -9.116 -22.865  0.00  0.00    +0.221 C 
ATOM     17  C   UNL     1      34.532  -8.085 -23.284  0.00  0.00    +0.052 C 
ATOM     18  C   UNL     1      34.171  -6.960 -22.503  0.00  0.00    +0.045 C 
ATOM     19  C   UNL     1      33.168  -7.385 -21.663  0.00  0.00    +0.181 C 
ENDBRANCH  11  16
BRANCH   1  20
ATOM     20  C   UNL     1      34.659 -16.631 -23.105  0.00  0.00    +0.103 C 
BRANCH  20  21
ATOM     21  C   UNL     1      34.722 -18.150 -23.260  0.00  0.00    +0.048 C 
BRANCH  21  22
ATOM     22  C   UNL     1      35.234 -18.852 -22.027  0.00  0.00    -0.020 C 
ATOM     23  C   UNL     1      36.532 -18.615 -21.600  0.00  0.00    -0.001 C 
ATOM     24  C   UNL     1      34.398 -19.719 -21.342  0.00  0.00    -0.001 C 
ATOM     25  C   UNL     1      37.005 -19.264 -20.461  0.00  0.00    +0.036 C 
ATOM     26  C   UNL     1      34.872 -20.368 -20.202  0.00  0.00    +0.036 C 
ATOM     27  C   UNL     1      36.175 -20.140 -19.761  0.00  0.00    +0.134 C 
BRANCH  27  28
ATOM     28  O   UNL     1      36.639 -20.773 -18.648  0.00  0.00    -0.506 OA
ATOM     29  H   UNL     1      36.898 -20.273 -17.899  0.00  0.00    +0.292 HD
ENDBRANCH  27  28
ENDBRANCH  21  22
ENDBRANCH  20  21
ENDBRANCH   1  20
TORSDOF 5
ENDMDL
