MODEL 1
REMARK VINA RESULT:     -12.4      0.000      0.000
REMARK  Name = 25025505
REMARK  6 active torsions:
REMARK  status: ('A' for Active; 'I' for Inactive)
REMARK    1  A    between atoms: C_3  and  C_9
REMARK    2  A    between atoms: C_4  and  C_20
REMARK    3  A    between atoms: C_17  and  C_18
REMARK    4  A    between atoms: C_20  and  O_21
REMARK    5  A    between atoms: O_21  and  C_22
REMARK    6  A    between atoms: C_25  and  N_28
REMARK                            x       y       z     vdW  Elec       q    Type
REMARK                         _______ _______ _______ _____ _____    ______ ____
ROOT
ATOM      1  S   UNL     1      36.377 -23.769 -14.661  0.00  0.00    -0.079 S 
ATOM      2  N   UNL     1      33.833 -23.442 -14.980  0.00  0.00    -0.404 NA
ATOM      3  C   UNL     1      34.996 -23.333 -15.582  0.00  0.00    +0.134 C 
ATOM      4  C   UNL     1      34.037 -23.903 -13.694  0.00  0.00    +0.142 C 
ATOM      5  C   UNL     1      35.349 -24.137 -13.339  0.00  0.00    +0.122 C 
ENDROOT
BRANCH   3   9
ATOM      6  N   UNL     1      35.133 -20.924 -19.164  0.00  0.00    -0.253 N 
ATOM      7  N   UNL     1      36.162 -19.133 -20.256  0.00  0.00    -0.203 NA
ATOM      8  N   UNL     1      34.173 -20.157 -21.151  0.00  0.00    -0.181 NA
ATOM      9  C   UNL     1      35.182 -22.857 -17.010  0.00  0.00    +0.062 C 
ATOM     10  C   UNL     1      33.863 -22.383 -17.638  0.00  0.00    +0.030 C 
ATOM     11  C   UNL     1      36.231 -21.740 -17.115  0.00  0.00    +0.030 C 
ATOM     12  C   UNL     1      34.064 -21.927 -19.083  0.00  0.00    +0.102 C 
ATOM     13  C   UNL     1      36.423 -21.294 -18.564  0.00  0.00    +0.102 C 
ATOM     14  C   UNL     1      35.158 -20.030 -20.241  0.00  0.00    +0.090 C 
ATOM     15  C   UNL     1      36.154 -18.287 -21.307  0.00  0.00    +0.161 C 
ATOM     16  C   UNL     1      34.226 -19.279 -22.174  0.00  0.00    +0.104 C 
ATOM     17  C   UNL     1      35.202 -18.312 -22.305  0.00  0.00    +0.001 C 
BRANCH  17  18
ATOM     18  C   UNL     1      35.228 -17.364 -23.444  0.00  0.00    +0.026 C 
ATOM     19  C   UNL     1      34.977 -15.918 -23.014  0.00  0.00    +0.005 C 
ENDBRANCH  17  18
ENDBRANCH   3   9
BRANCH   4  20
ATOM     20  C   UNL     1      32.861 -24.102 -12.825  0.00  0.00    +0.260 C 
BRANCH  20  21
ATOM     21  O   UNL     1      31.944 -25.003 -13.444  0.00  0.00    -0.468 OA
BRANCH  21  22
ATOM     22  C   UNL     1      30.869 -24.442 -14.078  0.00  0.00    +0.139 C 
ATOM     23  C   UNL     1      30.018 -25.238 -14.846  0.00  0.00    +0.038 C 
ATOM     24  C   UNL     1      30.623 -23.075 -13.958  0.00  0.00    +0.038 C 
ATOM     25  C   UNL     1      28.678 -23.299 -15.372  0.00  0.00    +0.078 C 
ATOM     26  C   UNL     1      28.923 -24.666 -15.493  0.00  0.00    +0.020 C 
ATOM     27  C   UNL     1      29.527 -22.503 -14.604  0.00  0.00    +0.020 C 
BRANCH  25  28
ATOM     28  N   UNL     1      27.591 -22.732 -16.013  0.00  0.00    -0.149 N 
ATOM     29  N   UNL     1      27.439 -22.779 -17.344  0.00  0.00    -0.048 NA
ATOM     30  N   UNL     1      25.732 -21.690 -16.411  0.00  0.00    -0.107 NA
ATOM     31  N   UNL     1      26.300 -22.140 -17.582  0.00  0.00    -0.024 NA
ATOM     32  C   UNL     1      26.546 -22.067 -15.454  0.00  0.00    +0.215 C 
ENDBRANCH  25  28
ENDBRANCH  21  22
ENDBRANCH  20  21
ENDBRANCH   4  20
TORSDOF 6
ENDMDL
MODEL 2
REMARK VINA RESULT:     -12.2      6.363     10.177
REMARK  Name = 25025505
REMARK  6 active torsions:
REMARK  status: ('A' for Active; 'I' for Inactive)
REMARK    1  A    between atoms: C_3  and  C_9
REMARK    2  A    between atoms: C_4  and  C_20
REMARK    3  A    between atoms: C_17  and  C_18
REMARK    4  A    between atoms: C_20  and  O_21
REMARK    5  A    between atoms: O_21  and  C_22
REMARK    6  A    between atoms: C_25  and  N_28
REMARK                            x       y       z     vdW  Elec       q    Type
REMARK                         _______ _______ _______ _____ _____    ______ ____
ROOT
ATOM      1  S   UNL     1      34.037 -16.045 -24.556  0.00  0.00    -0.079 S 
ATOM      2  N   UNL     1      34.683 -15.547 -22.103  0.00  0.00    -0.404 NA
ATOM      3  C   UNL     1      34.055 -15.061 -23.149  0.00  0.00    +0.134 C 
ATOM      4  C   UNL     1      35.192 -16.789 -22.426  0.00  0.00    +0.142 C 
ATOM      5  C   UNL     1      34.944 -17.228 -23.709  0.00  0.00    +0.122 C 
ENDROOT
BRANCH   3   9
ATOM      6  N   UNL     1      33.082 -10.884 -22.633  0.00  0.00    -0.253 N 
ATOM      7  N   UNL     1      33.634  -8.684 -23.191  0.00  0.00    -0.203 NA
ATOM      8  N   UNL     1      32.014  -9.161 -21.472  0.00  0.00    -0.181 NA
ATOM      9  C   UNL     1      33.361 -13.712 -23.184  0.00  0.00    +0.062 C 
ATOM     10  C   UNL     1      33.035 -13.193 -21.775  0.00  0.00    +0.030 C 
ATOM     11  C   UNL     1      34.182 -12.658 -23.942  0.00  0.00    +0.030 C 
ATOM     12  C   UNL     1      32.317 -11.844 -21.829  0.00  0.00    +0.102 C 
ATOM     13  C   UNL     1      33.453 -11.315 -23.988  0.00  0.00    +0.102 C 
ATOM     14  C   UNL     1      32.901  -9.512 -22.423  0.00  0.00    +0.090 C 
ATOM     15  C   UNL     1      33.436  -7.369 -22.960  0.00  0.00    +0.161 C 
ATOM     16  C   UNL     1      31.866  -7.832 -21.294  0.00  0.00    +0.104 C 
ATOM     17  C   UNL     1      32.557  -6.880 -22.015  0.00  0.00    +0.001 C 
BRANCH  17  18
ATOM     18  C   UNL     1      32.367  -5.426 -21.792  0.00  0.00    +0.026 C 
ATOM     19  C   UNL     1      30.931  -5.072 -21.403  0.00  0.00    +0.005 C 
ENDBRANCH  17  18
ENDBRANCH   3   9
BRANCH   4  20
ATOM     20  C   UNL     1      35.944 -17.529 -21.393  0.00  0.00    +0.260 C 
BRANCH  20  21
ATOM     21  O   UNL     1      35.915 -18.928 -21.676  0.00  0.00    -0.468 OA
BRANCH  21  22
ATOM     22  C   UNL     1      35.265 -19.722 -20.772  0.00  0.00    +0.139 C 
ATOM     23  C   UNL     1      33.870 -19.760 -20.751  0.00  0.00    +0.038 C 
ATOM     24  C   UNL     1      35.996 -20.495 -19.870  0.00  0.00    +0.038 C 
ATOM     25  C   UNL     1      33.940 -21.341 -18.927  0.00  0.00    +0.078 C 
ATOM     26  C   UNL     1      33.208 -20.569 -19.828  0.00  0.00    +0.020 C 
ATOM     27  C   UNL     1      35.334 -21.305 -18.947  0.00  0.00    +0.020 C 
BRANCH  25  28
ATOM     28  N   UNL     1      33.283 -22.144 -18.012  0.00  0.00    -0.149 N 
ATOM     29  N   UNL     1      31.953 -22.110 -17.852  0.00  0.00    -0.048 NA
ATOM     30  N   UNL     1      32.857 -23.602 -16.464  0.00  0.00    -0.107 NA
ATOM     31  N   UNL     1      31.697 -23.003 -16.904  0.00  0.00    -0.024 NA
ATOM     32  C   UNL     1      33.825 -23.056 -17.163  0.00  0.00    +0.215 C 
ENDBRANCH  25  28
ENDBRANCH  21  22
ENDBRANCH  20  21
ENDBRANCH   4  20
TORSDOF 6
ENDMDL
MODEL 3
REMARK VINA RESULT:     -11.7      4.729     10.571
REMARK  Name = 25025505
REMARK  6 active torsions:
REMARK  status: ('A' for Active; 'I' for Inactive)
REMARK    1  A    between atoms: C_3  and  C_9
REMARK    2  A    between atoms: C_4  and  C_20
REMARK    3  A    between atoms: C_17  and  C_18
REMARK    4  A    between atoms: C_20  and  O_21
REMARK    5  A    between atoms: O_21  and  C_22
REMARK    6  A    between atoms: C_25  and  N_28
REMARK                            x       y       z     vdW  Elec       q    Type
REMARK                         _______ _______ _______ _____ _____    ______ ____
ROOT
ATOM      1  S   UNL     1      36.807 -18.971 -20.779  0.00  0.00    -0.079 S 
ATOM      2  N   UNL     1      34.545 -19.291 -21.988  0.00  0.00    -0.404 NA
ATOM      3  C   UNL     1      35.302 -19.760 -21.022  0.00  0.00    +0.134 C 
ATOM      4  C   UNL     1      35.192 -18.228 -22.587  0.00  0.00    +0.142 C 
ATOM      5  C   UNL     1      36.430 -17.907 -22.069  0.00  0.00    +0.122 C 
ENDROOT
BRANCH   3   9
ATOM      6  N   UNL     1      34.026 -22.193 -17.689  0.00  0.00    -0.253 N 
ATOM      7  N   UNL     1      32.246 -22.798 -16.302  0.00  0.00    -0.203 NA
ATOM      8  N   UNL     1      34.499 -23.497 -15.810  0.00  0.00    -0.181 NA
ATOM      9  C   UNL     1      34.931 -20.931 -20.132  0.00  0.00    +0.062 C 
ATOM     10  C   UNL     1      35.830 -21.021 -18.890  0.00  0.00    +0.030 C 
ATOM     11  C   UNL     1      33.459 -20.882 -19.697  0.00  0.00    +0.030 C 
ATOM     12  C   UNL     1      35.457 -22.219 -18.016  0.00  0.00    +0.102 C 
ATOM     13  C   UNL     1      33.099 -22.085 -18.824  0.00  0.00    +0.102 C 
ATOM     14  C   UNL     1      33.569 -22.862 -16.547  0.00  0.00    +0.090 C 
ATOM     15  C   UNL     1      31.841 -23.451 -15.193  0.00  0.00    +0.161 C 
ATOM     16  C   UNL     1      34.024 -24.129 -14.716  0.00  0.00    +0.104 C 
ATOM     17  C   UNL     1      32.693 -24.140 -14.354  0.00  0.00    +0.001 C 
BRANCH  17  18
ATOM     18  C   UNL     1      32.208 -24.846 -13.144  0.00  0.00    +0.026 C 
ATOM     19  C   UNL     1      30.728 -24.580 -12.860  0.00  0.00    +0.005 C 
ENDBRANCH  17  18
ENDBRANCH   3   9
BRANCH   4  20
ATOM     20  C   UNL     1      34.522 -17.540 -23.708  0.00  0.00    +0.260 C 
BRANCH  20  21
ATOM     21  O   UNL     1      35.138 -16.274 -23.941  0.00  0.00    -0.468 OA
BRANCH  21  22
ATOM     22  C   UNL     1      34.475 -15.174 -23.471  0.00  0.00    +0.139 C 
ATOM     23  C   UNL     1      33.698 -14.404 -24.337  0.00  0.00    +0.038 C 
ATOM     24  C   UNL     1      34.575 -14.821 -22.126  0.00  0.00    +0.038 C 
ATOM     25  C   UNL     1      33.123 -12.930 -22.513  0.00  0.00    +0.078 C 
ATOM     26  C   UNL     1      33.022 -13.282 -23.858  0.00  0.00    +0.020 C 
ATOM     27  C   UNL     1      33.899 -13.700 -21.646  0.00  0.00    +0.020 C 
BRANCH  25  28
ATOM     28  N   UNL     1      32.452 -11.818 -22.038  0.00  0.00    -0.149 N 
ATOM     29  N   UNL     1      31.604 -11.879 -21.002  0.00  0.00    -0.048 NA
ATOM     30  N   UNL     1      31.730  -9.790 -21.771  0.00  0.00    -0.107 NA
ATOM     31  N   UNL     1      31.165 -10.637 -20.843  0.00  0.00    -0.024 NA
ATOM     32  C   UNL     1      32.523 -10.541 -22.499  0.00  0.00    +0.215 C 
ENDBRANCH  25  28
ENDBRANCH  21  22
ENDBRANCH  20  21
ENDBRANCH   4  20
TORSDOF 6
ENDMDL
MODEL 4
REMARK VINA RESULT:     -11.3      6.756     10.865
REMARK  Name = 25025505
REMARK  6 active torsions:
REMARK  status: ('A' for Active; 'I' for Inactive)
REMARK    1  A    between atoms: C_3  and  C_9
REMARK    2  A    between atoms: C_4  and  C_20
REMARK    3  A    between atoms: C_17  and  C_18
REMARK    4  A    between atoms: C_20  and  O_21
REMARK    5  A    between atoms: O_21  and  C_22
REMARK    6  A    between atoms: C_25  and  N_28
REMARK                            x       y       z     vdW  Elec       q    Type
REMARK                         _______ _______ _______ _____ _____    ______ ____
ROOT
ATOM      1  S   UNL     1      33.657 -14.921 -24.588  0.00  0.00    -0.079 S 
ATOM      2  N   UNL     1      34.846 -15.258 -22.317  0.00  0.00    -0.404 NA
ATOM      3  C   UNL     1      34.278 -14.359 -23.089  0.00  0.00    +0.134 C 
ATOM      4  C   UNL     1      34.791 -16.486 -22.947  0.00  0.00    +0.142 C 
ATOM      5  C   UNL     1      34.185 -16.502 -24.185  0.00  0.00    +0.122 C 
ENDROOT
BRANCH   3   9
ATOM      6  N   UNL     1      33.060 -10.217 -22.985  0.00  0.00    -0.253 N 
ATOM      7  N   UNL     1      31.334  -8.717 -22.507  0.00  0.00    -0.203 NA
ATOM      8  N   UNL     1      33.346  -7.984 -23.611  0.00  0.00    -0.181 NA
ATOM      9  C   UNL     1      34.144 -12.889 -22.740  0.00  0.00    +0.062 C 
ATOM     10  C   UNL     1      34.505 -11.978 -23.922  0.00  0.00    +0.030 C 
ATOM     11  C   UNL     1      32.736 -12.541 -22.235  0.00  0.00    +0.030 C 
ATOM     12  C   UNL     1      34.386 -10.501 -23.547  0.00  0.00    +0.102 C 
ATOM     13  C   UNL     1      32.630 -11.062 -21.863  0.00  0.00    +0.102 C 
ATOM     14  C   UNL     1      32.557  -8.911 -23.036  0.00  0.00    +0.090 C 
ATOM     15  C   UNL     1      30.880  -7.448 -22.574  0.00  0.00    +0.161 C 
ATOM     16  C   UNL     1      32.830  -6.738 -23.645  0.00  0.00    +0.104 C 
ATOM     17  C   UNL     1      31.590  -6.408 -23.137  0.00  0.00    +0.001 C 
BRANCH  17  18
ATOM     18  C   UNL     1      31.056  -5.026 -23.192  0.00  0.00    +0.026 C 
ATOM     19  C   UNL     1      32.146  -3.982 -23.438  0.00  0.00    +0.005 C 
ENDBRANCH  17  18
ENDBRANCH   3   9
BRANCH   4  20
ATOM     20  C   UNL     1      35.374 -17.655 -22.258  0.00  0.00    +0.260 C 
BRANCH  20  21
ATOM     21  O   UNL     1      34.470 -18.757 -22.316  0.00  0.00    -0.468 OA
BRANCH  21  22
ATOM     22  C   UNL     1      34.461 -19.599 -21.239  0.00  0.00    +0.139 C 
ATOM     23  C   UNL     1      33.248 -20.045 -20.711  0.00  0.00    +0.038 C 
ATOM     24  C   UNL     1      35.663 -20.014 -20.667  0.00  0.00    +0.038 C 
ATOM     25  C   UNL     1      34.442 -21.317 -19.041  0.00  0.00    +0.078 C 
ATOM     26  C   UNL     1      33.239 -20.904 -19.612  0.00  0.00    +0.020 C 
ATOM     27  C   UNL     1      35.655 -20.872 -19.568  0.00  0.00    +0.020 C 
BRANCH  25  28
ATOM     28  N   UNL     1      34.433 -22.169 -17.951  0.00  0.00    -0.149 N 
ATOM     29  N   UNL     1      35.527 -22.398 -17.211  0.00  0.00    -0.048 NA
ATOM     30  N   UNL     1      33.801 -23.565 -16.417  0.00  0.00    -0.107 NA
ATOM     31  N   UNL     1      35.134 -23.253 -16.274  0.00  0.00    -0.024 NA
ATOM     32  C   UNL     1      33.387 -22.884 -17.460  0.00  0.00    +0.215 C 
ENDBRANCH  25  28
ENDBRANCH  21  22
ENDBRANCH  20  21
ENDBRANCH   4  20
TORSDOF 6
ENDMDL
MODEL 5
REMARK VINA RESULT:     -11.3      7.056     11.320
REMARK  Name = 25025505
REMARK  6 active torsions:
REMARK  status: ('A' for Active; 'I' for Inactive)
REMARK    1  A    between atoms: C_3  and  C_9
REMARK    2  A    between atoms: C_4  and  C_20
REMARK    3  A    between atoms: C_17  and  C_18
REMARK    4  A    between atoms: C_20  and  O_21
REMARK    5  A    between atoms: O_21  and  C_22
REMARK    6  A    between atoms: C_25  and  N_28
REMARK                            x       y       z     vdW  Elec       q    Type
REMARK                         _______ _______ _______ _____ _____    ______ ____
ROOT
ATOM      1  S   UNL     1      34.325 -14.121 -20.935  0.00  0.00    -0.079 S 
ATOM      2  N   UNL     1      33.978 -14.851 -23.390  0.00  0.00    -0.404 NA
ATOM      3  C   UNL     1      33.795 -13.860 -22.547  0.00  0.00    +0.134 C 
ATOM      4  C   UNL     1      34.581 -15.900 -22.723  0.00  0.00    +0.142 C 
ATOM      5  C   UNL     1      34.846 -15.691 -21.386  0.00  0.00    +0.122 C 
ENDROOT
BRANCH   3   9
ATOM      6  N   UNL     1      32.790  -9.665 -22.755  0.00  0.00    -0.253 N 
ATOM      7  N   UNL     1      33.507  -7.529 -23.373  0.00  0.00    -0.203 NA
ATOM      8  N   UNL     1      31.478  -7.842 -22.111  0.00  0.00    -0.181 NA
ATOM      9  C   UNL     1      33.159 -12.531 -22.908  0.00  0.00    +0.062 C 
ATOM     10  C   UNL     1      32.476 -11.870 -21.702  0.00  0.00    +0.030 C 
ATOM     11  C   UNL     1      34.171 -11.555 -23.525  0.00  0.00    +0.030 C 
ATOM     12  C   UNL     1      31.821 -10.543 -22.089  0.00  0.00    +0.102 C 
ATOM     13  C   UNL     1      33.504 -10.233 -23.907  0.00  0.00    +0.102 C 
ATOM     14  C   UNL     1      32.582  -8.280 -22.747  0.00  0.00    +0.090 C 
ATOM     15  C   UNL     1      33.277  -6.200 -23.344  0.00  0.00    +0.161 C 
ATOM     16  C   UNL     1      31.310  -6.503 -22.121  0.00  0.00    +0.104 C 
ATOM     17  C   UNL     1      32.185  -5.624 -22.727  0.00  0.00    +0.001 C 
BRANCH  17  18
ATOM     18  C   UNL     1      31.967  -4.158 -22.718  0.00  0.00    +0.026 C 
ATOM     19  C   UNL     1      31.998  -3.549 -24.120  0.00  0.00    +0.005 C 
ENDBRANCH  17  18
ENDBRANCH   3   9
BRANCH   4  20
ATOM     20  C   UNL     1      34.883 -17.131 -23.480  0.00  0.00    +0.260 C 
BRANCH  20  21
ATOM     21  O   UNL     1      35.984 -17.814 -22.880  0.00  0.00    -0.468 OA
BRANCH  21  22
ATOM     22  C   UNL     1      35.681 -18.722 -21.904  0.00  0.00    +0.139 C 
ATOM     23  C   UNL     1      36.640 -19.069 -20.951  0.00  0.00    +0.038 C 
ATOM     24  C   UNL     1      34.414 -19.303 -21.859  0.00  0.00    +0.038 C 
ATOM     25  C   UNL     1      35.065 -20.577 -19.913  0.00  0.00    +0.078 C 
ATOM     26  C   UNL     1      36.332 -19.997 -19.956  0.00  0.00    +0.020 C 
ATOM     27  C   UNL     1      34.105 -20.230 -20.864  0.00  0.00    +0.020 C 
BRANCH  25  28
ATOM     28  N   UNL     1      34.759 -21.496 -18.925  0.00  0.00    -0.149 N 
ATOM     29  N   UNL     1      35.661 -21.908 -18.024  0.00  0.00    -0.048 NA
ATOM     30  N   UNL     1      33.702 -22.911 -17.667  0.00  0.00    -0.107 NA
ATOM     31  N   UNL     1      35.009 -22.773 -17.256  0.00  0.00    -0.024 NA
ATOM     32  C   UNL     1      33.569 -22.112 -18.700  0.00  0.00    +0.215 C 
ENDBRANCH  25  28
ENDBRANCH  21  22
ENDBRANCH  20  21
ENDBRANCH   4  20
TORSDOF 6
ENDMDL
MODEL 6
REMARK VINA RESULT:     -11.1      5.875      9.971
REMARK  Name = 25025505
REMARK  6 active torsions:
REMARK  status: ('A' for Active; 'I' for Inactive)
REMARK    1  A    between atoms: C_3  and  C_9
REMARK    2  A    between atoms: C_4  and  C_20
REMARK    3  A    between atoms: C_17  and  C_18
REMARK    4  A    between atoms: C_20  and  O_21
REMARK    5  A    between atoms: O_21  and  C_22
REMARK    6  A    between atoms: C_25  and  N_28
REMARK                            x       y       z     vdW  Elec       q    Type
REMARK                         _______ _______ _______ _____ _____    ______ ____
ROOT
ATOM      1  S   UNL     1      33.950 -16.354 -24.584  0.00  0.00    -0.079 S 
ATOM      2  N   UNL     1      35.047 -16.537 -22.251  0.00  0.00    -0.404 NA
ATOM      3  C   UNL     1      34.566 -15.686 -23.128  0.00  0.00    +0.134 C 
ATOM      4  C   UNL     1      34.924 -17.816 -22.757  0.00  0.00    +0.142 C 
ATOM      5  C   UNL     1      34.353 -17.918 -24.008  0.00  0.00    +0.122 C 
ENDROOT
BRANCH   3   9
ATOM      6  N   UNL     1      33.252 -11.591 -22.725  0.00  0.00    -0.253 N 
ATOM      7  N   UNL     1      32.050 -10.060 -21.431  0.00  0.00    -0.203 NA
ATOM      8  N   UNL     1      32.854  -9.472 -23.625  0.00  0.00    -0.181 NA
ATOM      9  C   UNL     1      34.525 -14.181 -22.931  0.00  0.00    +0.062 C 
ATOM     10  C   UNL     1      33.978 -13.452 -24.167  0.00  0.00    +0.030 C 
ATOM     11  C   UNL     1      33.707 -13.782 -21.695  0.00  0.00    +0.030 C 
ATOM     12  C   UNL     1      33.965 -11.936 -23.960  0.00  0.00    +0.102 C 
ATOM     13  C   UNL     1      33.701 -12.266 -21.499  0.00  0.00    +0.102 C 
ATOM     14  C   UNL     1      32.693 -10.314 -22.587  0.00  0.00    +0.090 C 
ATOM     15  C   UNL     1      31.523  -8.822 -21.333  0.00  0.00    +0.161 C 
ATOM     16  C   UNL     1      32.302  -8.252 -23.460  0.00  0.00    +0.104 C 
ATOM     17  C   UNL     1      31.618  -7.868 -22.325  0.00  0.00    +0.001 C 
BRANCH  17  18
ATOM     18  C   UNL     1      31.025  -6.517 -22.178  0.00  0.00    +0.026 C 
ATOM     19  C   UNL     1      32.035  -5.479 -21.687  0.00  0.00    +0.005 C 
ENDBRANCH  17  18
ENDBRANCH   3   9
BRANCH   4  20
ATOM     20  C   UNL     1      35.404 -18.945 -21.935  0.00  0.00    +0.260 C 
BRANCH  20  21
ATOM     21  O   UNL     1      34.296 -19.710 -21.462  0.00  0.00    -0.468 OA
BRANCH  21  22
ATOM     22  C   UNL     1      34.499 -20.442 -20.325  0.00  0.00    +0.139 C 
ATOM     23  C   UNL     1      33.409 -20.966 -19.628  0.00  0.00    +0.038 C 
ATOM     24  C   UNL     1      35.795 -20.666 -19.861  0.00  0.00    +0.038 C 
ATOM     25  C   UNL     1      34.912 -21.935 -18.005  0.00  0.00    +0.078 C 
ATOM     26  C   UNL     1      33.616 -21.711 -18.467  0.00  0.00    +0.020 C 
ATOM     27  C   UNL     1      36.002 -21.413 -18.701  0.00  0.00    +0.020 C 
BRANCH  25  28
ATOM     28  N   UNL     1      35.117 -22.675 -16.854  0.00  0.00    -0.149 N 
ATOM     29  N   UNL     1      34.282 -23.649 -16.469  0.00  0.00    -0.048 NA
ATOM     30  N   UNL     1      35.956 -23.451 -15.011  0.00  0.00    -0.107 NA
ATOM     31  N   UNL     1      34.799 -24.121 -15.342  0.00  0.00    -0.024 NA
ATOM     32  C   UNL     1      36.134 -22.561 -15.960  0.00  0.00    +0.215 C 
ENDBRANCH  25  28
ENDBRANCH  21  22
ENDBRANCH  20  21
ENDBRANCH   4  20
TORSDOF 6
ENDMDL
MODEL 7
REMARK VINA RESULT:     -11.0      5.063     10.730
REMARK  Name = 25025505
REMARK  6 active torsions:
REMARK  status: ('A' for Active; 'I' for Inactive)
REMARK    1  A    between atoms: C_3  and  C_9
REMARK    2  A    between atoms: C_4  and  C_20
REMARK    3  A    between atoms: C_17  and  C_18
REMARK    4  A    between atoms: C_20  and  O_21
REMARK    5  A    between atoms: O_21  and  C_22
REMARK    6  A    between atoms: C_25  and  N_28
REMARK                            x       y       z     vdW  Elec       q    Type
REMARK                         _______ _______ _______ _____ _____    ______ ____
ROOT
ATOM      1  S   UNL     1      33.532 -20.695 -20.021  0.00  0.00    -0.079 S 
ATOM      2  N   UNL     1      36.009 -19.985 -20.224  0.00  0.00    -0.404 NA
ATOM      3  C   UNL     1      35.189 -20.788 -19.584  0.00  0.00    +0.134 C 
ATOM      4  C   UNL     1      35.284 -19.237 -21.131  0.00  0.00    +0.142 C 
ATOM      5  C   UNL     1      33.927 -19.481 -21.166  0.00  0.00    +0.122 C 
ENDROOT
BRANCH   3   9
ATOM      6  N   UNL     1      36.061 -22.654 -15.787  0.00  0.00    -0.253 N 
ATOM      7  N   UNL     1      35.177 -23.513 -13.803  0.00  0.00    -0.203 NA
ATOM      8  N   UNL     1      37.552 -23.216 -14.079  0.00  0.00    -0.181 NA
ATOM      9  C   UNL     1      35.614 -21.768 -18.506  0.00  0.00    +0.062 C 
ATOM     10  C   UNL     1      36.781 -21.231 -17.665  0.00  0.00    +0.030 C 
ATOM     11  C   UNL     1      34.449 -22.151 -17.581  0.00  0.00    +0.030 C 
ATOM     12  C   UNL     1      37.211 -22.239 -16.599  0.00  0.00    +0.102 C 
ATOM     13  C   UNL     1      34.892 -23.159 -16.521  0.00  0.00    +0.102 C 
ATOM     14  C   UNL     1      36.274 -23.152 -14.496  0.00  0.00    +0.090 C 
ATOM     15  C   UNL     1      35.418 -23.986 -12.562  0.00  0.00    +0.161 C 
ATOM     16  C   UNL     1      37.721 -23.698 -12.830  0.00  0.00    +0.104 C 
ATOM     17  C   UNL     1      36.681 -24.101 -12.017  0.00  0.00    +0.001 C 
BRANCH  17  18
ATOM     18  C   UNL     1      36.905 -24.627 -10.649  0.00  0.00    +0.026 C 
ATOM     19  C   UNL     1      35.729 -24.347  -9.711  0.00  0.00    +0.005 C 
ENDBRANCH  17  18
ENDBRANCH   3   9
BRANCH   4  20
ATOM     20  C   UNL     1      36.005 -18.258 -21.969  0.00  0.00    +0.260 C 
BRANCH  20  21
ATOM     21  O   UNL     1      35.187 -17.862 -23.069  0.00  0.00    -0.468 OA
BRANCH  21  22
ATOM     22  C   UNL     1      34.793 -16.553 -23.098  0.00  0.00    +0.139 C 
ATOM     23  C   UNL     1      34.939 -15.754 -21.964  0.00  0.00    +0.038 C 
ATOM     24  C   UNL     1      34.245 -16.015 -24.263  0.00  0.00    +0.038 C 
ATOM     25  C   UNL     1      33.989 -13.882 -23.158  0.00  0.00    +0.078 C 
ATOM     26  C   UNL     1      34.536 -14.419 -21.994  0.00  0.00    +0.020 C 
ATOM     27  C   UNL     1      33.843 -14.680 -24.294  0.00  0.00    +0.020 C 
BRANCH  25  28
ATOM     28  N   UNL     1      33.590 -12.558 -23.189  0.00  0.00    -0.149 N 
ATOM     29  N   UNL     1      32.759 -12.038 -22.274  0.00  0.00    -0.048 NA
ATOM     30  N   UNL     1      33.343 -10.480 -23.759  0.00  0.00    -0.107 NA
ATOM     31  N   UNL     1      32.612 -10.767 -22.627  0.00  0.00    -0.024 NA
ATOM     32  C   UNL     1      33.941 -11.602 -24.088  0.00  0.00    +0.215 C 
ENDBRANCH  25  28
ENDBRANCH  21  22
ENDBRANCH  20  21
ENDBRANCH   4  20
TORSDOF 6
ENDMDL
MODEL 8
REMARK VINA RESULT:     -11.0      1.487      2.002
REMARK  Name = 25025505
REMARK  6 active torsions:
REMARK  status: ('A' for Active; 'I' for Inactive)
REMARK    1  A    between atoms: C_3  and  C_9
REMARK    2  A    between atoms: C_4  and  C_20
REMARK    3  A    between atoms: C_17  and  C_18
REMARK    4  A    between atoms: C_20  and  O_21
REMARK    5  A    between atoms: O_21  and  C_22
REMARK    6  A    between atoms: C_25  and  N_28
REMARK                            x       y       z     vdW  Elec       q    Type
REMARK                         _______ _______ _______ _____ _____    ______ ____
ROOT
ATOM      1  S   UNL     1      37.691 -21.909 -15.729  0.00  0.00    -0.079 S 
ATOM      2  N   UNL     1      35.449 -23.106 -16.202  0.00  0.00    -0.404 NA
ATOM      3  C   UNL     1      36.370 -22.337 -16.738  0.00  0.00    +0.134 C 
ATOM      4  C   UNL     1      35.804 -23.384 -14.897  0.00  0.00    +0.142 C 
ATOM      5  C   UNL     1      36.987 -22.824 -14.461  0.00  0.00    +0.122 C 
ENDROOT
BRANCH   3   9
ATOM      6  N   UNL     1      35.609 -19.972 -20.271  0.00  0.00    -0.253 N 
ATOM      7  N   UNL     1      36.014 -17.953 -21.375  0.00  0.00    -0.203 NA
ATOM      8  N   UNL     1      34.362 -19.506 -22.191  0.00  0.00    -0.181 NA
ATOM      9  C   UNL     1      36.333 -21.819 -18.164  0.00  0.00    +0.062 C 
ATOM     10  C   UNL     1      34.901 -21.745 -18.715  0.00  0.00    +0.030 C 
ATOM     11  C   UNL     1      37.005 -20.445 -18.297  0.00  0.00    +0.030 C 
ATOM     12  C   UNL     1      34.883 -21.242 -20.159  0.00  0.00    +0.102 C 
ATOM     13  C   UNL     1      36.981 -19.954 -19.745  0.00  0.00    +0.102 C 
ATOM     14  C   UNL     1      35.315 -19.103 -21.329  0.00  0.00    +0.090 C 
ATOM     15  C   UNL     1      35.705 -17.139 -22.406  0.00  0.00    +0.161 C 
ATOM     16  C   UNL     1      34.103 -18.644 -23.197  0.00  0.00    +0.104 C 
ATOM     17  C   UNL     1      34.749 -17.435 -23.356  0.00  0.00    +0.001 C 
BRANCH  17  18
ATOM     18  C   UNL     1      34.437 -16.514 -24.475  0.00  0.00    +0.026 C 
ATOM     19  C   UNL     1      33.945 -15.147 -23.994  0.00  0.00    +0.005 C 
ENDBRANCH  17  18
ENDBRANCH   3   9
BRANCH   4  20
ATOM     20  C   UNL     1      34.908 -24.239 -14.093  0.00  0.00    +0.260 C 
BRANCH  20  21
ATOM     21  O   UNL     1      33.888 -23.445 -13.490  0.00  0.00    -0.468 OA
BRANCH  21  22
ATOM     22  C   UNL     1      32.690 -23.384 -14.148  0.00  0.00    +0.139 C 
ATOM     23  C   UNL     1      32.641 -22.939 -15.470  0.00  0.00    +0.038 C 
ATOM     24  C   UNL     1      31.517 -23.767 -13.499  0.00  0.00    +0.038 C 
ATOM     25  C   UNL     1      30.247 -23.260 -15.490  0.00  0.00    +0.078 C 
ATOM     26  C   UNL     1      31.420 -22.877 -16.140  0.00  0.00    +0.020 C 
ATOM     27  C   UNL     1      30.295 -23.705 -14.169  0.00  0.00    +0.020 C 
BRANCH  25  28
ATOM     28  N   UNL     1      29.036 -23.198 -16.155  0.00  0.00    -0.149 N 
ATOM     29  N   UNL     1      28.424 -22.037 -16.424  0.00  0.00    -0.048 NA
ATOM     30  N   UNL     1      27.212 -23.743 -17.194  0.00  0.00    -0.107 NA
ATOM     31  N   UNL     1      27.309 -22.376 -17.060  0.00  0.00    -0.024 NA
ATOM     32  C   UNL     1      28.291 -24.232 -16.628  0.00  0.00    +0.215 C 
ENDBRANCH  25  28
ENDBRANCH  21  22
ENDBRANCH  20  21
ENDBRANCH   4  20
TORSDOF 6
ENDMDL
MODEL 9
REMARK VINA RESULT:     -10.9      5.894     11.471
REMARK  Name = 25025505
REMARK  6 active torsions:
REMARK  status: ('A' for Active; 'I' for Inactive)
REMARK    1  A    between atoms: C_3  and  C_9
REMARK    2  A    between atoms: C_4  and  C_20
REMARK    3  A    between atoms: C_17  and  C_18
REMARK    4  A    between atoms: C_20  and  O_21
REMARK    5  A    between atoms: O_21  and  C_22
REMARK    6  A    between atoms: C_25  and  N_28
REMARK                            x       y       z     vdW  Elec       q    Type
REMARK                         _______ _______ _______ _____ _____    ______ ____
ROOT
ATOM      1  S   UNL     1      34.563 -18.890 -23.902  0.00  0.00    -0.079 S 
ATOM      2  N   UNL     1      34.930 -17.414 -21.812  0.00  0.00    -0.404 NA
ATOM      3  C   UNL     1      34.841 -18.659 -22.224  0.00  0.00    +0.134 C 
ATOM      4  C   UNL     1      34.767 -16.573 -22.895  0.00  0.00    +0.142 C 
ATOM      5  C   UNL     1      34.557 -17.189 -24.111  0.00  0.00    +0.122 C 
ENDROOT
BRANCH   3   9
ATOM      6  N   UNL     1      34.833 -21.311 -18.814  0.00  0.00    -0.253 N 
ATOM      7  N   UNL     1      33.529 -22.406 -17.216  0.00  0.00    -0.203 NA
ATOM      8  N   UNL     1      35.932 -22.378 -17.051  0.00  0.00    -0.181 NA
ATOM      9  C   UNL     1      34.969 -19.873 -21.323  0.00  0.00    +0.062 C 
ATOM     10  C   UNL     1      36.014 -19.665 -20.217  0.00  0.00    +0.030 C 
ATOM     11  C   UNL     1      33.625 -20.268 -20.692  0.00  0.00    +0.030 C 
ATOM     12  C   UNL     1      36.145 -20.905 -19.332  0.00  0.00    +0.102 C 
ATOM     13  C   UNL     1      33.770 -21.508 -19.810  0.00  0.00    +0.102 C 
ATOM     14  C   UNL     1      34.761 -22.068 -17.639  0.00  0.00    +0.090 C 
ATOM     15  C   UNL     1      33.496 -23.133 -16.080  0.00  0.00    +0.161 C 
ATOM     16  C   UNL     1      35.826 -23.106 -15.920  0.00  0.00    +0.104 C 
ATOM     17  C   UNL     1      34.623 -23.516 -15.382  0.00  0.00    +0.001 C 
BRANCH  17  18
ATOM     18  C   UNL     1      34.546 -24.316 -14.136  0.00  0.00    +0.026 C 
ATOM     19  C   UNL     1      33.321 -23.970 -13.288  0.00  0.00    +0.005 C 
ENDBRANCH  17  18
ENDBRANCH   3   9
BRANCH   4  20
ATOM     20  C   UNL     1      34.828 -15.115 -22.666  0.00  0.00    +0.260 C 
BRANCH  20  21
ATOM     21  O   UNL     1      33.999 -14.439 -23.609  0.00  0.00    -0.468 OA
BRANCH  21  22
ATOM     22  C   UNL     1      33.577 -13.184 -23.265  0.00  0.00    +0.139 C 
ATOM     23  C   UNL     1      32.726 -13.009 -22.173  0.00  0.00    +0.038 C 
ATOM     24  C   UNL     1      33.998 -12.079 -24.003  0.00  0.00    +0.038 C 
ATOM     25  C   UNL     1      32.716 -10.625 -22.562  0.00  0.00    +0.078 C 
ATOM     26  C   UNL     1      32.295 -11.730 -21.822  0.00  0.00    +0.020 C 
ATOM     27  C   UNL     1      33.568 -10.799 -23.653  0.00  0.00    +0.020 C 
BRANCH  25  28
ATOM     28  N   UNL     1      32.290  -9.356 -22.213  0.00  0.00    -0.149 N 
ATOM     29  N   UNL     1      32.227  -8.945 -20.940  0.00  0.00    -0.048 NA
ATOM     30  N   UNL     1      31.561  -7.316 -22.308  0.00  0.00    -0.107 NA
ATOM     31  N   UNL     1      31.780  -7.697 -21.003  0.00  0.00    -0.024 NA
ATOM     32  C   UNL     1      31.883  -8.357 -23.040  0.00  0.00    +0.215 C 
ENDBRANCH  25  28
ENDBRANCH  21  22
ENDBRANCH  20  21
ENDBRANCH   4  20
TORSDOF 6
ENDMDL
