MODEL 1
REMARK VINA RESULT:     -11.1      0.000      0.000
REMARK  Name = 447656
REMARK  5 active torsions:
REMARK  status: ('A' for Active; 'I' for Inactive)
REMARK    1  A    between atoms: N_5  and  C_14
REMARK    2  A    between atoms: C_6  and  O_25
REMARK    3  A    between atoms: C_17  and  C_22
REMARK    4  A    between atoms: O_25  and  C_26
REMARK    5  A    between atoms: C_26  and  C_27
REMARK                            x       y       z     vdW  Elec       q    Type
REMARK                         _______ _______ _______ _____ _____    ______ ____
ROOT
ATOM      1  N   UNL     1      33.815 -23.481 -15.252  0.00  0.00    -0.293 NA
ATOM      2  N   UNL     1      37.473 -23.809 -15.055  0.00  0.00    -0.266 NA
ATOM      3  N   UNL     1      34.608 -24.608 -13.239  0.00  0.00    -0.316 NA
ATOM      4  N   UNL     1      37.027 -24.820 -13.119  0.00  0.00    -0.296 N 
ATOM      5  N   UNL     1      32.326 -24.264 -13.623  0.00  0.00    -0.238 N 
ATOM      6  C   UNL     1      35.075 -23.313 -15.706  0.00  0.00    +0.288 C 
ATOM      7  C   UNL     1      36.112 -23.792 -14.932  0.00  0.00    +0.215 C 
ATOM      8  C   UNL     1      35.861 -24.425 -13.723  0.00  0.00    +0.196 C 
ATOM      9  C   UNL     1      33.661 -24.109 -14.062  0.00  0.00    +0.207 C 
ATOM     10  C   UNL     1      37.976 -24.434 -13.946  0.00  0.00    +0.164 C 
ATOM     11  H   UNL     1      37.995 -23.439 -15.804  0.00  0.00    +0.126 HD
ATOM     12  H   UNL     1      37.132 -25.287 -12.259  0.00  0.00    +0.150 HD
ATOM     13  H   UNL     1      32.245 -24.723 -12.756  0.00  0.00    +0.166 HD
ENDROOT
BRANCH   5  14
ATOM     14  C   UNL     1      31.092 -23.890 -14.182  0.00  0.00    +0.058 C 
ATOM     15  C   UNL     1      30.638 -22.574 -14.065  0.00  0.00    +0.015 C 
ATOM     16  C   UNL     1      30.313 -24.832 -14.858  0.00  0.00    +0.015 C 
ATOM     17  C   UNL     1      28.639 -23.145 -15.294  0.00  0.00    +0.053 C 
ATOM     18  C   UNL     1      29.414 -22.202 -14.620  0.00  0.00    +0.006 C 
ATOM     19  C   UNL     1      29.088 -24.461 -15.414  0.00  0.00    +0.006 C 
BRANCH  17  22
ATOM     20  O   UNL     1      26.389 -22.462 -15.158  0.00  0.00    -0.270 OA
ATOM     21  N   UNL     1      27.270 -22.708 -17.261  0.00  0.00    -0.325 N 
ATOM     22  C   UNL     1      27.363 -22.758 -15.873  0.00  0.00    +0.243 C 
ATOM     23  H   UNL     1      26.421 -22.451 -17.689  0.00  0.00    +0.145 HD
ATOM     24  H   UNL     1      28.052 -22.933 -17.816  0.00  0.00    +0.145 HD
ENDBRANCH  17  22
ENDBRANCH   5  14
BRANCH   6  25
ATOM     25  O   UNL     1      35.267 -22.681 -16.910  0.00  0.00    -0.453 OA
BRANCH  25  26
ATOM     26  C   UNL     1      34.137 -22.542 -17.751  0.00  0.00    +0.208 C 
BRANCH  26  27
ATOM     27  C   UNL     1      34.573 -21.842 -19.037  0.00  0.00    +0.044 C 
ATOM     28  C   UNL     1      33.512 -20.829 -19.490  0.00  0.00    +0.004 C 
ATOM     29  C   UNL     1      35.934 -21.160 -18.848  0.00  0.00    +0.004 C 
ATOM     30  C   UNL     1      33.949 -20.078 -20.745  0.00  0.00    +0.000 C 
ATOM     31  C   UNL     1      36.366 -20.407 -20.104  0.00  0.00    +0.000 C 
ATOM     32  C   UNL     1      35.306 -19.409 -20.556  0.00  0.00    +0.000 C 
ENDBRANCH  26  27
ENDBRANCH  25  26
ENDBRANCH   6  25
TORSDOF 5
ENDMDL
MODEL 2
REMARK VINA RESULT:     -11.1      1.978      6.524
REMARK  Name = 447656
REMARK  5 active torsions:
REMARK  status: ('A' for Active; 'I' for Inactive)
REMARK    1  A    between atoms: N_5  and  C_14
REMARK    2  A    between atoms: C_6  and  O_25
REMARK    3  A    between atoms: C_17  and  C_22
REMARK    4  A    between atoms: O_25  and  C_26
REMARK    5  A    between atoms: C_26  and  C_27
REMARK                            x       y       z     vdW  Elec       q    Type
REMARK                         _______ _______ _______ _____ _____    ______ ____
ROOT
ATOM      1  N   UNL     1      33.182 -23.447 -15.619  0.00  0.00    -0.293 NA
ATOM      2  N   UNL     1      29.784 -22.506 -16.660  0.00  0.00    -0.266 NA
ATOM      3  N   UNL     1      31.477 -23.826 -13.915  0.00  0.00    -0.316 NA
ATOM      4  N   UNL     1      29.234 -23.199 -14.614  0.00  0.00    -0.296 N 
ATOM      5  N   UNL     1      33.726 -24.337 -13.521  0.00  0.00    -0.238 N 
ATOM      6  C   UNL     1      32.268 -22.969 -16.489  0.00  0.00    +0.288 C 
ATOM      7  C   UNL     1      30.951 -22.914 -16.081  0.00  0.00    +0.215 C 
ATOM      8  C   UNL     1      30.584 -23.340 -14.812  0.00  0.00    +0.196 C 
ATOM      9  C   UNL     1      32.737 -23.842 -14.402  0.00  0.00    +0.207 C 
ATOM     10  C   UNL     1      28.784 -22.695 -15.743  0.00  0.00    +0.164 C 
ATOM     11  H   UNL     1      29.680 -22.141 -17.569  0.00  0.00    +0.126 HD
ATOM     12  H   UNL     1      28.717 -23.425 -13.807  0.00  0.00    +0.150 HD
ATOM     13  H   UNL     1      33.373 -24.616 -12.645  0.00  0.00    +0.166 HD
ENDROOT
BRANCH   5  14
ATOM     14  C   UNL     1      35.115 -24.508 -13.652  0.00  0.00    +0.058 C 
ATOM     15  C   UNL     1      35.624 -25.556 -14.424  0.00  0.00    +0.015 C 
ATOM     16  C   UNL     1      35.994 -23.633 -13.010  0.00  0.00    +0.015 C 
ATOM     17  C   UNL     1      37.876 -24.851 -13.913  0.00  0.00    +0.053 C 
ATOM     18  C   UNL     1      37.001 -25.727 -14.555  0.00  0.00    +0.006 C 
ATOM     19  C   UNL     1      37.373 -23.803 -13.141  0.00  0.00    +0.006 C 
BRANCH  17  22
ATOM     20  O   UNL     1      40.078 -24.890 -13.078  0.00  0.00    -0.270 OA
ATOM     21  N   UNL     1      39.806 -25.378 -15.302  0.00  0.00    -0.325 N 
ATOM     22  C   UNL     1      39.313 -25.028 -14.049  0.00  0.00    +0.243 C 
ATOM     23  H   UNL     1      40.774 -25.506 -15.432  0.00  0.00    +0.145 HD
ATOM     24  H   UNL     1      39.188 -25.496 -16.060  0.00  0.00    +0.145 HD
ENDBRANCH  17  22
ENDBRANCH   5  14
BRANCH   6  25
ATOM     25  O   UNL     1      32.687 -22.560 -17.732  0.00  0.00    -0.453 OA
BRANCH  25  26
ATOM     26  C   UNL     1      34.067 -22.684 -18.018  0.00  0.00    +0.208 C 
BRANCH  26  27
ATOM     27  C   UNL     1      34.378 -21.862 -19.268  0.00  0.00    +0.044 C 
ATOM     28  C   UNL     1      33.260 -20.848 -19.542  0.00  0.00    +0.004 C 
ATOM     29  C   UNL     1      35.733 -21.156 -19.130  0.00  0.00    +0.004 C 
ATOM     30  C   UNL     1      33.573 -19.977 -20.757  0.00  0.00    +0.000 C 
ATOM     31  C   UNL     1      36.042 -20.285 -20.345  0.00  0.00    +0.000 C 
ATOM     32  C   UNL     1      34.924 -19.285 -20.619  0.00  0.00    +0.000 C 
ENDBRANCH  26  27
ENDBRANCH  25  26
ENDBRANCH   6  25
TORSDOF 5
ENDMDL
MODEL 3
REMARK VINA RESULT:     -10.7      2.801      7.142
REMARK  Name = 447656
REMARK  5 active torsions:
REMARK  status: ('A' for Active; 'I' for Inactive)
REMARK    1  A    between atoms: N_5  and  C_14
REMARK    2  A    between atoms: C_6  and  O_25
REMARK    3  A    between atoms: C_17  and  C_22
REMARK    4  A    between atoms: O_25  and  C_26
REMARK    5  A    between atoms: C_26  and  C_27
REMARK                            x       y       z     vdW  Elec       q    Type
REMARK                         _______ _______ _______ _____ _____    ______ ____
ROOT
ATOM      1  N   UNL     1      33.814 -22.760 -16.037  0.00  0.00    -0.293 NA
ATOM      2  N   UNL     1      32.768 -24.632 -13.049  0.00  0.00    -0.266 NA
ATOM      3  N   UNL     1      31.502 -23.537 -16.105  0.00  0.00    -0.316 NA
ATOM      4  N   UNL     1      30.822 -24.773 -14.125  0.00  0.00    -0.296 N 
ATOM      5  N   UNL     1      32.430 -22.320 -17.875  0.00  0.00    -0.238 N 
ATOM      6  C   UNL     1      34.007 -23.306 -14.817  0.00  0.00    +0.288 C 
ATOM      7  C   UNL     1      32.950 -23.972 -14.231  0.00  0.00    +0.215 C 
ATOM      8  C   UNL     1      31.727 -24.074 -14.881  0.00  0.00    +0.196 C 
ATOM      9  C   UNL     1      32.590 -22.907 -16.598  0.00  0.00    +0.207 C 
ATOM     10  C   UNL     1      31.480 -25.094 -13.031  0.00  0.00    +0.164 C 
ATOM     11  H   UNL     1      33.441 -24.753 -12.340  0.00  0.00    +0.126 HD
ATOM     12  H   UNL     1      29.888 -24.988 -14.350  0.00  0.00    +0.150 HD
ATOM     13  H   UNL     1      31.532 -22.442 -18.258  0.00  0.00    +0.166 HD
ENDROOT
BRANCH   5  14
ATOM     14  C   UNL     1      33.305 -21.596 -18.704  0.00  0.00    +0.058 C 
ATOM     15  C   UNL     1      34.685 -21.790 -18.609  0.00  0.00    +0.015 C 
ATOM     16  C   UNL     1      32.797 -20.678 -19.628  0.00  0.00    +0.015 C 
ATOM     17  C   UNL     1      35.043 -20.158 -20.353  0.00  0.00    +0.053 C 
ATOM     18  C   UNL     1      35.553 -21.073 -19.432  0.00  0.00    +0.006 C 
ATOM     19  C   UNL     1      33.665 -19.961 -20.451  0.00  0.00    +0.006 C 
BRANCH  17  22
ATOM     20  O   UNL     1      35.626 -19.090 -22.370  0.00  0.00    -0.270 OA
ATOM     21  N   UNL     1      37.183 -19.042 -20.686  0.00  0.00    -0.325 N 
ATOM     22  C   UNL     1      35.947 -19.410 -21.211  0.00  0.00    +0.243 C 
ATOM     23  H   UNL     1      37.822 -18.536 -21.239  0.00  0.00    +0.145 HD
ATOM     24  H   UNL     1      37.420 -19.291 -19.763  0.00  0.00    +0.145 HD
ENDBRANCH  17  22
ENDBRANCH   5  14
BRANCH   6  25
ATOM     25  O   UNL     1      35.237 -23.176 -14.219  0.00  0.00    -0.453 OA
BRANCH  25  26
ATOM     26  C   UNL     1      36.349 -23.709 -14.915  0.00  0.00    +0.208 C 
BRANCH  26  27
ATOM     27  C   UNL     1      37.000 -24.778 -14.040  0.00  0.00    +0.044 C 
ATOM     28  C   UNL     1      36.571 -26.182 -14.488  0.00  0.00    +0.004 C 
ATOM     29  C   UNL     1      38.528 -24.641 -14.064  0.00  0.00    +0.004 C 
ATOM     30  C   UNL     1      37.251 -27.271 -13.662  0.00  0.00    +0.000 C 
ATOM     31  C   UNL     1      39.205 -25.733 -13.239  0.00  0.00    +0.000 C 
ATOM     32  C   UNL     1      38.769 -27.126 -13.681  0.00  0.00    +0.000 C 
ENDBRANCH  26  27
ENDBRANCH  25  26
ENDBRANCH   6  25
TORSDOF 5
ENDMDL
MODEL 4
REMARK VINA RESULT:     -10.3      2.678      6.106
REMARK  Name = 447656
REMARK  5 active torsions:
REMARK  status: ('A' for Active; 'I' for Inactive)
REMARK    1  A    between atoms: N_5  and  C_14
REMARK    2  A    between atoms: C_6  and  O_25
REMARK    3  A    between atoms: C_17  and  C_22
REMARK    4  A    between atoms: O_25  and  C_26
REMARK    5  A    between atoms: C_26  and  C_27
REMARK                            x       y       z     vdW  Elec       q    Type
REMARK                         _______ _______ _______ _____ _____    ______ ____
ROOT
ATOM      1  N   UNL     1      35.268 -23.601 -15.111  0.00  0.00    -0.293 NA
ATOM      2  N   UNL     1      36.095 -25.446 -12.039  0.00  0.00    -0.266 NA
ATOM      3  N   UNL     1      37.650 -23.647 -14.585  0.00  0.00    -0.316 NA
ATOM      4  N   UNL     1      38.185 -24.868 -12.553  0.00  0.00    -0.296 N 
ATOM      5  N   UNL     1      36.843 -22.542 -16.484  0.00  0.00    -0.238 N 
ATOM      6  C   UNL     1      34.969 -24.331 -14.015  0.00  0.00    +0.288 C 
ATOM      7  C   UNL     1      36.006 -24.725 -13.195  0.00  0.00    +0.215 C 
ATOM      8  C   UNL     1      37.317 -24.378 -13.494  0.00  0.00    +0.196 C 
ATOM      9  C   UNL     1      36.572 -23.308 -15.326  0.00  0.00    +0.207 C 
ATOM     10  C   UNL     1      37.418 -25.504 -11.693  0.00  0.00    +0.164 C 
ATOM     11  H   UNL     1      35.344 -25.849 -11.544  0.00  0.00    +0.126 HD
ATOM     12  H   UNL     1      39.164 -24.767 -12.526  0.00  0.00    +0.150 HD
ATOM     13  H   UNL     1      37.798 -22.345 -16.615  0.00  0.00    +0.166 HD
ENDROOT
BRANCH   5  14
ATOM     14  C   UNL     1      36.013 -22.008 -17.485  0.00  0.00    +0.058 C 
ATOM     15  C   UNL     1      34.642 -22.279 -17.479  0.00  0.00    +0.015 C 
ATOM     16  C   UNL     1      36.555 -21.205 -18.491  0.00  0.00    +0.015 C 
ATOM     17  C   UNL     1      34.363 -20.947 -19.475  0.00  0.00    +0.053 C 
ATOM     18  C   UNL     1      33.818 -21.749 -18.472  0.00  0.00    +0.006 C 
ATOM     19  C   UNL     1      35.731 -20.675 -19.485  0.00  0.00    +0.006 C 
BRANCH  17  22
ATOM     20  O   UNL     1      32.267 -20.520 -20.462  0.00  0.00    -0.270 OA
ATOM     21  N   UNL     1      34.111 -19.697 -21.551  0.00  0.00    -0.325 N 
ATOM     22  C   UNL     1      33.504 -20.394 -20.509  0.00  0.00    +0.243 C 
ATOM     23  H   UNL     1      33.561 -19.310 -22.270  0.00  0.00    +0.145 HD
ATOM     24  H   UNL     1      35.090 -19.594 -21.570  0.00  0.00    +0.145 HD
ENDBRANCH  17  22
ENDBRANCH   5  14
BRANCH   6  25
ATOM     25  O   UNL     1      33.655 -24.646 -13.767  0.00  0.00    -0.453 OA
BRANCH  25  26
ATOM     26  C   UNL     1      32.900 -23.710 -13.019  0.00  0.00    +0.208 C 
BRANCH  26  27
ATOM     27  C   UNL     1      31.495 -23.635 -13.615  0.00  0.00    +0.044 C 
ATOM     28  C   UNL     1      31.543 -23.080 -15.046  0.00  0.00    +0.004 C 
ATOM     29  C   UNL     1      30.819 -25.011 -13.586  0.00  0.00    +0.004 C 
ATOM     30  C   UNL     1      30.155 -23.045 -15.683  0.00  0.00    +0.000 C 
ATOM     31  C   UNL     1      29.434 -24.973 -14.226  0.00  0.00    +0.000 C 
ATOM     32  C   UNL     1      29.483 -24.413 -15.643  0.00  0.00    +0.000 C 
ENDBRANCH  26  27
ENDBRANCH  25  26
ENDBRANCH   6  25
TORSDOF 5
ENDMDL
MODEL 5
REMARK VINA RESULT:     -10.2      2.774      7.490
REMARK  Name = 447656
REMARK  5 active torsions:
REMARK  status: ('A' for Active; 'I' for Inactive)
REMARK    1  A    between atoms: N_5  and  C_14
REMARK    2  A    between atoms: C_6  and  O_25
REMARK    3  A    between atoms: C_17  and  C_22
REMARK    4  A    between atoms: O_25  and  C_26
REMARK    5  A    between atoms: C_26  and  C_27
REMARK                            x       y       z     vdW  Elec       q    Type
REMARK                         _______ _______ _______ _____ _____    ______ ____
ROOT
ATOM      1  N   UNL     1      35.092 -22.667 -16.860  0.00  0.00    -0.293 NA
ATOM      2  N   UNL     1      33.801 -21.175 -19.964  0.00  0.00    -0.266 NA
ATOM      3  N   UNL     1      36.665 -21.176 -17.980  0.00  0.00    -0.316 NA
ATOM      4  N   UNL     1      35.802 -20.196 -20.030  0.00  0.00    -0.296 N 
ATOM      5  N   UNL     1      37.226 -22.261 -15.984  0.00  0.00    -0.238 N 
ATOM      6  C   UNL     1      34.155 -22.462 -17.811  0.00  0.00    +0.288 C 
ATOM      7  C   UNL     1      34.465 -21.614 -18.854  0.00  0.00    +0.215 C 
ATOM      8  C   UNL     1      35.704 -20.992 -18.918  0.00  0.00    +0.196 C 
ATOM      9  C   UNL     1      36.273 -22.020 -17.001  0.00  0.00    +0.207 C 
ATOM     10  C   UNL     1      34.641 -20.329 -20.636  0.00  0.00    +0.164 C 
ATOM     11  H   UNL     1      32.886 -21.423 -20.231  0.00  0.00    +0.126 HD
ATOM     12  H   UNL     1      36.569 -19.647 -20.313  0.00  0.00    +0.150 HD
ATOM     13  H   UNL     1      38.074 -21.778 -16.112  0.00  0.00    +0.166 HD
ENDROOT
BRANCH   5  14
ATOM     14  C   UNL     1      37.198 -23.057 -14.825  0.00  0.00    +0.058 C 
ATOM     15  C   UNL     1      36.261 -22.802 -13.821  0.00  0.00    +0.015 C 
ATOM     16  C   UNL     1      38.107 -24.106 -14.672  0.00  0.00    +0.015 C 
ATOM     17  C   UNL     1      37.142 -24.638 -12.522  0.00  0.00    +0.053 C 
ATOM     18  C   UNL     1      36.232 -23.591 -12.671  0.00  0.00    +0.006 C 
ATOM     19  C   UNL     1      38.079 -24.896 -13.523  0.00  0.00    +0.006 C 
BRANCH  17  22
ATOM     20  O   UNL     1      37.205 -26.700 -11.386  0.00  0.00    -0.270 OA
ATOM     21  N   UNL     1      36.997 -24.815 -10.097  0.00  0.00    -0.325 N 
ATOM     22  C   UNL     1      37.113 -25.461 -11.324  0.00  0.00    +0.243 C 
ATOM     23  H   UNL     1      36.973 -25.340  -9.264  0.00  0.00    +0.145 HD
ATOM     24  H   UNL     1      36.938 -23.832 -10.061  0.00  0.00    +0.145 HD
ENDBRANCH  17  22
ENDBRANCH   5  14
BRANCH   6  25
ATOM     25  O   UNL     1      32.945 -23.103 -17.699  0.00  0.00    -0.453 OA
BRANCH  25  26
ATOM     26  C   UNL     1      32.044 -22.610 -16.725  0.00  0.00    +0.208 C 
BRANCH  26  27
ATOM     27  C   UNL     1      31.909 -23.654 -15.617  0.00  0.00    +0.044 C 
ATOM     28  C   UNL     1      32.544 -23.147 -14.315  0.00  0.00    +0.004 C 
ATOM     29  C   UNL     1      30.437 -24.025 -15.399  0.00  0.00    +0.004 C 
ATOM     30  C   UNL     1      32.375 -24.152 -13.177  0.00  0.00    +0.000 C 
ATOM     31  C   UNL     1      30.272 -25.028 -14.259  0.00  0.00    +0.000 C 
ATOM     32  C   UNL     1      30.912 -24.525 -12.969  0.00  0.00    +0.000 C 
ENDBRANCH  26  27
ENDBRANCH  25  26
ENDBRANCH   6  25
TORSDOF 5
ENDMDL
MODEL 6
REMARK VINA RESULT:     -10.2      3.489      7.659
REMARK  Name = 447656
REMARK  5 active torsions:
REMARK  status: ('A' for Active; 'I' for Inactive)
REMARK    1  A    between atoms: N_5  and  C_14
REMARK    2  A    between atoms: C_6  and  O_25
REMARK    3  A    between atoms: C_17  and  C_22
REMARK    4  A    between atoms: O_25  and  C_26
REMARK    5  A    between atoms: C_26  and  C_27
REMARK                            x       y       z     vdW  Elec       q    Type
REMARK                         _______ _______ _______ _____ _____    ______ ____
ROOT
ATOM      1  N   UNL     1      34.958 -21.523 -18.701  0.00  0.00    -0.293 NA
ATOM      2  N   UNL     1      35.302 -23.531 -15.639  0.00  0.00    -0.266 NA
ATOM      3  N   UNL     1      37.080 -21.212 -17.537  0.00  0.00    -0.316 NA
ATOM      4  N   UNL     1      37.296 -22.544 -15.515  0.00  0.00    -0.296 N 
ATOM      5  N   UNL     1      36.595 -20.058 -19.514  0.00  0.00    -0.238 N 
ATOM      6  C   UNL     1      34.534 -22.413 -17.779  0.00  0.00    +0.288 C 
ATOM      7  C   UNL     1      35.377 -22.710 -16.728  0.00  0.00    +0.215 C 
ATOM      8  C   UNL     1      36.625 -22.109 -16.628  0.00  0.00    +0.196 C 
ATOM      9  C   UNL     1      36.188 -20.985 -18.526  0.00  0.00    +0.207 C 
ATOM     10  C   UNL     1      36.473 -23.397 -14.943  0.00  0.00    +0.164 C 
ATOM     11  H   UNL     1      34.543 -24.112 -15.399  0.00  0.00    +0.126 HD
ATOM     12  H   UNL     1      38.194 -22.278 -15.210  0.00  0.00    +0.150 HD
ATOM     13  H   UNL     1      37.492 -19.684 -19.361  0.00  0.00    +0.166 HD
ENDROOT
BRANCH   5  14
ATOM     14  C   UNL     1      35.967 -19.567 -20.672  0.00  0.00    +0.058 C 
ATOM     15  C   UNL     1      36.668 -18.741 -21.554  0.00  0.00    +0.015 C 
ATOM     16  C   UNL     1      34.638 -19.901 -20.945  0.00  0.00    +0.015 C 
ATOM     17  C   UNL     1      34.720 -18.590 -22.973  0.00  0.00    +0.053 C 
ATOM     18  C   UNL     1      36.046 -18.253 -22.703  0.00  0.00    +0.006 C 
ATOM     19  C   UNL     1      34.016 -19.414 -22.095  0.00  0.00    +0.006 C 
BRANCH  17  22
ATOM     20  O   UNL     1      34.537 -17.117 -24.802  0.00  0.00    -0.270 OA
ATOM     21  N   UNL     1      32.916 -18.727 -24.605  0.00  0.00    -0.325 N 
ATOM     22  C   UNL     1      34.071 -18.082 -24.171  0.00  0.00    +0.243 C 
ATOM     23  H   UNL     1      32.449 -18.410 -25.412  0.00  0.00    +0.145 HD
ATOM     24  H   UNL     1      32.564 -19.498 -24.103  0.00  0.00    +0.145 HD
ENDBRANCH  17  22
ENDBRANCH   5  14
BRANCH   6  25
ATOM     25  O   UNL     1      33.290 -22.978 -17.925  0.00  0.00    -0.453 OA
BRANCH  25  26
ATOM     26  C   UNL     1      32.207 -22.320 -17.294  0.00  0.00    +0.208 C 
BRANCH  26  27
ATOM     27  C   UNL     1      31.637 -23.247 -16.222  0.00  0.00    +0.044 C 
ATOM     28  C   UNL     1      32.269 -22.949 -14.855  0.00  0.00    +0.004 C 
ATOM     29  C   UNL     1      30.109 -23.123 -16.155  0.00  0.00    +0.004 C 
ATOM     30  C   UNL     1      31.676 -23.828 -13.756  0.00  0.00    +0.000 C 
ATOM     31  C   UNL     1      29.520 -24.001 -15.053  0.00  0.00    +0.000 C 
ATOM     32  C   UNL     1      30.157 -23.709 -13.699  0.00  0.00    +0.000 C 
ENDBRANCH  26  27
ENDBRANCH  25  26
ENDBRANCH   6  25
TORSDOF 5
ENDMDL
MODEL 7
REMARK VINA RESULT:     -10.0      8.590     12.400
REMARK  Name = 447656
REMARK  5 active torsions:
REMARK  status: ('A' for Active; 'I' for Inactive)
REMARK    1  A    between atoms: N_5  and  C_14
REMARK    2  A    between atoms: C_6  and  O_25
REMARK    3  A    between atoms: C_17  and  C_22
REMARK    4  A    between atoms: O_25  and  C_26
REMARK    5  A    between atoms: C_26  and  C_27
REMARK                            x       y       z     vdW  Elec       q    Type
REMARK                         _______ _______ _______ _____ _____    ______ ____
ROOT
ATOM      1  N   UNL     1      34.019 -14.802 -23.029  0.00  0.00    -0.293 NA
ATOM      2  N   UNL     1      33.251 -11.605 -24.675  0.00  0.00    -0.266 NA
ATOM      3  N   UNL     1      34.067 -14.899 -25.467  0.00  0.00    -0.316 NA
ATOM      4  N   UNL     1      33.557 -12.780 -26.544  0.00  0.00    -0.296 N 
ATOM      5  N   UNL     1      34.518 -16.789 -24.164  0.00  0.00    -0.238 N 
ATOM      6  C   UNL     1      33.698 -13.491 -23.045  0.00  0.00    +0.288 C 
ATOM      7  C   UNL     1      33.558 -12.872 -24.270  0.00  0.00    +0.215 C 
ATOM      8  C   UNL     1      33.744 -13.582 -25.448  0.00  0.00    +0.196 C 
ATOM      9  C   UNL     1      34.182 -15.417 -24.225  0.00  0.00    +0.207 C 
ATOM     10  C   UNL     1      33.262 -11.599 -26.045  0.00  0.00    +0.164 C 
ATOM     11  H   UNL     1      33.056 -10.837 -24.090  0.00  0.00    +0.126 HD
ATOM     12  H   UNL     1      33.628 -13.031 -27.494  0.00  0.00    +0.150 HD
ATOM     13  H   UNL     1      34.631 -17.209 -25.047  0.00  0.00    +0.166 HD
ENDROOT
BRANCH   5  14
ATOM     14  C   UNL     1      34.723 -17.671 -23.089  0.00  0.00    +0.058 C 
ATOM     15  C   UNL     1      35.528 -17.289 -22.011  0.00  0.00    +0.015 C 
ATOM     16  C   UNL     1      34.125 -18.933 -23.092  0.00  0.00    +0.015 C 
ATOM     17  C   UNL     1      35.132 -19.423 -20.950  0.00  0.00    +0.053 C 
ATOM     18  C   UNL     1      35.731 -18.163 -20.944  0.00  0.00    +0.006 C 
ATOM     19  C   UNL     1      34.328 -19.808 -22.024  0.00  0.00    +0.006 C 
BRANCH  17  22
ATOM     20  O   UNL     1      36.448 -20.420 -19.270  0.00  0.00    -0.270 OA
ATOM     21  N   UNL     1      34.261 -21.097 -19.410  0.00  0.00    -0.325 N 
ATOM     22  C   UNL     1      35.343 -20.334 -19.837  0.00  0.00    +0.243 C 
ATOM     23  H   UNL     1      34.367 -21.725 -18.659  0.00  0.00    +0.145 HD
ATOM     24  H   UNL     1      33.389 -21.010 -19.859  0.00  0.00    +0.145 HD
ENDBRANCH  17  22
ENDBRANCH   5  14
BRANCH   6  25
ATOM     25  O   UNL     1      33.525 -12.837 -21.849  0.00  0.00    -0.453 OA
BRANCH  25  26
ATOM     26  C   UNL     1      32.283 -13.016 -21.193  0.00  0.00    +0.208 C 
BRANCH  26  27
ATOM     27  C   UNL     1      31.709 -11.640 -20.860  0.00  0.00    +0.044 C 
ATOM     28  C   UNL     1      32.093 -11.222 -19.435  0.00  0.00    +0.004 C 
ATOM     29  C   UNL     1      32.179 -10.595 -21.881  0.00  0.00    +0.004 C 
ATOM     30  C   UNL     1      31.575  -9.825 -19.097  0.00  0.00    +0.000 C 
ATOM     31  C   UNL     1      31.661  -9.200 -21.539  0.00  0.00    +0.000 C 
ATOM     32  C   UNL     1      32.037  -8.792 -20.119  0.00  0.00    +0.000 C 
ENDBRANCH  26  27
ENDBRANCH  25  26
ENDBRANCH   6  25
TORSDOF 5
ENDMDL
MODEL 8
REMARK VINA RESULT:      -9.3     13.832     17.486
REMARK  Name = 447656
REMARK  5 active torsions:
REMARK  status: ('A' for Active; 'I' for Inactive)
REMARK    1  A    between atoms: N_5  and  C_14
REMARK    2  A    between atoms: C_6  and  O_25
REMARK    3  A    between atoms: C_17  and  C_22
REMARK    4  A    between atoms: O_25  and  C_26
REMARK    5  A    between atoms: C_26  and  C_27
REMARK                            x       y       z     vdW  Elec       q    Type
REMARK                         _______ _______ _______ _____ _____    ______ ____
ROOT
ATOM      1  N   UNL     1      32.691  -8.088 -22.712  0.00  0.00    -0.293 NA
ATOM      2  N   UNL     1      31.808 -10.517 -20.096  0.00  0.00    -0.266 NA
ATOM      3  N   UNL     1      32.534  -7.130 -20.474  0.00  0.00    -0.316 NA
ATOM      4  N   UNL     1      31.949  -8.744 -18.753  0.00  0.00    -0.296 N 
ATOM      5  N   UNL     1      33.081  -5.811 -22.327  0.00  0.00    -0.238 N 
ATOM      6  C   UNL     1      32.378  -9.319 -22.254  0.00  0.00    +0.288 C 
ATOM      7  C   UNL     1      32.140  -9.466 -20.903  0.00  0.00    +0.215 C 
ATOM      8  C   UNL     1      32.222  -8.378 -20.045  0.00  0.00    +0.196 C 
ATOM      9  C   UNL     1      32.749  -7.083 -21.806  0.00  0.00    +0.207 C 
ATOM     10  C   UNL     1      31.704 -10.036 -18.819  0.00  0.00    +0.164 C 
ATOM     11  H   UNL     1      31.668 -11.449 -20.382  0.00  0.00    +0.126 HD
ATOM     12  H   UNL     1      31.939  -8.170 -17.953  0.00  0.00    +0.150 HD
ATOM     13  H   UNL     1      33.116  -5.101 -21.646  0.00  0.00    +0.166 HD
ENDROOT
BRANCH   5  14
ATOM     14  C   UNL     1      33.370  -5.362 -23.628  0.00  0.00    +0.058 C 
ATOM     15  C   UNL     1      34.647  -5.543 -24.165  0.00  0.00    +0.015 C 
ATOM     16  C   UNL     1      32.382  -4.733 -24.389  0.00  0.00    +0.015 C 
ATOM     17  C   UNL     1      33.946  -4.471 -26.213  0.00  0.00    +0.053 C 
ATOM     18  C   UNL     1      34.935  -5.099 -25.455  0.00  0.00    +0.006 C 
ATOM     19  C   UNL     1      32.669  -4.288 -25.680  0.00  0.00    +0.006 C 
BRANCH  17  22
ATOM     20  O   UNL     1      33.351  -3.576 -28.309  0.00  0.00    -0.270 OA
ATOM     21  N   UNL     1      35.572  -4.044 -27.976  0.00  0.00    -0.325 N 
ATOM     22  C   UNL     1      34.244  -4.008 -27.558  0.00  0.00    +0.243 C 
ATOM     23  H   UNL     1      35.812  -3.740 -28.881  0.00  0.00    +0.145 HD
ATOM     24  H   UNL     1      36.271  -4.377 -27.367  0.00  0.00    +0.145 HD
ENDBRANCH  17  22
ENDBRANCH   5  14
BRANCH   6  25
ATOM     25  O   UNL     1      32.310 -10.361 -23.146  0.00  0.00    -0.453 OA
BRANCH  25  26
ATOM     26  C   UNL     1      33.531 -10.985 -23.501  0.00  0.00    +0.208 C 
BRANCH  26  27
ATOM     27  C   UNL     1      33.396 -12.486 -23.256  0.00  0.00    +0.044 C 
ATOM     28  C   UNL     1      33.701 -13.274 -24.537  0.00  0.00    +0.004 C 
ATOM     29  C   UNL     1      34.313 -12.933 -22.109  0.00  0.00    +0.004 C 
ATOM     30  C   UNL     1      33.625 -14.782 -24.304  0.00  0.00    +0.000 C 
ATOM     31  C   UNL     1      34.236 -14.440 -21.881  0.00  0.00    +0.000 C 
ATOM     32  C   UNL     1      34.530 -15.220 -23.158  0.00  0.00    +0.000 C 
ENDBRANCH  26  27
ENDBRANCH  25  26
ENDBRANCH   6  25
TORSDOF 5
ENDMDL
MODEL 9
REMARK VINA RESULT:      -9.1     14.122     17.853
REMARK  Name = 447656
REMARK  5 active torsions:
REMARK  status: ('A' for Active; 'I' for Inactive)
REMARK    1  A    between atoms: N_5  and  C_14
REMARK    2  A    between atoms: C_6  and  O_25
REMARK    3  A    between atoms: C_17  and  C_22
REMARK    4  A    between atoms: O_25  and  C_26
REMARK    5  A    between atoms: C_26  and  C_27
REMARK                            x       y       z     vdW  Elec       q    Type
REMARK                         _______ _______ _______ _____ _____    ______ ____
ROOT
ATOM      1  N   UNL     1      32.773  -7.856 -22.842  0.00  0.00    -0.293 NA
ATOM      2  N   UNL     1      31.910 -10.227 -20.166  0.00  0.00    -0.266 NA
ATOM      3  N   UNL     1      32.493  -6.825 -20.648  0.00  0.00    -0.316 NA
ATOM      4  N   UNL     1      31.922  -8.401 -18.887  0.00  0.00    -0.296 N 
ATOM      5  N   UNL     1      33.043  -5.550 -22.531  0.00  0.00    -0.238 N 
ATOM      6  C   UNL     1      32.501  -9.083 -22.348  0.00  0.00    +0.288 C 
ATOM      7  C   UNL     1      32.222  -9.192 -21.001  0.00  0.00    +0.215 C 
ATOM      8  C   UNL     1      32.223  -8.070 -20.183  0.00  0.00    +0.196 C 
ATOM      9  C   UNL     1      32.753  -6.817 -21.973  0.00  0.00    +0.207 C 
ATOM     10  C   UNL     1      31.740  -9.704 -18.912  0.00  0.00    +0.164 C 
ATOM     11  H   UNL     1      31.823 -11.174 -20.420  0.00  0.00    +0.126 HD
ATOM     12  H   UNL     1      31.857  -7.799 -18.111  0.00  0.00    +0.150 HD
ATOM     13  H   UNL     1      33.022  -4.815 -21.877  0.00  0.00    +0.166 HD
ENDROOT
BRANCH   5  14
ATOM     14  C   UNL     1      33.357  -5.136 -23.838  0.00  0.00    +0.058 C 
ATOM     15  C   UNL     1      34.627  -5.381 -24.365  0.00  0.00    +0.015 C 
ATOM     16  C   UNL     1      32.400  -4.478 -24.614  0.00  0.00    +0.015 C 
ATOM     17  C   UNL     1      33.982  -4.314 -26.434  0.00  0.00    +0.053 C 
ATOM     18  C   UNL     1      34.939  -4.972 -25.661  0.00  0.00    +0.006 C 
ATOM     19  C   UNL     1      32.712  -4.068 -25.911  0.00  0.00    +0.006 C 
BRANCH  17  22
ATOM     20  O   UNL     1      35.432  -4.087 -28.276  0.00  0.00    -0.270 OA
ATOM     21  N   UNL     1      33.306  -3.263 -28.525  0.00  0.00    -0.325 N 
ATOM     22  C   UNL     1      34.306  -3.888 -27.785  0.00  0.00    +0.243 C 
ATOM     23  H   UNL     1      33.490  -2.959 -29.444  0.00  0.00    +0.145 HD
ATOM     24  H   UNL     1      32.415  -3.122 -28.129  0.00  0.00    +0.145 HD
ENDBRANCH  17  22
ENDBRANCH   5  14
BRANCH   6  25
ATOM     25  O   UNL     1      32.512 -10.159 -23.201  0.00  0.00    -0.453 OA
BRANCH  25  26
ATOM     26  C   UNL     1      33.603 -10.256 -24.098  0.00  0.00    +0.208 C 
BRANCH  26  27
ATOM     27  C   UNL     1      34.057 -11.713 -24.152  0.00  0.00    +0.044 C 
ATOM     28  C   UNL     1      33.854 -12.395 -22.792  0.00  0.00    +0.004 C 
ATOM     29  C   UNL     1      33.314 -12.473 -25.259  0.00  0.00    +0.004 C 
ATOM     30  C   UNL     1      34.252 -13.869 -22.834  0.00  0.00    +0.000 C 
ATOM     31  C   UNL     1      33.712 -13.946 -25.297  0.00  0.00    +0.000 C 
ATOM     32  C   UNL     1      33.518 -14.617 -23.941  0.00  0.00    +0.000 C 
ENDBRANCH  26  27
ENDBRANCH  25  26
ENDBRANCH   6  25
TORSDOF 5
ENDMDL
