MODEL 1
REMARK VINA RESULT:     -11.7      0.000      0.000
REMARK  Name = 24812758
REMARK  9 active torsions:
REMARK  status: ('A' for Active; 'I' for Inactive)
REMARK    1  A    between atoms: C_1  and  C_11
REMARK    2  A    between atoms: C_4  and  C_23
REMARK    3  A    between atoms: C_9  and  O_14
REMARK    4  A    between atoms: C_10  and  O_16
REMARK    5  A    between atoms: C_12  and  O_18
REMARK    6  A    between atoms: C_13  and  C_20
REMARK    7  A    between atoms: C_20  and  O_21
REMARK    8  A    between atoms: C_23  and  C_25
REMARK    9  A    between atoms: C_27  and  C_30
REMARK                            x       y       z     vdW  Elec       q    Type
REMARK                         _______ _______ _______ _____ _____    ______ ____
ROOT
ATOM      1  C   UNL     1      34.994 -23.974 -14.923  0.00  0.00    +0.007 C 
ATOM      2  C   UNL     1      34.452 -23.549 -16.136  0.00  0.00    -0.006 C 
ATOM      3  C   UNL     1      34.211 -23.962 -13.768  0.00  0.00    -0.002 C 
ATOM      4  C   UNL     1      33.130 -23.111 -16.195  0.00  0.00    -0.021 C 
ATOM      5  C   UNL     1      32.347 -23.099 -15.040  0.00  0.00    -0.025 C 
ATOM      6  C   UNL     1      32.888 -23.525 -13.827  0.00  0.00    -0.005 C 
ATOM      7  C   UNL     1      30.928 -22.636 -15.077  0.00  0.00    +0.031 C 
ENDROOT
BRANCH   1  11
ATOM      8  O   UNL     1      36.428 -25.870 -15.035  0.00  0.00    -0.347 OA
ATOM      9  C   UNL     1      37.106 -24.065 -13.534  0.00  0.00    +0.171 C 
ATOM     10  C   UNL     1      38.499 -24.691 -13.425  0.00  0.00    +0.169 C 
ATOM     11  C   UNL     1      36.431 -24.450 -14.859  0.00  0.00    +0.167 C 
ATOM     12  C   UNL     1      38.466 -26.181 -13.759  0.00  0.00    +0.169 C 
ATOM     13  C   UNL     1      37.743 -26.425 -15.085  0.00  0.00    +0.174 C 
BRANCH   9  14
ATOM     14  O   UNL     1      37.231 -22.644 -13.480  0.00  0.00    -0.379 OA
ATOM     15  H   UNL     1      37.593 -22.319 -14.320  0.00  0.00    +0.211 HD
ENDBRANCH   9  14
BRANCH  10  16
ATOM     16  O   UNL     1      38.980 -24.550 -12.087  0.00  0.00    -0.379 OA
ATOM     17  H   UNL     1      38.423 -23.916 -11.608  0.00  0.00    +0.211 HD
ENDBRANCH  10  16
BRANCH  12  18
ATOM     18  O   UNL     1      39.801 -26.672 -13.856  0.00  0.00    -0.379 OA
ATOM     19  H   UNL     1      40.305 -26.117 -14.472  0.00  0.00    +0.211 HD
ENDBRANCH  12  18
BRANCH  13  20
ATOM     20  C   UNL     1      37.600 -27.913 -15.387  0.00  0.00    +0.169 C 
BRANCH  20  21
ATOM     21  O   UNL     1      37.111 -28.061 -16.708  0.00  0.00    -0.379 OA
ATOM     22  H   UNL     1      37.774 -27.735 -17.337  0.00  0.00    +0.211 HD
ENDBRANCH  20  21
ENDBRANCH  13  20
ENDBRANCH   1  11
BRANCH   4  23
ATOM     23  C   UNL     1      32.572 -22.661 -17.505  0.00  0.00    +0.059 C 
BRANCH  23  25
ATOM     24  S   UNL     1      32.987 -20.799 -19.539  0.00  0.00    -0.091 S 
ATOM     25  C   UNL     1      33.563 -21.904 -18.365  0.00  0.00    +0.012 C 
ATOM     26  C   UNL     1      34.938 -21.969 -18.346  0.00  0.00    +0.003 C 
ATOM     27  C   UNL     1      34.581 -20.404 -20.026  0.00  0.00    +0.029 C 
ATOM     28  C   UNL     1      35.528 -21.100 -19.309  0.00  0.00    +0.007 C 
BRANCH  27  30
ATOM     29  F   UNL     1      35.304 -16.674 -24.104  0.00  0.00    -0.204 F 
ATOM     30  C   UNL     1      34.768 -19.437 -21.083  0.00  0.00    +0.006 C 
ATOM     31  C   UNL     1      34.190 -19.651 -22.335  0.00  0.00    +0.003 C 
ATOM     32  C   UNL     1      35.528 -18.290 -20.853  0.00  0.00    +0.003 C 
ATOM     33  C   UNL     1      34.370 -18.718 -23.355  0.00  0.00    +0.030 C 
ATOM     34  C   UNL     1      35.709 -17.357 -21.873  0.00  0.00    +0.030 C 
ATOM     35  C   UNL     1      35.130 -17.571 -23.124  0.00  0.00    +0.140 C 
ENDBRANCH  27  30
ENDBRANCH  23  25
ENDBRANCH   4  23
TORSDOF 9
ENDMDL
MODEL 2
REMARK VINA RESULT:     -11.3      1.321      2.648
REMARK  Name = 24812758
REMARK  9 active torsions:
REMARK  status: ('A' for Active; 'I' for Inactive)
REMARK    1  A    between atoms: C_1  and  C_11
REMARK    2  A    between atoms: C_4  and  C_23
REMARK    3  A    between atoms: C_9  and  O_14
REMARK    4  A    between atoms: C_10  and  O_16
REMARK    5  A    between atoms: C_12  and  O_18
REMARK    6  A    between atoms: C_13  and  C_20
REMARK    7  A    between atoms: C_20  and  O_21
REMARK    8  A    between atoms: C_23  and  C_25
REMARK    9  A    between atoms: C_27  and  C_30
REMARK                            x       y       z     vdW  Elec       q    Type
REMARK                         _______ _______ _______ _____ _____    ______ ____
ROOT
ATOM      1  C   UNL     1      33.910 -24.014 -13.769  0.00  0.00    +0.007 C 
ATOM      2  C   UNL     1      33.686 -23.841 -15.134  0.00  0.00    -0.006 C 
ATOM      3  C   UNL     1      32.890 -23.745 -12.856  0.00  0.00    -0.002 C 
ATOM      4  C   UNL     1      32.444 -23.398 -15.588  0.00  0.00    -0.021 C 
ATOM      5  C   UNL     1      31.424 -23.129 -14.675  0.00  0.00    -0.025 C 
ATOM      6  C   UNL     1      31.648 -23.302 -13.309  0.00  0.00    -0.005 C 
ATOM      7  C   UNL     1      30.085 -22.655 -15.136  0.00  0.00    +0.031 C 
ENDROOT
BRANCH   1  11
ATOM      8  O   UNL     1      35.808 -23.471 -12.440  0.00  0.00    -0.347 OA
ATOM      9  C   UNL     1      36.213 -24.821 -14.437  0.00  0.00    +0.171 C 
ATOM     10  C   UNL     1      37.616 -25.149 -13.919  0.00  0.00    +0.169 C 
ATOM     11  C   UNL     1      35.260 -24.495 -13.276  0.00  0.00    +0.167 C 
ATOM     12  C   UNL     1      38.100 -24.098 -12.922  0.00  0.00    +0.169 C 
ATOM     13  C   UNL     1      37.047 -23.850 -11.840  0.00  0.00    +0.174 C 
BRANCH   9  14
ATOM     14  O   UNL     1      35.703 -25.952 -15.143  0.00  0.00    -0.379 OA
ATOM     15  H   UNL     1      34.741 -26.002 -15.022  0.00  0.00    +0.211 HD
ENDBRANCH   9  14
BRANCH  10  16
ATOM     16  O   UNL     1      38.533 -25.173 -15.015  0.00  0.00    -0.379 OA
ATOM     17  H   UNL     1      39.284 -25.746 -14.797  0.00  0.00    +0.211 HD
ENDBRANCH  10  16
BRANCH  12  18
ATOM     18  O   UNL     1      39.305 -24.550 -12.309  0.00  0.00    -0.379 OA
ATOM     19  H   UNL     1      39.123 -25.351 -11.791  0.00  0.00    +0.211 HD
ENDBRANCH  12  18
BRANCH  13  20
ATOM     20  C   UNL     1      37.461 -22.727 -10.895  0.00  0.00    +0.169 C 
BRANCH  20  21
ATOM     21  O   UNL     1      38.221 -21.781 -11.624  0.00  0.00    -0.379 OA
ATOM     22  H   UNL     1      37.751 -20.932 -11.642  0.00  0.00    +0.211 HD
ENDBRANCH  20  21
ENDBRANCH  13  20
ENDBRANCH   1  11
BRANCH   4  23
ATOM     23  C   UNL     1      32.228 -23.221 -17.055  0.00  0.00    +0.059 C 
BRANCH  23  25
ATOM     24  S   UNL     1      32.990 -21.433 -19.056  0.00  0.00    -0.091 S 
ATOM     25  C   UNL     1      33.353 -22.486 -17.755  0.00  0.00    +0.012 C 
ATOM     26  C   UNL     1      34.703 -22.533 -17.489  0.00  0.00    +0.003 C 
ATOM     27  C   UNL     1      34.642 -21.039 -19.268  0.00  0.00    +0.029 C 
ATOM     28  C   UNL     1      35.451 -21.695 -18.366  0.00  0.00    +0.007 C 
BRANCH  27  30
ATOM     29  F   UNL     1      36.061 -17.460 -23.298  0.00  0.00    -0.204 F 
ATOM     30  C   UNL     1      35.010 -20.112 -20.313  0.00  0.00    +0.006 C 
ATOM     31  C   UNL     1      34.102 -19.808 -21.327  0.00  0.00    +0.003 C 
ATOM     32  C   UNL     1      36.273 -19.520 -20.307  0.00  0.00    +0.003 C 
ATOM     33  C   UNL     1      34.457 -18.912 -22.335  0.00  0.00    +0.030 C 
ATOM     34  C   UNL     1      36.628 -18.624 -21.315  0.00  0.00    +0.030 C 
ATOM     35  C   UNL     1      35.720 -18.320 -22.330  0.00  0.00    +0.140 C 
ENDBRANCH  27  30
ENDBRANCH  23  25
ENDBRANCH   4  23
TORSDOF 9
ENDMDL
MODEL 3
REMARK VINA RESULT:     -10.9      1.521      2.163
REMARK  Name = 24812758
REMARK  9 active torsions:
REMARK  status: ('A' for Active; 'I' for Inactive)
REMARK    1  A    between atoms: C_1  and  C_11
REMARK    2  A    between atoms: C_4  and  C_23
REMARK    3  A    between atoms: C_9  and  O_14
REMARK    4  A    between atoms: C_10  and  O_16
REMARK    5  A    between atoms: C_12  and  O_18
REMARK    6  A    between atoms: C_13  and  C_20
REMARK    7  A    between atoms: C_20  and  O_21
REMARK    8  A    between atoms: C_23  and  C_25
REMARK    9  A    between atoms: C_27  and  C_30
REMARK                            x       y       z     vdW  Elec       q    Type
REMARK                         _______ _______ _______ _____ _____    ______ ____
ROOT
ATOM      1  C   UNL     1      33.994 -23.293 -14.269  0.00  0.00    +0.007 C 
ATOM      2  C   UNL     1      33.897 -23.316 -15.660  0.00  0.00    -0.006 C 
ATOM      3  C   UNL     1      32.853 -23.080 -13.495  0.00  0.00    -0.002 C 
ATOM      4  C   UNL     1      32.661 -23.127 -16.278  0.00  0.00    -0.021 C 
ATOM      5  C   UNL     1      31.521 -22.914 -15.503  0.00  0.00    -0.025 C 
ATOM      6  C   UNL     1      31.617 -22.891 -14.112  0.00  0.00    -0.005 C 
ATOM      7  C   UNL     1      30.186 -22.709 -16.141  0.00  0.00    +0.031 C 
ENDROOT
BRANCH   1  11
ATOM      8  O   UNL     1      36.346 -23.415 -14.611  0.00  0.00    -0.347 OA
ATOM      9  C   UNL     1      35.413 -24.844 -12.862  0.00  0.00    +0.171 C 
ATOM     10  C   UNL     1      36.826 -25.102 -12.331  0.00  0.00    +0.169 C 
ATOM     11  C   UNL     1      35.337 -23.498 -13.599  0.00  0.00    +0.167 C 
ATOM     12  C   UNL     1      37.878 -24.863 -13.413  0.00  0.00    +0.169 C 
ATOM     13  C   UNL     1      37.669 -23.503 -14.082  0.00  0.00    +0.174 C 
BRANCH   9  14
ATOM     14  O   UNL     1      34.502 -24.815 -11.763  0.00  0.00    -0.379 OA
ATOM     15  H   UNL     1      34.836 -25.383 -11.051  0.00  0.00    +0.211 HD
ENDBRANCH   9  14
BRANCH  10  16
ATOM     16  O   UNL     1      36.932 -26.460 -11.904  0.00  0.00    -0.379 OA
ATOM     17  H   UNL     1      37.609 -26.531 -11.213  0.00  0.00    +0.211 HD
ENDBRANCH  10  16
BRANCH  12  18
ATOM     18  O   UNL     1      39.175 -24.902 -12.824  0.00  0.00    -0.379 OA
ATOM     19  H   UNL     1      39.113 -25.270 -11.928  0.00  0.00    +0.211 HD
ENDBRANCH  12  18
BRANCH  13  20
ATOM     20  C   UNL     1      38.640 -23.288 -15.240  0.00  0.00    +0.169 C 
BRANCH  20  21
ATOM     21  O   UNL     1      37.950 -22.636 -16.291  0.00  0.00    -0.379 OA
ATOM     22  H   UNL     1      37.320 -23.253 -16.696  0.00  0.00    +0.211 HD
ENDBRANCH  20  21
ENDBRANCH  13  20
ENDBRANCH   1  11
BRANCH   4  23
ATOM     23  C   UNL     1      32.583 -23.157 -17.769  0.00  0.00    +0.059 C 
BRANCH  23  25
ATOM     24  S   UNL     1      33.028 -21.145 -19.649  0.00  0.00    -0.091 S 
ATOM     25  C   UNL     1      33.577 -22.241 -18.453  0.00  0.00    +0.012 C 
ATOM     26  C   UNL     1      34.935 -22.144 -18.248  0.00  0.00    +0.003 C 
ATOM     27  C   UNL     1      34.610 -20.539 -19.896  0.00  0.00    +0.029 C 
ATOM     28  C   UNL     1      35.534 -21.158 -19.084  0.00  0.00    +0.007 C 
BRANCH  27  30
ATOM     29  F   UNL     1      35.398 -16.523 -23.679  0.00  0.00    -0.204 F 
ATOM     30  C   UNL     1      34.814 -19.498 -20.877  0.00  0.00    +0.006 C 
ATOM     31  C   UNL     1      35.559 -18.366 -20.547  0.00  0.00    +0.003 C 
ATOM     32  C   UNL     1      34.267 -19.626 -22.154  0.00  0.00    +0.003 C 
ATOM     33  C   UNL     1      35.756 -17.361 -21.493  0.00  0.00    +0.030 C 
ATOM     34  C   UNL     1      34.464 -18.621 -23.100  0.00  0.00    +0.030 C 
ATOM     35  C   UNL     1      35.209 -17.488 -22.770  0.00  0.00    +0.140 C 
ENDBRANCH  27  30
ENDBRANCH  23  25
ENDBRANCH   4  23
TORSDOF 9
ENDMDL
MODEL 4
REMARK VINA RESULT:     -10.8     11.989     17.020
REMARK  Name = 24812758
REMARK  9 active torsions:
REMARK  status: ('A' for Active; 'I' for Inactive)
REMARK    1  A    between atoms: C_1  and  C_11
REMARK    2  A    between atoms: C_4  and  C_23
REMARK    3  A    between atoms: C_9  and  O_14
REMARK    4  A    between atoms: C_10  and  O_16
REMARK    5  A    between atoms: C_12  and  O_18
REMARK    6  A    between atoms: C_13  and  C_20
REMARK    7  A    between atoms: C_20  and  O_21
REMARK    8  A    between atoms: C_23  and  C_25
REMARK    9  A    between atoms: C_27  and  C_30
REMARK                            x       y       z     vdW  Elec       q    Type
REMARK                         _______ _______ _______ _____ _____    ______ ____
ROOT
ATOM      1  C   UNL     1      32.714  -6.744 -21.311  0.00  0.00    +0.007 C 
ATOM      2  C   UNL     1      32.160  -7.883 -21.894  0.00  0.00    -0.006 C 
ATOM      3  C   UNL     1      32.939  -6.705 -19.934  0.00  0.00    -0.002 C 
ATOM      4  C   UNL     1      31.830  -8.983 -21.103  0.00  0.00    -0.021 C 
ATOM      5  C   UNL     1      32.055  -8.944 -19.727  0.00  0.00    -0.025 C 
ATOM      6  C   UNL     1      32.609  -7.805 -19.143  0.00  0.00    -0.005 C 
ATOM      7  C   UNL     1      31.712 -10.109 -18.858  0.00  0.00    +0.031 C 
ENDROOT
BRANCH   1  11
ATOM      8  O   UNL     1      31.902  -4.732 -22.289  0.00  0.00    -0.347 OA
ATOM      9  C   UNL     1      33.585  -5.970 -23.557  0.00  0.00    +0.171 C 
ATOM     10  C   UNL     1      33.787  -4.752 -24.462  0.00  0.00    +0.169 C 
ATOM     11  C   UNL     1      33.072  -5.549 -22.171  0.00  0.00    +0.167 C 
ATOM     12  C   UNL     1      32.563  -3.837 -24.443  0.00  0.00    +0.169 C 
ATOM     13  C   UNL     1      32.143  -3.521 -23.006  0.00  0.00    +0.174 C 
BRANCH   9  14
ATOM     14  O   UNL     1      34.834  -6.641 -23.396  0.00  0.00    -0.379 OA
ATOM     15  H   UNL     1      35.238  -6.376 -22.555  0.00  0.00    +0.211 HD
ENDBRANCH   9  14
BRANCH  10  16
ATOM     16  O   UNL     1      33.991  -5.188 -25.807  0.00  0.00    -0.379 OA
ATOM     17  H   UNL     1      33.440  -4.661 -26.406  0.00  0.00    +0.211 HD
ENDBRANCH  10  16
BRANCH  12  18
ATOM     18  O   UNL     1      32.873  -2.622 -25.120  0.00  0.00    -0.379 OA
ATOM     19  H   UNL     1      33.282  -2.824 -25.977  0.00  0.00    +0.211 HD
ENDBRANCH  12  18
BRANCH  13  20
ATOM     20  C   UNL     1      30.859  -2.699 -22.961  0.00  0.00    +0.169 C 
BRANCH  20  21
ATOM     21  O   UNL     1      30.438  -2.595 -21.612  0.00  0.00    -0.379 OA
ATOM     22  H   UNL     1      31.169  -2.260 -21.070  0.00  0.00    +0.211 HD
ENDBRANCH  20  21
ENDBRANCH  13  20
ENDBRANCH   1  11
BRANCH   4  23
ATOM     23  C   UNL     1      31.239 -10.192 -21.750  0.00  0.00    +0.059 C 
BRANCH  23  25
ATOM     24  S   UNL     1      32.294 -12.771 -21.878  0.00  0.00    -0.091 S 
ATOM     25  C   UNL     1      32.266 -11.126 -22.356  0.00  0.00    +0.012 C 
ATOM     26  C   UNL     1      33.237 -10.843 -23.290  0.00  0.00    +0.003 C 
ATOM     27  C   UNL     1      33.609 -13.107 -22.921  0.00  0.00    +0.029 C 
ATOM     28  C   UNL     1      34.016 -11.990 -23.618  0.00  0.00    +0.007 C 
BRANCH  27  30
ATOM     29  F   UNL     1      35.649 -18.290 -23.103  0.00  0.00    -0.204 F 
ATOM     30  C   UNL     1      34.138 -14.450 -22.968  0.00  0.00    +0.006 C 
ATOM     31  C   UNL     1      34.151 -15.153 -24.174  0.00  0.00    +0.003 C 
ATOM     32  C   UNL     1      34.635 -15.045 -21.809  0.00  0.00    +0.003 C 
ATOM     33  C   UNL     1      34.661 -16.450 -24.219  0.00  0.00    +0.030 C 
ATOM     34  C   UNL     1      35.146 -16.342 -21.855  0.00  0.00    +0.030 C 
ATOM     35  C   UNL     1      35.159 -17.045 -23.060  0.00  0.00    +0.140 C 
ENDBRANCH  27  30
ENDBRANCH  23  25
ENDBRANCH   4  23
TORSDOF 9
ENDMDL
MODEL 5
REMARK VINA RESULT:     -10.7      3.119      5.298
REMARK  Name = 24812758
REMARK  9 active torsions:
REMARK  status: ('A' for Active; 'I' for Inactive)
REMARK    1  A    between atoms: C_1  and  C_11
REMARK    2  A    between atoms: C_4  and  C_23
REMARK    3  A    between atoms: C_9  and  O_14
REMARK    4  A    between atoms: C_10  and  O_16
REMARK    5  A    between atoms: C_12  and  O_18
REMARK    6  A    between atoms: C_13  and  C_20
REMARK    7  A    between atoms: C_20  and  O_21
REMARK    8  A    between atoms: C_23  and  C_25
REMARK    9  A    between atoms: C_27  and  C_30
REMARK                            x       y       z     vdW  Elec       q    Type
REMARK                         _______ _______ _______ _____ _____    ______ ____
ROOT
ATOM      1  C   UNL     1      33.884 -23.181 -15.445  0.00  0.00    +0.007 C 
ATOM      2  C   UNL     1      34.430 -23.018 -16.718  0.00  0.00    -0.006 C 
ATOM      3  C   UNL     1      34.563 -22.695 -14.328  0.00  0.00    -0.002 C 
ATOM      4  C   UNL     1      35.655 -22.370 -16.875  0.00  0.00    -0.021 C 
ATOM      5  C   UNL     1      36.334 -21.885 -15.757  0.00  0.00    -0.025 C 
ATOM      6  C   UNL     1      35.788 -22.048 -14.484  0.00  0.00    -0.005 C 
ATOM      7  C   UNL     1      37.647 -21.187 -15.898  0.00  0.00    +0.031 C 
ENDROOT
BRANCH   1  11
ATOM      8  O   UNL     1      31.532 -23.010 -15.767  0.00  0.00    -0.347 OA
ATOM      9  C   UNL     1      32.286 -24.268 -13.812  0.00  0.00    +0.171 C 
ATOM     10  C   UNL     1      30.872 -24.831 -13.640  0.00  0.00    +0.169 C 
ATOM     11  C   UNL     1      32.552 -23.886 -15.276  0.00  0.00    +0.167 C 
ATOM     12  C   UNL     1      29.832 -23.931 -14.304  0.00  0.00    +0.169 C 
ATOM     13  C   UNL     1      30.234 -23.605 -15.744  0.00  0.00    +0.174 C 
BRANCH   9  14
ATOM     14  O   UNL     1      33.232 -25.263 -13.421  0.00  0.00    -0.379 OA
ATOM     15  H   UNL     1      33.013 -26.105 -13.850  0.00  0.00    +0.211 HD
ENDBRANCH   9  14
BRANCH  10  16
ATOM     16  O   UNL     1      30.561 -24.914 -12.249  0.00  0.00    -0.379 OA
ATOM     17  H   UNL     1      30.962 -25.713 -11.874  0.00  0.00    +0.211 HD
ENDBRANCH  10  16
BRANCH  12  18
ATOM     18  O   UNL     1      28.570 -24.593 -14.308  0.00  0.00    -0.379 OA
ATOM     19  H   UNL     1      28.282 -24.746 -13.393  0.00  0.00    +0.211 HD
ENDBRANCH  12  18
BRANCH  13  20
ATOM     20  C   UNL     1      29.267 -22.620 -16.392  0.00  0.00    +0.169 C 
BRANCH  20  21
ATOM     21  O   UNL     1      28.482 -22.023 -15.375  0.00  0.00    -0.379 OA
ATOM     22  H   UNL     1      28.182 -22.706 -14.756  0.00  0.00    +0.211 HD
ENDBRANCH  20  21
ENDBRANCH  13  20
ENDBRANCH   1  11
BRANCH   4  23
ATOM     23  C   UNL     1      36.220 -22.207 -18.247  0.00  0.00    +0.059 C 
BRANCH  23  25
ATOM     24  S   UNL     1      36.180 -20.278 -20.262  0.00  0.00    -0.091 S 
ATOM     25  C   UNL     1      35.392 -21.314 -19.148  0.00  0.00    +0.012 C 
ATOM     26  C   UNL     1      34.021 -21.200 -19.217  0.00  0.00    +0.003 C 
ATOM     27  C   UNL     1      34.685 -19.674 -20.838  0.00  0.00    +0.029 C 
ATOM     28  C   UNL     1      33.611 -20.249 -20.196  0.00  0.00    +0.007 C 
BRANCH  27  30
ATOM     29  F   UNL     1      34.712 -15.817 -24.861  0.00  0.00    -0.204 F 
ATOM     30  C   UNL     1      34.692 -18.674 -21.881  0.00  0.00    +0.006 C 
ATOM     31  C   UNL     1      35.204 -17.402 -21.625  0.00  0.00    +0.003 C 
ATOM     32  C   UNL     1      34.187 -18.981 -23.144  0.00  0.00    +0.003 C 
ATOM     33  C   UNL     1      35.211 -16.437 -22.631  0.00  0.00    +0.030 C 
ATOM     34  C   UNL     1      34.194 -18.016 -24.151  0.00  0.00    +0.030 C 
ATOM     35  C   UNL     1      34.706 -16.743 -23.894  0.00  0.00    +0.140 C 
ENDBRANCH  27  30
ENDBRANCH  23  25
ENDBRANCH   4  23
TORSDOF 9
ENDMDL
MODEL 6
REMARK VINA RESULT:     -10.6     12.222     17.176
REMARK  Name = 24812758
REMARK  9 active torsions:
REMARK  status: ('A' for Active; 'I' for Inactive)
REMARK    1  A    between atoms: C_1  and  C_11
REMARK    2  A    between atoms: C_4  and  C_23
REMARK    3  A    between atoms: C_9  and  O_14
REMARK    4  A    between atoms: C_10  and  O_16
REMARK    5  A    between atoms: C_12  and  O_18
REMARK    6  A    between atoms: C_13  and  C_20
REMARK    7  A    between atoms: C_20  and  O_21
REMARK    8  A    between atoms: C_23  and  C_25
REMARK    9  A    between atoms: C_27  and  C_30
REMARK                            x       y       z     vdW  Elec       q    Type
REMARK                         _______ _______ _______ _____ _____    ______ ____
ROOT
ATOM      1  C   UNL     1      32.049  -6.766 -21.893  0.00  0.00    +0.007 C 
ATOM      2  C   UNL     1      31.593  -8.062 -22.129  0.00  0.00    -0.006 C 
ATOM      3  C   UNL     1      32.575  -6.428 -20.645  0.00  0.00    -0.002 C 
ATOM      4  C   UNL     1      31.660  -9.022 -21.119  0.00  0.00    -0.021 C 
ATOM      5  C   UNL     1      32.185  -8.684 -19.871  0.00  0.00    -0.025 C 
ATOM      6  C   UNL     1      32.642  -7.388 -19.635  0.00  0.00    -0.005 C 
ATOM      7  C   UNL     1      32.269  -9.693 -18.774  0.00  0.00    +0.031 C 
ENDROOT
BRANCH   1  11
ATOM      8  O   UNL     1      33.227  -5.737 -23.687  0.00  0.00    -0.347 OA
ATOM      9  C   UNL     1      31.674  -4.324 -22.436  0.00  0.00    +0.171 C 
ATOM     10  C   UNL     1      31.763  -3.265 -23.538  0.00  0.00    +0.169 C 
ATOM     11  C   UNL     1      31.976  -5.724 -22.991  0.00  0.00    +0.167 C 
ATOM     12  C   UNL     1      33.053  -3.409 -24.344  0.00  0.00    +0.169 C 
ATOM     13  C   UNL     1      33.244  -4.854 -24.810  0.00  0.00    +0.174 C 
BRANCH   9  14
ATOM     14  O   UNL     1      30.352  -4.321 -21.896  0.00  0.00    -0.379 OA
ATOM     15  H   UNL     1      30.344  -3.823 -21.064  0.00  0.00    +0.211 HD
ENDBRANCH   9  14
BRANCH  10  16
ATOM     16  O   UNL     1      31.755  -1.964 -22.949  0.00  0.00    -0.379 OA
ATOM     17  H   UNL     1      30.870  -1.771 -22.601  0.00  0.00    +0.211 HD
ENDBRANCH  10  16
BRANCH  12  18
ATOM     18  O   UNL     1      32.995  -2.553 -25.483  0.00  0.00    -0.379 OA
ATOM     19  H   UNL     1      32.743  -1.659 -25.202  0.00  0.00    +0.211 HD
ENDBRANCH  12  18
BRANCH  13  20
ATOM     20  C   UNL     1      34.578  -5.047 -25.523  0.00  0.00    +0.169 C 
BRANCH  20  21
ATOM     21  O   UNL     1      34.519  -4.389 -26.776  0.00  0.00    -0.379 OA
ATOM     22  H   UNL     1      34.752  -3.455 -26.662  0.00  0.00    +0.211 HD
ENDBRANCH  20  21
ENDBRANCH  13  20
ENDBRANCH   1  11
BRANCH   4  23
ATOM     23  C   UNL     1      31.166 -10.403 -21.396  0.00  0.00    +0.059 C 
BRANCH  23  25
ATOM     24  S   UNL     1      32.272 -12.948 -21.676  0.00  0.00    -0.091 S 
ATOM     25  C   UNL     1      32.180 -11.289 -22.089  0.00  0.00    +0.012 C 
ATOM     26  C   UNL     1      33.092 -10.947 -23.063  0.00  0.00    +0.003 C 
ATOM     27  C   UNL     1      33.537 -13.213 -22.799  0.00  0.00    +0.029 C 
ATOM     28  C   UNL     1      33.879 -12.062 -23.474  0.00  0.00    +0.007 C 
BRANCH  27  30
ATOM     29  F   UNL     1      35.685 -18.333 -23.282  0.00  0.00    -0.204 F 
ATOM     30  C   UNL     1      34.093 -14.540 -22.924  0.00  0.00    +0.006 C 
ATOM     31  C   UNL     1      34.033 -15.209 -24.147  0.00  0.00    +0.003 C 
ATOM     32  C   UNL     1      34.691 -15.153 -21.822  0.00  0.00    +0.003 C 
ATOM     33  C   UNL     1      34.571 -16.490 -24.268  0.00  0.00    +0.030 C 
ATOM     34  C   UNL     1      35.228 -16.433 -21.944  0.00  0.00    +0.030 C 
ATOM     35  C   UNL     1      35.168 -17.103 -23.166  0.00  0.00    +0.140 C 
ENDBRANCH  27  30
ENDBRANCH  23  25
ENDBRANCH   4  23
TORSDOF 9
ENDMDL
MODEL 7
REMARK VINA RESULT:     -10.2      4.471      8.207
REMARK  Name = 24812758
REMARK  9 active torsions:
REMARK  status: ('A' for Active; 'I' for Inactive)
REMARK    1  A    between atoms: C_1  and  C_11
REMARK    2  A    between atoms: C_4  and  C_23
REMARK    3  A    between atoms: C_9  and  O_14
REMARK    4  A    between atoms: C_10  and  O_16
REMARK    5  A    between atoms: C_12  and  O_18
REMARK    6  A    between atoms: C_13  and  C_20
REMARK    7  A    between atoms: C_20  and  O_21
REMARK    8  A    between atoms: C_23  and  C_25
REMARK    9  A    between atoms: C_27  and  C_30
REMARK                            x       y       z     vdW  Elec       q    Type
REMARK                         _______ _______ _______ _____ _____    ______ ____
ROOT
ATOM      1  C   UNL     1      35.980 -21.918 -17.421  0.00  0.00    +0.007 C 
ATOM      2  C   UNL     1      35.245 -22.885 -16.736  0.00  0.00    -0.006 C 
ATOM      3  C   UNL     1      37.086 -21.322 -16.813  0.00  0.00    -0.002 C 
ATOM      4  C   UNL     1      35.613 -23.256 -15.443  0.00  0.00    -0.021 C 
ATOM      5  C   UNL     1      36.719 -22.660 -14.835  0.00  0.00    -0.025 C 
ATOM      6  C   UNL     1      37.454 -21.694 -15.520  0.00  0.00    -0.005 C 
ATOM      7  C   UNL     1      37.134 -23.041 -13.452  0.00  0.00    +0.031 C 
ENDROOT
BRANCH   1  11
ATOM      8  O   UNL     1      36.265 -20.299 -19.142  0.00  0.00    -0.347 OA
ATOM      9  C   UNL     1      34.059 -21.335 -18.961  0.00  0.00    +0.171 C 
ATOM     10  C   UNL     1      33.693 -20.774 -20.337  0.00  0.00    +0.169 C 
ATOM     11  C   UNL     1      35.579 -21.515 -18.826  0.00  0.00    +0.167 C 
ATOM     12  C   UNL     1      34.551 -19.560 -20.689  0.00  0.00    +0.169 C 
ATOM     13  C   UNL     1      36.036 -19.867 -20.484  0.00  0.00    +0.174 C 
BRANCH   9  14
ATOM     14  O   UNL     1      33.432 -22.607 -18.796  0.00  0.00    -0.379 OA
ATOM     15  H   UNL     1      32.550 -22.485 -18.410  0.00  0.00    +0.211 HD
ENDBRANCH   9  14
BRANCH  10  16
ATOM     16  O   UNL     1      32.325 -20.361 -20.333  0.00  0.00    -0.379 OA
ATOM     17  H   UNL     1      31.829 -20.889 -19.688  0.00  0.00    +0.211 HD
ENDBRANCH  10  16
BRANCH  12  18
ATOM     18  O   UNL     1      34.330 -19.206 -22.052  0.00  0.00    -0.379 OA
ATOM     19  H   UNL     1      33.568 -18.607 -22.110  0.00  0.00    +0.211 HD
ENDBRANCH  12  18
BRANCH  13  20
ATOM     20  C   UNL     1      36.906 -18.638 -20.723  0.00  0.00    +0.169 C 
BRANCH  20  21
ATOM     21  O   UNL     1      37.155 -18.525 -22.113  0.00  0.00    -0.379 OA
ATOM     22  H   UNL     1      37.893 -17.913 -22.261  0.00  0.00    +0.211 HD
ENDBRANCH  20  21
ENDBRANCH  13  20
ENDBRANCH   1  11
BRANCH   4  23
ATOM     23  C   UNL     1      34.811 -24.294 -14.729  0.00  0.00    +0.059 C 
BRANCH  23  25
ATOM     24  S   UNL     1      32.239 -23.723 -15.644  0.00  0.00    -0.091 S 
ATOM     25  C   UNL     1      33.401 -23.854 -14.393  0.00  0.00    +0.012 C 
ATOM     26  C   UNL     1      32.876 -23.526 -13.163  0.00  0.00    +0.003 C 
ATOM     27  C   UNL     1      31.029 -23.225 -14.541  0.00  0.00    +0.029 C 
ATOM     28  C   UNL     1      31.501 -23.161 -13.249  0.00  0.00    +0.007 C 
BRANCH  27  30
ATOM     29  F   UNL     1      25.921 -22.105 -16.471  0.00  0.00    -0.204 F 
ATOM     30  C   UNL     1      29.705 -22.934 -15.041  0.00  0.00    +0.006 C 
ATOM     31  C   UNL     1      29.373 -23.247 -16.360  0.00  0.00    +0.003 C 
ATOM     32  C   UNL     1      28.758 -22.341 -14.206  0.00  0.00    +0.003 C 
ATOM     33  C   UNL     1      28.096 -22.967 -16.843  0.00  0.00    +0.030 C 
ATOM     34  C   UNL     1      27.481 -22.061 -14.689  0.00  0.00    +0.030 C 
ATOM     35  C   UNL     1      27.149 -22.374 -16.008  0.00  0.00    +0.140 C 
ENDBRANCH  27  30
ENDBRANCH  23  25
ENDBRANCH   4  23
TORSDOF 9
ENDMDL
MODEL 8
REMARK VINA RESULT:     -10.1      6.134     10.460
REMARK  Name = 24812758
REMARK  9 active torsions:
REMARK  status: ('A' for Active; 'I' for Inactive)
REMARK    1  A    between atoms: C_1  and  C_11
REMARK    2  A    between atoms: C_4  and  C_23
REMARK    3  A    between atoms: C_9  and  O_14
REMARK    4  A    between atoms: C_10  and  O_16
REMARK    5  A    between atoms: C_12  and  O_18
REMARK    6  A    between atoms: C_13  and  C_20
REMARK    7  A    between atoms: C_20  and  O_21
REMARK    8  A    between atoms: C_23  and  C_25
REMARK    9  A    between atoms: C_27  and  C_30
REMARK                            x       y       z     vdW  Elec       q    Type
REMARK                         _______ _______ _______ _____ _____    ______ ____
ROOT
ATOM      1  C   UNL     1      35.939 -18.980 -21.322  0.00  0.00    +0.007 C 
ATOM      2  C   UNL     1      35.281 -20.195 -21.133  0.00  0.00    -0.006 C 
ATOM      3  C   UNL     1      36.907 -18.561 -20.408  0.00  0.00    -0.002 C 
ATOM      4  C   UNL     1      35.590 -20.992 -20.030  0.00  0.00    -0.021 C 
ATOM      5  C   UNL     1      36.558 -20.573 -19.117  0.00  0.00    -0.025 C 
ATOM      6  C   UNL     1      37.215 -19.358 -19.306  0.00  0.00    -0.005 C 
ATOM      7  C   UNL     1      36.906 -21.409 -17.929  0.00  0.00    +0.031 C 
ENDROOT
BRANCH   1  11
ATOM      8  O   UNL     1      35.265 -16.811 -22.033  0.00  0.00    -0.347 OA
ATOM      9  C   UNL     1      34.452 -18.703 -23.350  0.00  0.00    +0.171 C 
ATOM     10  C   UNL     1      34.023 -17.736 -24.457  0.00  0.00    +0.169 C 
ATOM     11  C   UNL     1      35.603 -18.114 -22.520  0.00  0.00    +0.167 C 
ATOM     12  C   UNL     1      33.812 -16.325 -23.912  0.00  0.00    +0.169 C 
ATOM     13  C   UNL     1      35.017 -15.876 -23.083  0.00  0.00    +0.174 C 
BRANCH   9  14
ATOM     14  O   UNL     1      34.894 -19.923 -23.944  0.00  0.00    -0.379 OA
ATOM     15  H   UNL     1      35.096 -19.772 -24.880  0.00  0.00    +0.211 HD
ENDBRANCH   9  14
BRANCH  10  16
ATOM     16  O   UNL     1      32.790 -18.180 -25.024  0.00  0.00    -0.379 OA
ATOM     17  H   UNL     1      32.090 -17.541 -24.816  0.00  0.00    +0.211 HD
ENDBRANCH  10  16
BRANCH  12  18
ATOM     18  O   UNL     1      33.627 -15.422 -24.999  0.00  0.00    -0.379 OA
ATOM     19  H   UNL     1      33.315 -14.568 -24.661  0.00  0.00    +0.211 HD
ENDBRANCH  12  18
BRANCH  13  20
ATOM     20  C   UNL     1      34.784 -14.514 -22.438  0.00  0.00    +0.169 C 
BRANCH  20  21
ATOM     21  O   UNL     1      33.425 -14.157 -22.616  0.00  0.00    -0.379 OA
ATOM     22  H   UNL     1      32.866 -14.940 -22.490  0.00  0.00    +0.211 HD
ENDBRANCH  20  21
ENDBRANCH  13  20
ENDBRANCH   1  11
BRANCH   4  23
ATOM     23  C   UNL     1      34.873 -22.289 -19.849  0.00  0.00    +0.059 C 
BRANCH  23  25
ATOM     24  S   UNL     1      33.831 -23.242 -17.444  0.00  0.00    -0.091 S 
ATOM     25  C   UNL     1      33.757 -22.234 -18.826  0.00  0.00    +0.012 C 
ATOM     26  C   UNL     1      32.625 -21.450 -18.834  0.00  0.00    +0.003 C 
ATOM     27  C   UNL     1      32.345 -22.631 -16.853  0.00  0.00    +0.029 C 
ATOM     28  C   UNL     1      31.807 -21.680 -17.690  0.00  0.00    +0.007 C 
BRANCH  27  30
ATOM     29  F   UNL     1      30.345 -24.602 -12.038  0.00  0.00    -0.204 F 
ATOM     30  C   UNL     1      31.826 -23.142 -15.605  0.00  0.00    +0.006 C 
ATOM     31  C   UNL     1      32.623 -23.124 -14.459  0.00  0.00    +0.003 C 
ATOM     32  C   UNL     1      30.530 -23.653 -15.545  0.00  0.00    +0.003 C 
ATOM     33  C   UNL     1      32.122 -23.617 -13.255  0.00  0.00    +0.030 C 
ATOM     34  C   UNL     1      30.030 -24.146 -14.341  0.00  0.00    +0.030 C 
ATOM     35  C   UNL     1      30.826 -24.128 -13.195  0.00  0.00    +0.140 C 
ENDBRANCH  27  30
ENDBRANCH  23  25
ENDBRANCH   4  23
TORSDOF 9
ENDMDL
MODEL 9
REMARK VINA RESULT:      -9.8     10.356     15.865
REMARK  Name = 24812758
REMARK  9 active torsions:
REMARK  status: ('A' for Active; 'I' for Inactive)
REMARK    1  A    between atoms: C_1  and  C_11
REMARK    2  A    between atoms: C_4  and  C_23
REMARK    3  A    between atoms: C_9  and  O_14
REMARK    4  A    between atoms: C_10  and  O_16
REMARK    5  A    between atoms: C_12  and  O_18
REMARK    6  A    between atoms: C_13  and  C_20
REMARK    7  A    between atoms: C_20  and  O_21
REMARK    8  A    between atoms: C_23  and  C_25
REMARK    9  A    between atoms: C_27  and  C_30
REMARK                            x       y       z     vdW  Elec       q    Type
REMARK                         _______ _______ _______ _____ _____    ______ ____
ROOT
ATOM      1  C   UNL     1      33.175  -8.567 -23.303  0.00  0.00    +0.007 C 
ATOM      2  C   UNL     1      32.883  -9.891 -23.630  0.00  0.00    -0.006 C 
ATOM      3  C   UNL     1      34.316  -7.955 -23.822  0.00  0.00    -0.002 C 
ATOM      4  C   UNL     1      33.733 -10.604 -24.475  0.00  0.00    -0.021 C 
ATOM      5  C   UNL     1      34.875  -9.992 -24.994  0.00  0.00    -0.025 C 
ATOM      6  C   UNL     1      35.166  -8.668 -24.667  0.00  0.00    -0.005 C 
ATOM      7  C   UNL     1      35.800 -10.735 -25.901  0.00  0.00    +0.031 C 
ENDROOT
BRANCH   1  11
ATOM      8  O   UNL     1      32.194  -6.443 -22.861  0.00  0.00    -0.347 OA
ATOM      9  C   UNL     1      32.724  -7.835 -20.923  0.00  0.00    +0.171 C 
ATOM     10  C   UNL     1      31.871  -6.917 -20.043  0.00  0.00    +0.169 C 
ATOM     11  C   UNL     1      32.251  -7.792 -22.384  0.00  0.00    +0.167 C 
ATOM     12  C   UNL     1      31.723  -5.530 -20.665  0.00  0.00    +0.169 C 
ATOM     13  C   UNL     1      31.276  -5.634 -22.125  0.00  0.00    +0.174 C 
BRANCH   9  14
ATOM     14  O   UNL     1      32.609  -9.175 -20.445  0.00  0.00    -0.379 OA
ATOM     15  H   UNL     1      31.867  -9.614 -20.889  0.00  0.00    +0.211 HD
ENDBRANCH   9  14
BRANCH  10  16
ATOM     16  O   UNL     1      32.499  -6.765 -18.769  0.00  0.00    -0.379 OA
ATOM     17  H   UNL     1      31.988  -7.243 -18.097  0.00  0.00    +0.211 HD
ENDBRANCH  10  16
BRANCH  12  18
ATOM     18  O   UNL     1      30.756  -4.785 -19.930  0.00  0.00    -0.379 OA
ATOM     19  H   UNL     1      30.502  -5.280 -19.135  0.00  0.00    +0.211 HD
ENDBRANCH  12  18
BRANCH  13  20
ATOM     20  C   UNL     1      31.227  -4.268 -22.800  0.00  0.00    +0.169 C 
BRANCH  20  21
ATOM     21  O   UNL     1      31.948  -3.344 -22.003  0.00  0.00    -0.379 OA
ATOM     22  H   UNL     1      31.451  -3.163 -21.190  0.00  0.00    +0.211 HD
ENDBRANCH  20  21
ENDBRANCH  13  20
ENDBRANCH   1  11
BRANCH   4  23
ATOM     23  C   UNL     1      33.401 -12.020 -24.812  0.00  0.00    +0.059 C 
BRANCH  23  25
ATOM     24  S   UNL     1      34.030 -14.667 -24.195  0.00  0.00    -0.091 S 
ATOM     25  C   UNL     1      33.847 -13.019 -23.764  0.00  0.00    +0.012 C 
ATOM     26  C   UNL     1      34.149 -12.795 -22.440  0.00  0.00    +0.003 C 
ATOM     27  C   UNL     1      34.514 -15.084 -22.607  0.00  0.00    +0.029 C 
ATOM     28  C   UNL     1      34.536 -13.991 -21.769  0.00  0.00    +0.007 C 
BRANCH  27  30
ATOM     29  F   UNL     1      35.745 -20.400 -21.473  0.00  0.00    -0.204 F 
ATOM     30  C   UNL     1      34.833 -16.462 -22.313  0.00  0.00    +0.006 C 
ATOM     31  C   UNL     1      35.219 -16.829 -21.024  0.00  0.00    +0.003 C 
ATOM     32  C   UNL     1      34.756 -17.426 -23.319  0.00  0.00    +0.003 C 
ATOM     33  C   UNL     1      35.527 -18.159 -20.740  0.00  0.00    +0.030 C 
ATOM     34  C   UNL     1      35.064 -18.755 -23.035  0.00  0.00    +0.030 C 
ATOM     35  C   UNL     1      35.449 -19.123 -21.745  0.00  0.00    +0.140 C 
ENDBRANCH  27  30
ENDBRANCH  23  25
ENDBRANCH   4  23
TORSDOF 9
ENDMDL
