MODEL 1
REMARK VINA RESULT:     -11.8      0.000      0.000
REMARK  Name = 49831257
REMARK  4 active torsions:
REMARK  status: ('A' for Active; 'I' for Inactive)
REMARK    1  A    between atoms: C_1  and  C_23
REMARK    2  A    between atoms: C_4  and  C_14
REMARK    3  A    between atoms: C_12  and  C_20
REMARK    4  A    between atoms: C_23  and  N_27
REMARK                            x       y       z     vdW  Elec       q    Type
REMARK                         _______ _______ _______ _____ _____    ______ ____
ROOT
ATOM      1  C   UNL     1      35.279 -20.363 -20.480  0.00  0.00    -0.043 C 
ATOM      2  C   UNL     1      33.897 -20.285 -20.316  0.00  0.00    -0.006 C 
ATOM      3  C   UNL     1      36.047 -21.108 -19.583  0.00  0.00    -0.006 C 
ATOM      4  C   UNL     1      34.049 -21.695 -18.359  0.00  0.00    +0.016 C 
ATOM      5  C   UNL     1      33.281 -20.950 -19.256  0.00  0.00    +0.001 C 
ATOM      6  C   UNL     1      35.432 -21.773 -18.523  0.00  0.00    +0.001 C 
ENDROOT
BRANCH   4  14
ATOM      7  O   UNL     1      36.273 -25.471 -12.526  0.00  0.00    -0.274 OA
ATOM      8  N   UNL     1      36.841 -24.231 -14.450  0.00  0.00    -0.217 N 
ATOM      9  N   UNL     1      34.147 -23.053 -16.240  0.00  0.00    -0.152 N 
ATOM     10  N   UNL     1      35.498 -23.148 -16.104  0.00  0.00    -0.092 NA
ATOM     11  N   UNL     1      34.469 -24.254 -14.391  0.00  0.00    -0.319 NA
ATOM     12  C   UNL     1      37.095 -24.983 -13.289  0.00  0.00    +0.234 C 
ATOM     13  C   UNL     1      35.625 -23.872 -14.993  0.00  0.00    +0.167 C 
ATOM     14  C   UNL     1      33.399 -22.396 -17.239  0.00  0.00    +0.077 C 
ATOM     15  C   UNL     1      33.547 -23.737 -15.173  0.00  0.00    +0.219 C 
ATOM     16  C   UNL     1      32.052 -22.431 -17.158  0.00  0.00    +0.017 C 
ATOM     17  C   UNL     1      32.128 -23.758 -15.110  0.00  0.00    +0.051 C 
ATOM     18  C   UNL     1      31.411 -23.132 -16.059  0.00  0.00    +0.005 C 
ATOM     19  H   UNL     1      37.637 -23.918 -14.940  0.00  0.00    +0.167 HD
BRANCH  12  20
ATOM     20  C   UNL     1      38.548 -25.185 -12.991  0.00  0.00    +0.077 C 
ATOM     21  C   UNL     1      39.543 -25.079 -14.109  0.00  0.00    +0.010 C 
ATOM     22  C   UNL     1      39.235 -26.418 -13.504  0.00  0.00    +0.010 C 
ENDBRANCH  12  20
ENDBRANCH   4  14
BRANCH   1  23
ATOM     23  C   UNL     1      35.944 -19.647 -21.625  0.00  0.00    -0.050 C 
BRANCH  23  27
ATOM     24  S   UNL     1      34.285 -16.264 -24.113  0.00  0.00    -0.014 S 
ATOM     25  O   UNL     1      33.140 -15.390 -24.273  0.00  0.00    -0.173 OA
ATOM     26  O   UNL     1      35.433 -16.161 -24.993  0.00  0.00    -0.173 OA
ATOM     27  N   UNL     1      35.089 -18.591 -22.176  0.00  0.00    +0.392 N 
ATOM     28  C   UNL     1      34.745 -18.903 -23.574  0.00  0.00    -0.051 C 
ATOM     29  C   UNL     1      35.765 -17.288 -22.056  0.00  0.00    -0.051 C 
ATOM     30  C   UNL     1      34.852 -16.128 -22.435  0.00  0.00    +0.128 C 
ATOM     31  C   UNL     1      33.706 -17.943 -24.140  0.00  0.00    +0.128 C 
ATOM     32  H   UNL     1      34.219 -18.539 -21.647  0.00  0.00    -0.079 HD
ENDBRANCH  23  27
ENDBRANCH   1  23
TORSDOF 4
ENDMDL
MODEL 2
REMARK VINA RESULT:     -10.2      2.442      4.976
REMARK  Name = 49831257
REMARK  4 active torsions:
REMARK  status: ('A' for Active; 'I' for Inactive)
REMARK    1  A    between atoms: C_1  and  C_23
REMARK    2  A    between atoms: C_4  and  C_14
REMARK    3  A    between atoms: C_12  and  C_20
REMARK    4  A    between atoms: C_23  and  N_27
REMARK                            x       y       z     vdW  Elec       q    Type
REMARK                         _______ _______ _______ _____ _____    ______ ____
ROOT
ATOM      1  C   UNL     1      35.202 -20.251 -20.995  0.00  0.00    -0.043 C 
ATOM      2  C   UNL     1      33.933 -20.498 -20.472  0.00  0.00    -0.006 C 
ATOM      3  C   UNL     1      36.337 -20.643 -20.285  0.00  0.00    -0.006 C 
ATOM      4  C   UNL     1      34.934 -21.529 -18.530  0.00  0.00    +0.016 C 
ATOM      5  C   UNL     1      33.799 -21.137 -19.239  0.00  0.00    +0.001 C 
ATOM      6  C   UNL     1      36.204 -21.282 -19.053  0.00  0.00    +0.001 C 
ENDROOT
BRANCH   4  14
ATOM      7  O   UNL     1      29.405 -24.015 -14.471  0.00  0.00    -0.274 OA
ATOM      8  N   UNL     1      30.123 -22.971 -16.460  0.00  0.00    -0.217 N 
ATOM      9  N   UNL     1      33.531 -22.560 -16.709  0.00  0.00    -0.152 N 
ATOM     10  N   UNL     1      32.299 -22.394 -17.262  0.00  0.00    -0.092 NA
ATOM     11  N   UNL     1      32.102 -23.412 -15.227  0.00  0.00    -0.319 NA
ATOM     12  C   UNL     1      29.182 -23.498 -15.557  0.00  0.00    +0.234 C 
ATOM     13  C   UNL     1      31.495 -22.915 -16.336  0.00  0.00    +0.167 C 
ATOM     14  C   UNL     1      34.793 -22.203 -17.227  0.00  0.00    +0.077 C 
ATOM     15  C   UNL     1      33.376 -23.190 -15.466  0.00  0.00    +0.219 C 
ATOM     16  C   UNL     1      35.891 -22.481 -16.492  0.00  0.00    +0.017 C 
ATOM     17  C   UNL     1      34.546 -23.473 -14.712  0.00  0.00    +0.051 C 
ATOM     18  C   UNL     1      35.751 -23.135 -15.203  0.00  0.00    +0.005 C 
ATOM     19  H   UNL     1      29.753 -22.592 -17.291  0.00  0.00    +0.167 HD
BRANCH  12  20
ATOM     20  C   UNL     1      27.761 -23.392 -16.015  0.00  0.00    +0.077 C 
ATOM     21  C   UNL     1      27.357 -22.232 -16.877  0.00  0.00    +0.010 C 
ATOM     22  C   UNL     1      26.890 -22.306 -15.452  0.00  0.00    +0.010 C 
ENDBRANCH  12  20
ENDBRANCH   4  14
BRANCH   1  23
ATOM     23  C   UNL     1      35.347 -19.563 -22.326  0.00  0.00    -0.050 C 
BRANCH  23  27
ATOM     24  S   UNL     1      34.437 -15.181 -22.925  0.00  0.00    -0.014 S 
ATOM     25  O   UNL     1      33.438 -14.158 -22.692  0.00  0.00    -0.173 OA
ATOM     26  O   UNL     1      35.686 -14.868 -23.591  0.00  0.00    -0.173 OA
ATOM     27  N   UNL     1      34.704 -18.245 -22.331  0.00  0.00    +0.392 N 
ATOM     28  C   UNL     1      34.495 -17.796 -23.719  0.00  0.00    -0.051 C 
ATOM     29  C   UNL     1      35.518 -17.289 -21.562  0.00  0.00    -0.051 C 
ATOM     30  C   UNL     1      34.810 -15.953 -21.370  0.00  0.00    +0.128 C 
ATOM     31  C   UNL     1      33.660 -16.523 -23.792  0.00  0.00    +0.128 C 
ATOM     32  H   UNL     1      33.790 -18.305 -21.884  0.00  0.00    -0.079 HD
ENDBRANCH  23  27
ENDBRANCH   1  23
TORSDOF 4
ENDMDL
MODEL 3
REMARK VINA RESULT:     -10.1      4.021      9.776
REMARK  Name = 49831257
REMARK  4 active torsions:
REMARK  status: ('A' for Active; 'I' for Inactive)
REMARK    1  A    between atoms: C_1  and  C_23
REMARK    2  A    between atoms: C_4  and  C_14
REMARK    3  A    between atoms: C_12  and  C_20
REMARK    4  A    between atoms: C_23  and  N_27
REMARK                            x       y       z     vdW  Elec       q    Type
REMARK                         _______ _______ _______ _____ _____    ______ ____
ROOT
ATOM      1  C   UNL     1      36.625 -24.948 -12.777  0.00  0.00    -0.043 C 
ATOM      2  C   UNL     1      35.534 -24.539 -12.010  0.00  0.00    -0.006 C 
ATOM      3  C   UNL     1      36.518 -25.005 -14.167  0.00  0.00    -0.006 C 
ATOM      4  C   UNL     1      34.230 -24.246 -14.022  0.00  0.00    +0.016 C 
ATOM      5  C   UNL     1      34.337 -24.189 -12.632  0.00  0.00    +0.001 C 
ATOM      6  C   UNL     1      35.321 -24.654 -14.790  0.00  0.00    +0.001 C 
ENDROOT
BRANCH   4  14
ATOM      7  O   UNL     1      32.305 -20.751 -20.130  0.00  0.00    -0.274 OA
ATOM      8  N   UNL     1      34.029 -21.560 -18.740  0.00  0.00    -0.217 N 
ATOM      9  N   UNL     1      32.939 -23.173 -15.901  0.00  0.00    -0.152 N 
ATOM     10  N   UNL     1      33.981 -22.748 -16.667  0.00  0.00    -0.092 NA
ATOM     11  N   UNL     1      32.007 -22.162 -17.654  0.00  0.00    -0.319 NA
ATOM     12  C   UNL     1      33.488 -20.913 -19.865  0.00  0.00    +0.234 C 
ATOM     13  C   UNL     1      33.365 -22.154 -17.688  0.00  0.00    +0.167 C 
ATOM     14  C   UNL     1      32.964 -23.877 -14.680  0.00  0.00    +0.077 C 
ATOM     15  C   UNL     1      31.746 -22.802 -16.536  0.00  0.00    +0.219 C 
ATOM     16  C   UNL     1      31.787 -24.204 -14.104  0.00  0.00    +0.017 C 
ATOM     17  C   UNL     1      30.520 -23.158 -15.910  0.00  0.00    +0.051 C 
ATOM     18  C   UNL     1      30.539 -23.830 -14.746  0.00  0.00    +0.005 C 
ATOM     19  H   UNL     1      35.013 -21.594 -18.698  0.00  0.00    +0.167 HD
BRANCH  12  20
ATOM     20  C   UNL     1      34.509 -20.378 -20.820  0.00  0.00    +0.077 C 
ATOM     21  C   UNL     1      35.870 -20.013 -20.303  0.00  0.00    +0.010 C 
ATOM     22  C   UNL     1      34.913 -18.935 -20.724  0.00  0.00    +0.010 C 
ENDBRANCH  12  20
ENDBRANCH   4  14
BRANCH   1  23
ATOM     23  C   UNL     1      37.919 -25.325 -12.105  0.00  0.00    -0.050 C 
BRANCH  23  27
ATOM     24  S   UNL     1      38.947 -28.740 -14.875  0.00  0.00    -0.014 S 
ATOM     25  O   UNL     1      39.789 -29.910 -15.015  0.00  0.00    -0.173 OA
ATOM     26  O   UNL     1      38.015 -28.360 -15.918  0.00  0.00    -0.173 OA
ATOM     27  N   UNL     1      38.511 -26.527 -12.700  0.00  0.00    +0.392 N 
ATOM     28  C   UNL     1      39.197 -26.177 -13.957  0.00  0.00    -0.051 C 
ATOM     29  C   UNL     1      37.468 -27.545 -12.910  0.00  0.00    -0.051 C 
ATOM     30  C   UNL     1      38.051 -28.885 -13.348  0.00  0.00    +0.128 C 
ATOM     31  C   UNL     1      39.993 -27.347 -14.523  0.00  0.00    +0.128 C 
ATOM     32  H   UNL     1      39.207 -26.920 -12.067  0.00  0.00    -0.079 HD
ENDBRANCH  23  27
ENDBRANCH   1  23
TORSDOF 4
ENDMDL
MODEL 4
REMARK VINA RESULT:      -9.6      4.689     11.180
REMARK  Name = 49831257
REMARK  4 active torsions:
REMARK  status: ('A' for Active; 'I' for Inactive)
REMARK    1  A    between atoms: C_1  and  C_23
REMARK    2  A    between atoms: C_4  and  C_14
REMARK    3  A    between atoms: C_12  and  C_20
REMARK    4  A    between atoms: C_23  and  N_27
REMARK                            x       y       z     vdW  Elec       q    Type
REMARK                         _______ _______ _______ _____ _____    ______ ____
ROOT
ATOM      1  C   UNL     1      35.929 -18.714 -21.147  0.00  0.00    -0.043 C 
ATOM      2  C   UNL     1      35.646 -18.924 -22.496  0.00  0.00    -0.006 C 
ATOM      3  C   UNL     1      35.703 -17.463 -20.573  0.00  0.00    -0.006 C 
ATOM      4  C   UNL     1      34.915 -16.631 -22.699  0.00  0.00    +0.016 C 
ATOM      5  C   UNL     1      35.140 -17.883 -23.273  0.00  0.00    +0.001 C 
ATOM      6  C   UNL     1      35.197 -16.421 -21.349  0.00  0.00    +0.001 C 
ENDROOT
BRANCH   4  14
ATOM      7  O   UNL     1      31.503 -10.308 -21.432  0.00  0.00    -0.274 OA
ATOM      8  N   UNL     1      32.504 -12.258 -20.561  0.00  0.00    -0.217 N 
ATOM      9  N   UNL     1      33.753 -14.409 -22.941  0.00  0.00    -0.152 N 
ATOM     10  N   UNL     1      33.548 -14.125 -21.625  0.00  0.00    -0.092 NA
ATOM     11  N   UNL     1      32.703 -12.444 -22.919  0.00  0.00    -0.319 NA
ATOM     12  C   UNL     1      31.842 -11.018 -20.496  0.00  0.00    +0.234 C 
ATOM     13  C   UNL     1      32.921 -12.952 -21.677  0.00  0.00    +0.167 C 
ATOM     14  C   UNL     1      34.381 -15.530 -23.520  0.00  0.00    +0.077 C 
ATOM     15  C   UNL     1      33.227 -13.357 -23.705  0.00  0.00    +0.219 C 
ATOM     16  C   UNL     1      34.477 -15.587 -24.866  0.00  0.00    +0.017 C 
ATOM     17  C   UNL     1      33.341 -13.440 -25.119  0.00  0.00    +0.051 C 
ATOM     18  C   UNL     1      33.940 -14.507 -25.676  0.00  0.00    +0.005 C 
ATOM     19  H   UNL     1      32.696 -12.686 -19.695  0.00  0.00    +0.167 HD
BRANCH  12  20
ATOM     20  C   UNL     1      31.536 -10.555 -19.106  0.00  0.00    +0.077 C 
ATOM     21  C   UNL     1      31.395  -9.084 -18.842  0.00  0.00    +0.010 C 
ATOM     22  C   UNL     1      32.594  -9.827 -18.328  0.00  0.00    +0.010 C 
ENDBRANCH  12  20
ENDBRANCH   4  14
BRANCH   1  23
ATOM     23  C   UNL     1      36.474 -19.840 -20.307  0.00  0.00    -0.050 C 
BRANCH  23  27
ATOM     24  S   UNL     1      33.480 -22.508 -18.232  0.00  0.00    -0.014 S 
ATOM     25  O   UNL     1      32.542 -22.566 -17.130  0.00  0.00    -0.173 OA
ATOM     26  O   UNL     1      33.666 -23.642 -19.117  0.00  0.00    -0.173 OA
ATOM     27  N   UNL     1      35.462 -20.377 -19.393  0.00  0.00    +0.392 N 
ATOM     28  C   UNL     1      36.000 -21.550 -18.684  0.00  0.00    -0.051 C 
ATOM     29  C   UNL     1      34.236 -20.703 -20.142  0.00  0.00    -0.051 C 
ATOM     30  C   UNL     1      33.083 -21.086 -19.220  0.00  0.00    +0.128 C 
ATOM     31  C   UNL     1      35.065 -22.037 -17.582  0.00  0.00    +0.128 C 
ATOM     32  H   UNL     1      35.221 -19.675 -18.693  0.00  0.00    -0.079 HD
ENDBRANCH  23  27
ENDBRANCH   1  23
TORSDOF 4
ENDMDL
MODEL 5
REMARK VINA RESULT:      -9.5     11.295     16.436
REMARK  Name = 49831257
REMARK  4 active torsions:
REMARK  status: ('A' for Active; 'I' for Inactive)
REMARK    1  A    between atoms: C_1  and  C_23
REMARK    2  A    between atoms: C_4  and  C_14
REMARK    3  A    between atoms: C_12  and  C_20
REMARK    4  A    between atoms: C_23  and  N_27
REMARK                            x       y       z     vdW  Elec       q    Type
REMARK                         _______ _______ _______ _____ _____    ______ ____
ROOT
ATOM      1  C   UNL     1      33.958  -4.571 -26.226  0.00  0.00    -0.043 C 
ATOM      2  C   UNL     1      32.604  -4.611 -25.895  0.00  0.00    -0.006 C 
ATOM      3  C   UNL     1      34.911  -5.035 -25.319  0.00  0.00    -0.006 C 
ATOM      4  C   UNL     1      33.156  -5.578 -23.751  0.00  0.00    +0.016 C 
ATOM      5  C   UNL     1      32.202  -5.114 -24.658  0.00  0.00    +0.001 C 
ATOM      6  C   UNL     1      34.511  -5.539 -24.082  0.00  0.00    +0.001 C 
ENDROOT
BRANCH   4  14
ATOM      7  O   UNL     1      32.161 -12.191 -20.833  0.00  0.00    -0.274 OA
ATOM      8  N   UNL     1      32.792 -10.896 -22.701  0.00  0.00    -0.217 N 
ATOM      9  N   UNL     1      32.639  -7.494 -22.199  0.00  0.00    -0.152 N 
ATOM     10  N   UNL     1      32.917  -8.533 -23.033  0.00  0.00    -0.092 NA
ATOM     11  N   UNL     1      32.230  -9.332 -21.007  0.00  0.00    -0.319 NA
ATOM     12  C   UNL     1      32.549 -12.084 -21.989  0.00  0.00    +0.234 C 
ATOM     13  C   UNL     1      32.653  -9.593 -22.272  0.00  0.00    +0.167 C 
ATOM     14  C   UNL     1      32.732  -6.109 -22.444  0.00  0.00    +0.077 C 
ATOM     15  C   UNL     1      32.225  -8.018 -20.966  0.00  0.00    +0.219 C 
ATOM     16  C   UNL     1      32.409  -5.258 -21.446  0.00  0.00    +0.017 C 
ATOM     17  C   UNL     1      31.892  -7.102 -19.931  0.00  0.00    +0.051 C 
ATOM     18  C   UNL     1      31.981  -5.780 -20.160  0.00  0.00    +0.005 C 
ATOM     19  H   UNL     1      33.103 -11.009 -23.629  0.00  0.00    +0.167 HD
BRANCH  12  20
ATOM     20  C   UNL     1      32.806 -13.335 -22.770  0.00  0.00    +0.077 C 
ATOM     21  C   UNL     1      34.208 -13.863 -22.861  0.00  0.00    +0.010 C 
ATOM     22  C   UNL     1      33.558 -13.246 -24.066  0.00  0.00    +0.010 C 
ENDBRANCH  12  20
ENDBRANCH   4  14
BRANCH   1  23
ATOM     23  C   UNL     1      34.392  -4.029 -27.562  0.00  0.00    -0.050 C 
BRANCH  23  27
ATOM     24  S   UNL     1      38.532  -2.649 -28.721  0.00  0.00    -0.014 S 
ATOM     25  O   UNL     1      39.933  -2.754 -28.370  0.00  0.00    -0.173 OA
ATOM     26  O   UNL     1      38.100  -1.836 -29.841  0.00  0.00    -0.173 OA
ATOM     27  N   UNL     1      35.841  -3.815 -27.618  0.00  0.00    +0.392 N 
ATOM     28  C   UNL     1      36.143  -2.387 -27.417  0.00  0.00    -0.051 C 
ATOM     29  C   UNL     1      36.369  -4.312 -28.900  0.00  0.00    -0.051 C 
ATOM     30  C   UNL     1      37.893  -4.292 -28.941  0.00  0.00    +0.128 C 
ATOM     31  C   UNL     1      37.639  -2.130 -27.275  0.00  0.00    +0.128 C 
ATOM     32  H   UNL     1      36.297  -4.337 -26.871  0.00  0.00    -0.079 HD
ENDBRANCH  23  27
ENDBRANCH   1  23
TORSDOF 4
ENDMDL
