MODEL 1
REMARK VINA RESULT:     -11.4      0.000      0.000
REMARK  Name = 24941254
REMARK  6 active torsions:
REMARK  status: ('A' for Active; 'I' for Inactive)
REMARK    1  A    between atoms: C_1  and  S_21
REMARK    2  A    between atoms: C_4  and  C_9
REMARK    3  A    between atoms: N_8  and  C_11
REMARK    4  A    between atoms: C_12  and  C_18
REMARK    5  A    between atoms: C_18  and  O_19
REMARK    6  A    between atoms: S_21  and  N_24
REMARK                            x       y       z     vdW  Elec       q    Type
REMARK                         _______ _______ _______ _____ _____    ______ ____
ROOT
ATOM      1  C   UNL     1      35.415 -18.490 -22.439  0.00  0.00    +0.122 C 
ATOM      2  C   UNL     1      35.120 -17.189 -22.845  0.00  0.00    +0.024 C 
ATOM      3  C   UNL     1      34.931 -19.575 -23.172  0.00  0.00    +0.020 C 
ATOM      4  C   UNL     1      34.341 -16.972 -23.981  0.00  0.00    +0.055 C 
ATOM      5  C   UNL     1      34.151 -19.358 -24.308  0.00  0.00    +0.002 C 
ATOM      6  C   UNL     1      33.857 -18.055 -24.713  0.00  0.00    +0.005 C 
ENDROOT
BRANCH   4   9
ATOM      7  O   UNL     1      33.838 -15.387 -25.609  0.00  0.00    -0.270 OA
ATOM      8  N   UNL     1      33.958 -14.657 -23.383  0.00  0.00    -0.280 N 
ATOM      9  C   UNL     1      34.033 -15.614 -24.404  0.00  0.00    +0.250 C 
ATOM     10  H   UNL     1      34.137 -14.987 -22.473  0.00  0.00    +0.155 HD
BRANCH   8  11
ATOM     11  C   UNL     1      33.654 -13.278 -23.487  0.00  0.00    +0.057 C 
ATOM     12  C   UNL     1      33.056 -12.591 -22.431  0.00  0.00    +0.089 C 
ATOM     13  C   UNL     1      33.963 -12.605 -24.670  0.00  0.00    +0.015 C 
ATOM     14  C   UNL     1      32.767 -11.232 -22.557  0.00  0.00    +0.008 C 
ATOM     15  C   UNL     1      33.673 -11.247 -24.796  0.00  0.00    +0.001 C 
ATOM     16  C   UNL     1      33.075 -10.561 -23.740  0.00  0.00    +0.000 C 
BRANCH  12  18
ATOM     17  O   UNL     1      33.424 -14.100 -20.612  0.00  0.00    -0.245 OA
ATOM     18  C   UNL     1      32.720 -13.263 -21.181  0.00  0.00    +0.339 C 
BRANCH  18  19
ATOM     19  O   UNL     1      31.518 -12.864 -20.687  0.00  0.00    -0.477 OA
ATOM     20  H   UNL     1      30.889 -13.502 -20.414  0.00  0.00    +0.295 HD
ENDBRANCH  18  19
ENDBRANCH  12  18
ENDBRANCH   8  11
ENDBRANCH   4   9
BRANCH   1  21
ATOM     21  S   UNL     1      36.399 -18.766 -21.000  0.00  0.00    +0.064 S 
ATOM     22  O   UNL     1      37.666 -19.320 -21.430  0.00  0.00    -0.153 OA
ATOM     23  O   UNL     1      36.347 -17.568 -20.189  0.00  0.00    -0.153 OA
BRANCH  21  24
ATOM     24  N   UNL     1      35.480 -19.994 -20.239  0.00  0.00    -0.151 NA
ATOM     25  C   UNL     1      34.018 -19.738 -20.132  0.00  0.00    +0.101 C 
ATOM     26  C   UNL     1      36.049 -20.523 -18.963  0.00  0.00    +0.122 C 
ATOM     27  C   UNL     1      33.305 -21.066 -19.899  0.00  0.00    +0.045 C 
ATOM     28  C   UNL     1      35.205 -21.594 -18.313  0.00  0.00    -0.008 C 
ATOM     29  C   UNL     1      33.886 -21.830 -18.737  0.00  0.00    -0.023 C 
ATOM     30  C   UNL     1      35.731 -22.334 -17.246  0.00  0.00    -0.003 C 
ATOM     31  C   UNL     1      33.127 -22.827 -18.109  0.00  0.00    -0.004 C 
ATOM     32  C   UNL     1      34.963 -23.316 -16.620  0.00  0.00    -0.000 C 
ATOM     33  C   UNL     1      33.663 -23.563 -17.053  0.00  0.00    -0.000 C 
ENDBRANCH  21  24
ENDBRANCH   1  21
TORSDOF 6
ENDMDL
MODEL 2
REMARK VINA RESULT:     -11.3      4.065     11.633
REMARK  Name = 24941254
REMARK  6 active torsions:
REMARK  status: ('A' for Active; 'I' for Inactive)
REMARK    1  A    between atoms: C_1  and  S_21
REMARK    2  A    between atoms: C_4  and  C_9
REMARK    3  A    between atoms: N_8  and  C_11
REMARK    4  A    between atoms: C_12  and  C_18
REMARK    5  A    between atoms: C_18  and  O_19
REMARK    6  A    between atoms: S_21  and  N_24
REMARK                            x       y       z     vdW  Elec       q    Type
REMARK                         _______ _______ _______ _____ _____    ______ ____
ROOT
ATOM      1  C   UNL     1      32.815 -10.459 -23.048  0.00  0.00    +0.122 C 
ATOM      2  C   UNL     1      32.992 -11.659 -22.360  0.00  0.00    +0.024 C 
ATOM      3  C   UNL     1      33.218 -10.353 -24.380  0.00  0.00    +0.020 C 
ATOM      4  C   UNL     1      33.572 -12.753 -23.002  0.00  0.00    +0.055 C 
ATOM      5  C   UNL     1      33.799 -11.447 -25.022  0.00  0.00    +0.002 C 
ATOM      6  C   UNL     1      33.975 -12.647 -24.333  0.00  0.00    +0.005 C 
ENDROOT
BRANCH   4   9
ATOM      7  O   UNL     1      33.243 -14.138 -21.162  0.00  0.00    -0.270 OA
ATOM      8  N   UNL     1      34.498 -14.989 -22.952  0.00  0.00    -0.280 N 
ATOM      9  C   UNL     1      33.756 -14.005 -22.285  0.00  0.00    +0.250 C 
ATOM     10  H   UNL     1      34.843 -14.737 -23.839  0.00  0.00    +0.155 HD
BRANCH   8  11
ATOM     11  C   UNL     1      34.815 -16.300 -22.519  0.00  0.00    +0.057 C 
ATOM     12  C   UNL     1      34.569 -17.405 -23.333  0.00  0.00    +0.089 C 
ATOM     13  C   UNL     1      35.381 -16.476 -21.256  0.00  0.00    +0.015 C 
ATOM     14  C   UNL     1      34.891 -18.687 -22.884  0.00  0.00    +0.008 C 
ATOM     15  C   UNL     1      35.701 -17.757 -20.807  0.00  0.00    +0.001 C 
ATOM     16  C   UNL     1      35.456 -18.862 -21.621  0.00  0.00    +0.000 C 
BRANCH  12  18
ATOM     17  O   UNL     1      34.148 -16.294 -25.409  0.00  0.00    -0.245 OA
ATOM     18  C   UNL     1      33.979 -17.257 -24.658  0.00  0.00    +0.339 C 
BRANCH  18  19
ATOM     19  O   UNL     1      33.199 -18.318 -24.998  0.00  0.00    -0.477 OA
ATOM     20  H   UNL     1      32.986 -18.473 -25.897  0.00  0.00    +0.295 HD
ENDBRANCH  18  19
ENDBRANCH  12  18
ENDBRANCH   8  11
ENDBRANCH   4   9
BRANCH   1  21
ATOM     21  S   UNL     1      32.083  -9.073 -22.235  0.00  0.00    +0.064 S 
ATOM     22  O   UNL     1      30.654  -9.130 -22.465  0.00  0.00    -0.153 OA
ATOM     23  O   UNL     1      32.619  -9.011 -20.892  0.00  0.00    -0.153 OA
BRANCH  21  24
ATOM     24  N   UNL     1      32.749  -7.796 -23.160  0.00  0.00    -0.151 NA
ATOM     25  C   UNL     1      34.101  -7.333 -22.748  0.00  0.00    +0.101 C 
ATOM     26  C   UNL     1      31.826  -6.653 -23.434  0.00  0.00    +0.122 C 
ATOM     27  C   UNL     1      34.737  -6.579 -23.912  0.00  0.00    +0.045 C 
ATOM     28  C   UNL     1      32.452  -5.540 -24.240  0.00  0.00    -0.008 C 
ATOM     29  C   UNL     1      33.843  -5.486 -24.440  0.00  0.00    -0.023 C 
ATOM     30  C   UNL     1      31.640  -4.525 -24.761  0.00  0.00    -0.003 C 
ATOM     31  C   UNL     1      34.393  -4.436 -25.188  0.00  0.00    -0.004 C 
ATOM     32  C   UNL     1      32.198  -3.477 -25.494  0.00  0.00    -0.000 C 
ATOM     33  C   UNL     1      33.574  -3.435 -25.708  0.00  0.00    -0.000 C 
ENDBRANCH  21  24
ENDBRANCH   1  21
TORSDOF 6
ENDMDL
MODEL 3
REMARK VINA RESULT:     -11.2      4.739      7.847
REMARK  Name = 24941254
REMARK  6 active torsions:
REMARK  status: ('A' for Active; 'I' for Inactive)
REMARK    1  A    between atoms: C_1  and  S_21
REMARK    2  A    between atoms: C_4  and  C_9
REMARK    3  A    between atoms: N_8  and  C_11
REMARK    4  A    between atoms: C_12  and  C_18
REMARK    5  A    between atoms: C_18  and  O_19
REMARK    6  A    between atoms: S_21  and  N_24
REMARK                            x       y       z     vdW  Elec       q    Type
REMARK                         _______ _______ _______ _____ _____    ______ ____
ROOT
ATOM      1  C   UNL     1      36.248 -23.201 -15.328  0.00  0.00    +0.122 C 
ATOM      2  C   UNL     1      35.676 -22.960 -16.578  0.00  0.00    +0.024 C 
ATOM      3  C   UNL     1      37.344 -22.447 -14.907  0.00  0.00    +0.020 C 
ATOM      4  C   UNL     1      36.200 -21.967 -17.405  0.00  0.00    +0.055 C 
ATOM      5  C   UNL     1      37.868 -21.455 -15.734  0.00  0.00    +0.002 C 
ATOM      6  C   UNL     1      37.296 -21.215 -16.984  0.00  0.00    +0.005 C 
ENDROOT
BRANCH   4   9
ATOM      7  O   UNL     1      34.895 -22.593 -19.226  0.00  0.00    -0.270 OA
ATOM      8  N   UNL     1      35.869 -20.459 -19.270  0.00  0.00    -0.280 N 
ATOM      9  C   UNL     1      35.604 -21.716 -18.708  0.00  0.00    +0.250 C 
ATOM     10  H   UNL     1      36.450 -19.867 -18.740  0.00  0.00    +0.155 HD
BRANCH   8  11
ATOM     11  C   UNL     1      35.409 -19.928 -20.500  0.00  0.00    +0.057 C 
ATOM     12  C   UNL     1      36.197 -19.050 -21.243  0.00  0.00    +0.089 C 
ATOM     13  C   UNL     1      34.146 -20.296 -20.965  0.00  0.00    +0.015 C 
ATOM     14  C   UNL     1      35.722 -18.540 -22.452  0.00  0.00    +0.008 C 
ATOM     15  C   UNL     1      33.671 -19.785 -22.173  0.00  0.00    +0.001 C 
ATOM     16  C   UNL     1      34.460 -18.907 -22.916  0.00  0.00    +0.000 C 
BRANCH  12  18
ATOM     17  O   UNL     1      37.846 -18.471 -19.610  0.00  0.00    -0.245 OA
ATOM     18  C   UNL     1      37.521 -18.645 -20.787  0.00  0.00    +0.339 C 
BRANCH  18  19
ATOM     19  O   UNL     1      38.392 -18.472 -21.817  0.00  0.00    -0.477 OA
ATOM     20  H   UNL     1      39.068 -19.102 -21.970  0.00  0.00    +0.295 HD
ENDBRANCH  18  19
ENDBRANCH  12  18
ENDBRANCH   8  11
ENDBRANCH   4   9
BRANCH   1  21
ATOM     21  S   UNL     1      35.586 -24.459 -14.281  0.00  0.00    +0.064 S 
ATOM     22  O   UNL     1      35.609 -25.705 -15.017  0.00  0.00    -0.153 OA
ATOM     23  O   UNL     1      36.230 -24.345 -12.988  0.00  0.00    -0.153 OA
BRANCH  21  24
ATOM     24  N   UNL     1      33.968 -23.917 -14.146  0.00  0.00    -0.151 NA
ATOM     25  C   UNL     1      33.193 -24.465 -13.001  0.00  0.00    +0.101 C 
ATOM     26  C   UNL     1      33.178 -23.935 -15.415  0.00  0.00    +0.122 C 
ATOM     27  C   UNL     1      31.998 -23.554 -12.738  0.00  0.00    +0.045 C 
ATOM     28  C   UNL     1      31.752 -23.464 -15.255  0.00  0.00    -0.008 C 
ATOM     29  C   UNL     1      31.179 -23.314 -13.980  0.00  0.00    -0.023 C 
ATOM     30  C   UNL     1      30.977 -23.211 -16.395  0.00  0.00    -0.003 C 
ATOM     31  C   UNL     1      29.851 -22.881 -13.867  0.00  0.00    -0.004 C 
ATOM     32  C   UNL     1      29.652 -22.792 -16.271  0.00  0.00    -0.000 C 
ATOM     33  C   UNL     1      29.091 -22.625 -15.008  0.00  0.00    -0.000 C 
ENDBRANCH  21  24
ENDBRANCH   1  21
TORSDOF 6
ENDMDL
MODEL 4
REMARK VINA RESULT:     -11.2      2.605      9.792
REMARK  Name = 24941254
REMARK  6 active torsions:
REMARK  status: ('A' for Active; 'I' for Inactive)
REMARK    1  A    between atoms: C_1  and  S_21
REMARK    2  A    between atoms: C_4  and  C_9
REMARK    3  A    between atoms: N_8  and  C_11
REMARK    4  A    between atoms: C_12  and  C_18
REMARK    5  A    between atoms: C_18  and  O_19
REMARK    6  A    between atoms: S_21  and  N_24
REMARK                            x       y       z     vdW  Elec       q    Type
REMARK                         _______ _______ _______ _____ _____    ______ ____
ROOT
ATOM      1  C   UNL     1      34.837 -19.904 -20.404  0.00  0.00    +0.122 C 
ATOM      2  C   UNL     1      35.048 -20.910 -19.461  0.00  0.00    +0.024 C 
ATOM      3  C   UNL     1      33.558 -19.691 -20.921  0.00  0.00    +0.020 C 
ATOM      4  C   UNL     1      33.982 -21.702 -19.035  0.00  0.00    +0.055 C 
ATOM      5  C   UNL     1      32.492 -20.483 -20.494  0.00  0.00    +0.002 C 
ATOM      6  C   UNL     1      32.705 -21.489 -19.551  0.00  0.00    +0.005 C 
ENDROOT
BRANCH   4   9
ATOM      7  O   UNL     1      33.850 -23.911 -18.316  0.00  0.00    -0.270 OA
ATOM      8  N   UNL     1      34.835 -22.353 -16.864  0.00  0.00    -0.280 N 
ATOM      9  C   UNL     1      34.203 -22.751 -18.051  0.00  0.00    +0.250 C 
ATOM     10  H   UNL     1      35.056 -21.396 -16.797  0.00  0.00    +0.155 HD
BRANCH   8  11
ATOM     11  C   UNL     1      35.199 -23.148 -15.750  0.00  0.00    +0.057 C 
ATOM     12  C   UNL     1      36.521 -23.200 -15.306  0.00  0.00    +0.089 C 
ATOM     13  C   UNL     1      34.213 -23.885 -15.094  0.00  0.00    +0.015 C 
ATOM     14  C   UNL     1      36.855 -23.990 -14.205  0.00  0.00    +0.008 C 
ATOM     15  C   UNL     1      34.548 -24.676 -13.995  0.00  0.00    +0.001 C 
ATOM     16  C   UNL     1      35.869 -24.728 -13.551  0.00  0.00    +0.000 C 
BRANCH  12  18
ATOM     17  O   UNL     1      37.454 -21.303 -16.424  0.00  0.00    -0.245 OA
ATOM     18  C   UNL     1      37.575 -22.442 -15.967  0.00  0.00    +0.339 C 
BRANCH  18  19
ATOM     19  O   UNL     1      38.744 -23.134 -16.035  0.00  0.00    -0.477 OA
ATOM     20  H   UNL     1      39.165 -23.421 -15.249  0.00  0.00    +0.295 HD
ENDBRANCH  18  19
ENDBRANCH  12  18
ENDBRANCH   8  11
ENDBRANCH   4   9
BRANCH   1  21
ATOM     21  S   UNL     1      36.186 -18.903 -20.946  0.00  0.00    +0.064 S 
ATOM     22  O   UNL     1      36.725 -18.223 -19.788  0.00  0.00    -0.153 OA
ATOM     23  O   UNL     1      37.032 -19.716 -21.794  0.00  0.00    -0.153 OA
BRANCH  21  24
ATOM     24  N   UNL     1      35.347 -17.771 -21.920  0.00  0.00    -0.151 NA
ATOM     25  C   UNL     1      35.604 -17.857 -23.382  0.00  0.00    +0.101 C 
ATOM     26  C   UNL     1      35.373 -16.360 -21.430  0.00  0.00    +0.122 C 
ATOM     27  C   UNL     1      34.466 -17.158 -24.121  0.00  0.00    +0.045 C 
ATOM     28  C   UNL     1      34.635 -15.388 -22.320  0.00  0.00    -0.008 C 
ATOM     29  C   UNL     1      34.232 -15.758 -23.615  0.00  0.00    -0.023 C 
ATOM     30  C   UNL     1      34.384 -14.088 -21.863  0.00  0.00    -0.003 C 
ATOM     31  C   UNL     1      33.555 -14.830 -24.418  0.00  0.00    -0.004 C 
ATOM     32  C   UNL     1      33.720 -13.169 -22.675  0.00  0.00    -0.000 C 
ATOM     33  C   UNL     1      33.304 -13.541 -23.951  0.00  0.00    -0.000 C 
ENDBRANCH  21  24
ENDBRANCH   1  21
TORSDOF 6
ENDMDL
MODEL 5
REMARK VINA RESULT:     -11.1      5.787      8.997
REMARK  Name = 24941254
REMARK  6 active torsions:
REMARK  status: ('A' for Active; 'I' for Inactive)
REMARK    1  A    between atoms: C_1  and  S_21
REMARK    2  A    between atoms: C_4  and  C_9
REMARK    3  A    between atoms: N_8  and  C_11
REMARK    4  A    between atoms: C_12  and  C_18
REMARK    5  A    between atoms: C_18  and  O_19
REMARK    6  A    between atoms: S_21  and  N_24
REMARK                            x       y       z     vdW  Elec       q    Type
REMARK                         _______ _______ _______ _____ _____    ______ ____
ROOT
ATOM      1  C   UNL     1      36.785 -23.944 -13.993  0.00  0.00    +0.122 C 
ATOM      2  C   UNL     1      36.495 -22.943 -14.920  0.00  0.00    +0.024 C 
ATOM      3  C   UNL     1      38.014 -24.603 -14.041  0.00  0.00    +0.020 C 
ATOM      4  C   UNL     1      37.433 -22.602 -15.894  0.00  0.00    +0.055 C 
ATOM      5  C   UNL     1      38.952 -24.262 -15.015  0.00  0.00    +0.002 C 
ATOM      6  C   UNL     1      38.660 -23.261 -15.942  0.00  0.00    +0.005 C 
ENDROOT
BRANCH   4   9
ATOM      7  O   UNL     1      37.641 -20.435 -16.716  0.00  0.00    -0.270 OA
ATOM      8  N   UNL     1      36.284 -21.926 -17.916  0.00  0.00    -0.280 N 
ATOM      9  C   UNL     1      37.131 -21.557 -16.861  0.00  0.00    +0.250 C 
ATOM     10  H   UNL     1      35.957 -22.854 -17.897  0.00  0.00    +0.155 HD
BRANCH   8  11
ATOM     11  C   UNL     1      35.841 -21.139 -19.006  0.00  0.00    +0.057 C 
ATOM     12  C   UNL     1      34.537 -21.252 -19.491  0.00  0.00    +0.089 C 
ATOM     13  C   UNL     1      36.729 -20.241 -19.598  0.00  0.00    +0.015 C 
ATOM     14  C   UNL     1      34.123 -20.466 -20.567  0.00  0.00    +0.008 C 
ATOM     15  C   UNL     1      36.315 -19.457 -20.675  0.00  0.00    +0.001 C 
ATOM     16  C   UNL     1      35.012 -19.569 -21.158  0.00  0.00    +0.000 C 
BRANCH  12  18
ATOM     17  O   UNL     1      33.758 -23.393 -18.762  0.00  0.00    -0.245 OA
ATOM     18  C   UNL     1      33.583 -22.180 -18.896  0.00  0.00    +0.339 C 
BRANCH  18  19
ATOM     19  O   UNL     1      32.444 -21.558 -18.489  0.00  0.00    -0.477 OA
ATOM     20  H   UNL     1      32.478 -20.915 -17.808  0.00  0.00    +0.295 HD
ENDBRANCH  18  19
ENDBRANCH  12  18
ENDBRANCH   8  11
ENDBRANCH   4   9
BRANCH   1  21
ATOM     21  S   UNL     1      35.598 -24.378 -12.760  0.00  0.00    +0.064 S 
ATOM     22  O   UNL     1      35.819 -25.764 -12.402  0.00  0.00    -0.153 OA
ATOM     23  O   UNL     1      35.603 -23.339 -11.752  0.00  0.00    -0.153 OA
BRANCH  21  24
ATOM     24  N   UNL     1      34.157 -24.259 -13.676  0.00  0.00    -0.151 NA
ATOM     25  C   UNL     1      33.893 -22.934 -14.300  0.00  0.00    +0.101 C 
ATOM     26  C   UNL     1      32.936 -24.824 -13.026  0.00  0.00    +0.122 C 
ATOM     27  C   UNL     1      32.889 -23.119 -15.434  0.00  0.00    +0.045 C 
ATOM     28  C   UNL     1      31.682 -24.688 -13.857  0.00  0.00    -0.008 C 
ATOM     29  C   UNL     1      31.649 -23.850 -14.985  0.00  0.00    -0.023 C 
ATOM     30  C   UNL     1      30.523 -25.376 -13.473  0.00  0.00    -0.003 C 
ATOM     31  C   UNL     1      30.467 -23.742 -15.730  0.00  0.00    -0.004 C 
ATOM     32  C   UNL     1      29.348 -25.252 -14.216  0.00  0.00    -0.000 C 
ATOM     33  C   UNL     1      29.322 -24.437 -15.345  0.00  0.00    -0.000 C 
ENDBRANCH  21  24
ENDBRANCH   1  21
TORSDOF 6
ENDMDL
MODEL 6
REMARK VINA RESULT:     -11.0      3.493     10.869
REMARK  Name = 24941254
REMARK  6 active torsions:
REMARK  status: ('A' for Active; 'I' for Inactive)
REMARK    1  A    between atoms: C_1  and  S_21
REMARK    2  A    between atoms: C_4  and  C_9
REMARK    3  A    between atoms: N_8  and  C_11
REMARK    4  A    between atoms: C_12  and  C_18
REMARK    5  A    between atoms: C_18  and  O_19
REMARK    6  A    between atoms: S_21  and  N_24
REMARK                            x       y       z     vdW  Elec       q    Type
REMARK                         _______ _______ _______ _____ _____    ______ ____
ROOT
ATOM      1  C   UNL     1      32.583 -11.629 -21.948  0.00  0.00    +0.122 C 
ATOM      2  C   UNL     1      33.046 -12.829 -21.408  0.00  0.00    +0.024 C 
ATOM      3  C   UNL     1      32.985 -11.241 -23.227  0.00  0.00    +0.020 C 
ATOM      4  C   UNL     1      33.909 -13.640 -22.145  0.00  0.00    +0.055 C 
ATOM      5  C   UNL     1      33.848 -12.051 -23.964  0.00  0.00    +0.002 C 
ATOM      6  C   UNL     1      34.310 -13.251 -23.422  0.00  0.00    +0.005 C 
ENDROOT
BRANCH   4   9
ATOM      7  O   UNL     1      34.554 -14.977 -20.354  0.00  0.00    -0.270 OA
ATOM      8  N   UNL     1      34.612 -15.930 -22.497  0.00  0.00    -0.280 N 
ATOM      9  C   UNL     1      34.391 -14.891 -21.581  0.00  0.00    +0.250 C 
ATOM     10  H   UNL     1      34.438 -15.712 -23.441  0.00  0.00    +0.155 HD
BRANCH   8  11
ATOM     11  C   UNL     1      35.051 -17.252 -22.241  0.00  0.00    +0.057 C 
ATOM     12  C   UNL     1      34.790 -18.283 -23.145  0.00  0.00    +0.089 C 
ATOM     13  C   UNL     1      35.753 -17.516 -21.066  0.00  0.00    +0.015 C 
ATOM     14  C   UNL     1      35.233 -19.577 -22.871  0.00  0.00    +0.008 C 
ATOM     15  C   UNL     1      36.194 -18.811 -20.792  0.00  0.00    +0.001 C 
ATOM     16  C   UNL     1      35.934 -19.841 -21.695  0.00  0.00    +0.000 C 
BRANCH  12  18
ATOM     17  O   UNL     1      33.078 -18.681 -24.766  0.00  0.00    -0.245 OA
ATOM     18  C   UNL     1      34.059 -18.042 -24.383  0.00  0.00    +0.339 C 
BRANCH  18  19
ATOM     19  O   UNL     1      34.581 -17.009 -25.098  0.00  0.00    -0.477 OA
ATOM     20  H   UNL     1      35.509 -16.884 -25.131  0.00  0.00    +0.295 HD
ENDBRANCH  18  19
ENDBRANCH  12  18
ENDBRANCH   8  11
ENDBRANCH   4   9
BRANCH   1  21
ATOM     21  S   UNL     1      31.492 -10.602 -21.015  0.00  0.00    +0.064 S 
ATOM     22  O   UNL     1      30.146 -10.841 -21.489  0.00  0.00    -0.153 OA
ATOM     23  O   UNL     1      31.827 -10.753 -19.615  0.00  0.00    -0.153 OA
BRANCH  21  24
ATOM     24  N   UNL     1      32.007  -9.058 -21.547  0.00  0.00    -0.151 NA
ATOM     25  C   UNL     1      32.250  -8.052 -20.478  0.00  0.00    +0.101 C 
ATOM     26  C   UNL     1      31.236  -8.483 -22.690  0.00  0.00    +0.122 C 
ATOM     27  C   UNL     1      33.138  -6.945 -21.040  0.00  0.00    +0.045 C 
ATOM     28  C   UNL     1      31.709  -7.115 -23.122  0.00  0.00    -0.008 C 
ATOM     29  C   UNL     1      32.589  -6.368 -22.320  0.00  0.00    -0.023 C 
ATOM     30  C   UNL     1      31.232  -6.567 -24.320  0.00  0.00    -0.003 C 
ATOM     31  C   UNL     1      33.004  -5.100 -22.747  0.00  0.00    -0.004 C 
ATOM     32  C   UNL     1      31.642  -5.298 -24.730  0.00  0.00    -0.000 C 
ATOM     33  C   UNL     1      32.529  -4.566 -23.944  0.00  0.00    -0.000 C 
ENDBRANCH  21  24
ENDBRANCH   1  21
TORSDOF 6
ENDMDL
MODEL 7
REMARK VINA RESULT:     -10.8      2.978      5.522
REMARK  Name = 24941254
REMARK  6 active torsions:
REMARK  status: ('A' for Active; 'I' for Inactive)
REMARK    1  A    between atoms: C_1  and  S_21
REMARK    2  A    between atoms: C_4  and  C_9
REMARK    3  A    between atoms: N_8  and  C_11
REMARK    4  A    between atoms: C_12  and  C_18
REMARK    5  A    between atoms: C_18  and  O_19
REMARK    6  A    between atoms: S_21  and  N_24
REMARK                            x       y       z     vdW  Elec       q    Type
REMARK                         _______ _______ _______ _____ _____    ______ ____
ROOT
ATOM      1  C   UNL     1      35.050 -21.717 -19.065  0.00  0.00    +0.122 C 
ATOM      2  C   UNL     1      35.118 -20.710 -20.027  0.00  0.00    +0.024 C 
ATOM      3  C   UNL     1      36.088 -21.874 -18.145  0.00  0.00    +0.020 C 
ATOM      4  C   UNL     1      36.224 -19.860 -20.070  0.00  0.00    +0.055 C 
ATOM      5  C   UNL     1      37.193 -21.025 -18.189  0.00  0.00    +0.002 C 
ATOM      6  C   UNL     1      37.261 -20.018 -19.152  0.00  0.00    +0.005 C 
ENDROOT
BRANCH   4   9
ATOM      7  O   UNL     1      37.400 -18.502 -21.548  0.00  0.00    -0.270 OA
ATOM      8  N   UNL     1      35.071 -18.235 -21.446  0.00  0.00    -0.280 N 
ATOM      9  C   UNL     1      36.295 -18.809 -21.073  0.00  0.00    +0.250 C 
ATOM     10  H   UNL     1      34.276 -18.583 -20.981  0.00  0.00    +0.155 HD
BRANCH   8  11
ATOM     11  C   UNL     1      34.828 -17.221 -22.405  0.00  0.00    +0.057 C 
ATOM     12  C   UNL     1      34.401 -17.539 -23.694  0.00  0.00    +0.089 C 
ATOM     13  C   UNL     1      35.024 -15.888 -22.043  0.00  0.00    +0.015 C 
ATOM     14  C   UNL     1      34.168 -16.522 -24.621  0.00  0.00    +0.008 C 
ATOM     15  C   UNL     1      34.792 -14.873 -22.971  0.00  0.00    +0.001 C 
ATOM     16  C   UNL     1      34.364 -15.190 -24.260  0.00  0.00    +0.000 C 
BRANCH  12  18
ATOM     17  O   UNL     1      34.880 -19.881 -23.763  0.00  0.00    -0.245 OA
ATOM     18  C   UNL     1      34.186 -18.921 -24.105  0.00  0.00    +0.339 C 
BRANCH  18  19
ATOM     19  O   UNL     1      33.112 -19.055 -24.928  0.00  0.00    -0.477 OA
ATOM     20  H   UNL     1      33.098 -19.735 -25.572  0.00  0.00    +0.295 HD
ENDBRANCH  18  19
ENDBRANCH  12  18
ENDBRANCH   8  11
ENDBRANCH   4   9
BRANCH   1  21
ATOM     21  S   UNL     1      33.652 -22.794 -19.010  0.00  0.00    +0.064 S 
ATOM     22  O   UNL     1      32.533 -22.097 -19.609  0.00  0.00    -0.153 OA
ATOM     23  O   UNL     1      34.070 -24.091 -19.500  0.00  0.00    -0.153 OA
BRANCH  21  24
ATOM     24  N   UNL     1      33.413 -22.890 -17.318  0.00  0.00    -0.151 NA
ATOM     25  C   UNL     1      34.375 -23.746 -16.574  0.00  0.00    +0.101 C 
ATOM     26  C   UNL     1      32.003 -23.124 -16.881  0.00  0.00    +0.122 C 
ATOM     27  C   UNL     1      34.344 -23.351 -15.100  0.00  0.00    +0.045 C 
ATOM     28  C   UNL     1      31.832 -23.216 -15.384  0.00  0.00    -0.008 C 
ATOM     29  C   UNL     1      32.945 -23.358 -14.537  0.00  0.00    -0.023 C 
ATOM     30  C   UNL     1      30.544 -23.201 -14.834  0.00  0.00    -0.003 C 
ATOM     31  C   UNL     1      32.752 -23.448 -13.152  0.00  0.00    -0.004 C 
ATOM     32  C   UNL     1      30.362 -23.303 -13.455  0.00  0.00    -0.000 C 
ATOM     33  C   UNL     1      31.466 -23.424 -12.614  0.00  0.00    -0.000 C 
ENDBRANCH  21  24
ENDBRANCH   1  21
TORSDOF 6
ENDMDL
MODEL 8
REMARK VINA RESULT:     -10.7      3.066      9.773
REMARK  Name = 24941254
REMARK  6 active torsions:
REMARK  status: ('A' for Active; 'I' for Inactive)
REMARK    1  A    between atoms: C_1  and  S_21
REMARK    2  A    between atoms: C_4  and  C_9
REMARK    3  A    between atoms: N_8  and  C_11
REMARK    4  A    between atoms: C_12  and  C_18
REMARK    5  A    between atoms: C_18  and  O_19
REMARK    6  A    between atoms: S_21  and  N_24
REMARK                            x       y       z     vdW  Elec       q    Type
REMARK                         _______ _______ _______ _____ _____    ______ ____
ROOT
ATOM      1  C   UNL     1      34.785 -19.929 -20.384  0.00  0.00    +0.122 C 
ATOM      2  C   UNL     1      34.993 -20.948 -19.455  0.00  0.00    +0.024 C 
ATOM      3  C   UNL     1      33.504 -19.696 -20.887  0.00  0.00    +0.020 C 
ATOM      4  C   UNL     1      33.922 -21.734 -19.030  0.00  0.00    +0.055 C 
ATOM      5  C   UNL     1      32.433 -20.481 -20.462  0.00  0.00    +0.002 C 
ATOM      6  C   UNL     1      32.643 -21.500 -19.533  0.00  0.00    +0.005 C 
ENDROOT
BRANCH   4   9
ATOM      7  O   UNL     1      33.909 -23.970 -18.390  0.00  0.00    -0.270 OA
ATOM      8  N   UNL     1      34.625 -22.393 -16.809  0.00  0.00    -0.280 N 
ATOM      9  C   UNL     1      34.139 -22.796 -18.060  0.00  0.00    +0.250 C 
ATOM     10  H   UNL     1      34.759 -21.425 -16.693  0.00  0.00    +0.155 HD
BRANCH   8  11
ATOM     11  C   UNL     1      34.952 -23.196 -15.689  0.00  0.00    +0.057 C 
ATOM     12  C   UNL     1      33.974 -23.585 -14.774  0.00  0.00    +0.089 C 
ATOM     13  C   UNL     1      36.275 -23.598 -15.508  0.00  0.00    +0.015 C 
ATOM     14  C   UNL     1      34.320 -24.377 -13.678  0.00  0.00    +0.008 C 
ATOM     15  C   UNL     1      36.621 -24.388 -14.412  0.00  0.00    +0.001 C 
ATOM     16  C   UNL     1      35.643 -24.778 -13.497  0.00  0.00    +0.000 C 
BRANCH  12  18
ATOM     17  O   UNL     1      31.866 -23.462 -15.897  0.00  0.00    -0.245 OA
ATOM     18  C   UNL     1      32.582 -23.183 -14.933  0.00  0.00    +0.339 C 
BRANCH  18  19
ATOM     19  O   UNL     1      32.133 -22.447 -13.880  0.00  0.00    -0.477 OA
ATOM     20  H   UNL     1      31.622 -22.854 -13.209  0.00  0.00    +0.295 HD
ENDBRANCH  18  19
ENDBRANCH  12  18
ENDBRANCH   8  11
ENDBRANCH   4   9
BRANCH   1  21
ATOM     21  S   UNL     1      36.140 -18.935 -20.925  0.00  0.00    +0.064 S 
ATOM     22  O   UNL     1      36.645 -18.213 -19.777  0.00  0.00    -0.153 OA
ATOM     23  O   UNL     1      37.014 -19.770 -21.723  0.00  0.00    -0.153 OA
BRANCH  21  24
ATOM     24  N   UNL     1      35.319 -17.844 -21.957  0.00  0.00    -0.151 NA
ATOM     25  C   UNL     1      35.568 -18.015 -23.413  0.00  0.00    +0.101 C 
ATOM     26  C   UNL     1      35.374 -16.408 -21.546  0.00  0.00    +0.122 C 
ATOM     27  C   UNL     1      34.440 -17.337 -24.186  0.00  0.00    +0.045 C 
ATOM     28  C   UNL     1      34.651 -15.473 -22.486  0.00  0.00    -0.008 C 
ATOM     29  C   UNL     1      34.235 -15.906 -23.758  0.00  0.00    -0.023 C 
ATOM     30  C   UNL     1      34.428 -14.145 -22.102  0.00  0.00    -0.003 C 
ATOM     31  C   UNL     1      33.572 -15.012 -24.609  0.00  0.00    -0.004 C 
ATOM     32  C   UNL     1      33.777 -13.259 -22.962  0.00  0.00    -0.000 C 
ATOM     33  C   UNL     1      33.348 -13.694 -24.213  0.00  0.00    -0.000 C 
ENDBRANCH  21  24
ENDBRANCH   1  21
TORSDOF 6
ENDMDL
MODEL 9
REMARK VINA RESULT:     -10.7      3.010      9.620
REMARK  Name = 24941254
REMARK  6 active torsions:
REMARK  status: ('A' for Active; 'I' for Inactive)
REMARK    1  A    between atoms: C_1  and  S_21
REMARK    2  A    between atoms: C_4  and  C_9
REMARK    3  A    between atoms: N_8  and  C_11
REMARK    4  A    between atoms: C_12  and  C_18
REMARK    5  A    between atoms: C_18  and  O_19
REMARK    6  A    between atoms: S_21  and  N_24
REMARK                            x       y       z     vdW  Elec       q    Type
REMARK                         _______ _______ _______ _____ _____    ______ ____
ROOT
ATOM      1  C   UNL     1      35.290 -19.714 -20.955  0.00  0.00    +0.122 C 
ATOM      2  C   UNL     1      35.672 -20.487 -19.858  0.00  0.00    +0.024 C 
ATOM      3  C   UNL     1      33.951 -19.675 -21.347  0.00  0.00    +0.020 C 
ATOM      4  C   UNL     1      34.717 -21.220 -19.155  0.00  0.00    +0.055 C 
ATOM      5  C   UNL     1      32.996 -20.409 -20.643  0.00  0.00    +0.002 C 
ATOM      6  C   UNL     1      33.380 -21.182 -19.547  0.00  0.00    +0.005 C 
ENDROOT
BRANCH   4   9
ATOM      7  O   UNL     1      36.321 -22.261 -17.830  0.00  0.00    -0.270 OA
ATOM      8  N   UNL     1      34.077 -22.458 -17.175  0.00  0.00    -0.280 N 
ATOM      9  C   UNL     1      35.116 -22.026 -18.011  0.00  0.00    +0.250 C 
ATOM     10  H   UNL     1      33.169 -22.193 -17.448  0.00  0.00    +0.155 HD
BRANCH   8  11
ATOM     11  C   UNL     1      34.162 -23.226 -15.987  0.00  0.00    +0.057 C 
ATOM     12  C   UNL     1      33.024 -23.509 -15.232  0.00  0.00    +0.089 C 
ATOM     13  C   UNL     1      35.407 -23.699 -15.576  0.00  0.00    +0.015 C 
ATOM     14  C   UNL     1      33.132 -24.268 -14.066  0.00  0.00    +0.008 C 
ATOM     15  C   UNL     1      35.516 -24.456 -14.409  0.00  0.00    +0.001 C 
ATOM     16  C   UNL     1      34.378 -24.740 -13.655  0.00  0.00    +0.000 C 
BRANCH  12  18
ATOM     17  O   UNL     1      31.334 -22.861 -16.796  0.00  0.00    -0.245 OA
ATOM     18  C   UNL     1      31.707 -23.030 -15.633  0.00  0.00    +0.339 C 
BRANCH  18  19
ATOM     19  O   UNL     1      30.901 -22.779 -14.567  0.00  0.00    -0.477 OA
ATOM     20  H   UNL     1      30.897 -21.929 -14.172  0.00  0.00    +0.295 HD
ENDBRANCH  18  19
ENDBRANCH  12  18
ENDBRANCH   8  11
ENDBRANCH   4   9
BRANCH   1  21
ATOM     21  S   UNL     1      36.498 -18.787 -21.847  0.00  0.00    +0.064 S 
ATOM     22  O   UNL     1      37.703 -18.743 -21.046  0.00  0.00    -0.153 OA
ATOM     23  O   UNL     1      36.526 -19.284 -23.207  0.00  0.00    -0.153 OA
BRANCH  21  24
ATOM     24  N   UNL     1      35.760 -17.242 -21.835  0.00  0.00    -0.151 NA
ATOM     25  C   UNL     1      34.966 -16.912 -20.621  0.00  0.00    +0.101 C 
ATOM     26  C   UNL     1      35.044 -16.864 -23.091  0.00  0.00    +0.122 C 
ATOM     27  C   UNL     1      34.799 -15.397 -20.543  0.00  0.00    +0.045 C 
ATOM     28  C   UNL     1      34.394 -15.502 -23.039  0.00  0.00    -0.008 C 
ATOM     29  C   UNL     1      34.247 -14.817 -21.820  0.00  0.00    -0.023 C 
ATOM     30  C   UNL     1      33.894 -14.930 -24.217  0.00  0.00    -0.003 C 
ATOM     31  C   UNL     1      33.633 -13.557 -21.805  0.00  0.00    -0.004 C 
ATOM     32  C   UNL     1      33.274 -13.681 -24.189  0.00  0.00    -0.000 C 
ATOM     33  C   UNL     1      33.146 -12.995 -22.984  0.00  0.00    -0.000 C 
ENDBRANCH  21  24
ENDBRANCH   1  21
TORSDOF 6
ENDMDL
