MODEL 1
REMARK VINA RESULT:     -11.8      0.000      0.000
REMARK  Name = 10138993
REMARK  4 active torsions:
REMARK  status: ('A' for Active; 'I' for Inactive)
REMARK    1  A    between atoms: C_5  and  N_18
REMARK    2  A    between atoms: C_12  and  C_22
REMARK    3  A    between atoms: C_22  and  C_26
REMARK    4  A    between atoms: C_23  and  N_29
REMARK                            x       y       z     vdW  Elec       q    Type
REMARK                         _______ _______ _______ _____ _____    ______ ____
ROOT
ATOM      1  O   UNL     1      32.003 -22.772 -14.650  0.00  0.00    -0.274 OA
ATOM      2  N   UNL     1      34.868 -23.763 -11.737  0.00  0.00    -0.275 N 
ATOM      3  N   UNL     1      33.930 -24.060 -15.032  0.00  0.00    -0.268 N 
ATOM      4  N   UNL     1      33.994 -23.486 -12.719  0.00  0.00    -0.157 NA
ATOM      5  C   UNL     1      37.783 -26.027 -13.517  0.00  0.00    +0.069 C 
ATOM      6  C   UNL     1      36.671 -25.524 -14.202  0.00  0.00    +0.020 C 
ATOM      7  C   UNL     1      37.962 -25.775 -12.155  0.00  0.00    +0.018 C 
ATOM      8  C   UNL     1      35.732 -24.758 -13.490  0.00  0.00    +0.052 A 
ATOM      9  C   UNL     1      35.934 -24.524 -12.134  0.00  0.00    +0.077 A 
ATOM     10  C   UNL     1      37.037 -25.016 -11.431  0.00  0.00    +0.020 C 
ATOM     11  C   UNL     1      34.531 -24.093 -13.767  0.00  0.00    +0.155 A 
ATOM     12  C   UNL     1      32.743 -23.422 -15.381  0.00  0.00    +0.232 C 
ATOM     13  H   UNL     1      34.750 -23.448 -10.812  0.00  0.00    +0.189 HD
ATOM     14  H   UNL     1      34.398 -24.539 -15.753  0.00  0.00    +0.156 HD
ENDROOT
BRANCH   5  18
ATOM     15  S   UNL     1      40.422 -26.286 -14.226  0.00  0.00    +0.057 S 
ATOM     16  O   UNL     1      40.492 -24.846 -14.374  0.00  0.00    -0.154 OA
ATOM     17  O   UNL     1      41.147 -26.991 -13.190  0.00  0.00    -0.154 OA
ATOM     18  N   UNL     1      38.766 -26.821 -14.235  0.00  0.00    -0.194 N 
ATOM     19  C   UNL     1      40.805 -27.021 -15.809  0.00  0.00    +0.174 C 
ATOM     20  C   UNL     1      39.730 -28.072 -16.030  0.00  0.00    +0.051 C 
ATOM     21  C   UNL     1      38.424 -27.451 -15.541  0.00  0.00    +0.117 C 
ENDBRANCH   5  18
BRANCH  12  22
ATOM     22  C   UNL     1      32.433 -23.623 -16.862  0.00  0.00    +0.112 C 
BRANCH  22  26
ATOM     23  C   UNL     1      34.602 -20.975 -19.478  0.00  0.00    +0.048 C 
ATOM     24  C   UNL     1      33.196 -20.931 -19.407  0.00  0.00    +0.014 C 
ATOM     25  C   UNL     1      35.279 -21.909 -18.670  0.00  0.00    +0.014 C 
ATOM     26  C   UNL     1      33.185 -22.706 -17.768  0.00  0.00    -0.013 C 
ATOM     27  C   UNL     1      32.494 -21.788 -18.560  0.00  0.00    -0.003 C 
ATOM     28  C   UNL     1      34.577 -22.766 -17.824  0.00  0.00    -0.003 C 
BRANCH  23  29
ATOM     29  N   UNL     1      35.307 -20.114 -20.328  0.00  0.00    -0.307 N 
ATOM     30  C   UNL     1      36.756 -18.444 -22.184  0.00  0.00    +0.004 C 
ATOM     31  C   UNL     1      37.273 -18.699 -20.774  0.00  0.00    +0.021 C 
ATOM     32  C   UNL     1      35.234 -18.522 -22.208  0.00  0.00    +0.021 C 
ATOM     33  C   UNL     1      36.769 -20.031 -20.220  0.00  0.00    +0.091 C 
ATOM     34  C   UNL     1      34.735 -19.856 -21.658  0.00  0.00    +0.091 C 
ENDBRANCH  23  29
ENDBRANCH  22  26
ENDBRANCH  12  22
TORSDOF 4
ENDMDL
MODEL 2
REMARK VINA RESULT:     -11.6      3.248      5.557
REMARK  Name = 10138993
REMARK  4 active torsions:
REMARK  status: ('A' for Active; 'I' for Inactive)
REMARK    1  A    between atoms: C_5  and  N_18
REMARK    2  A    between atoms: C_12  and  C_22
REMARK    3  A    between atoms: C_22  and  C_26
REMARK    4  A    between atoms: C_23  and  N_29
REMARK                            x       y       z     vdW  Elec       q    Type
REMARK                         _______ _______ _______ _____ _____    ______ ____
ROOT
ATOM      1  O   UNL     1      33.541 -20.696 -20.700  0.00  0.00    -0.274 OA
ATOM      2  N   UNL     1      32.360 -23.157 -17.503  0.00  0.00    -0.275 N 
ATOM      3  N   UNL     1      34.881 -21.245 -18.850  0.00  0.00    -0.268 N 
ATOM      4  N   UNL     1      32.806 -22.362 -18.490  0.00  0.00    -0.157 NA
ATOM      5  C   UNL     1      35.480 -23.417 -14.858  0.00  0.00    +0.069 C 
ATOM      6  C   UNL     1      35.532 -22.672 -16.043  0.00  0.00    +0.020 C 
ATOM      7  C   UNL     1      34.330 -24.127 -14.507  0.00  0.00    +0.018 C 
ATOM      8  C   UNL     1      34.401 -22.654 -16.876  0.00  0.00    +0.052 A 
ATOM      9  C   UNL     1      33.270 -23.372 -16.503  0.00  0.00    +0.077 A 
ATOM     10  C   UNL     1      33.196 -24.121 -15.326  0.00  0.00    +0.020 C 
ATOM     11  C   UNL     1      34.036 -22.069 -18.096  0.00  0.00    +0.155 A 
ATOM     12  C   UNL     1      34.588 -20.631 -20.065  0.00  0.00    +0.232 C 
ATOM     13  H   UNL     1      31.458 -23.551 -17.500  0.00  0.00    +0.189 HD
ATOM     14  H   UNL     1      35.778 -21.081 -18.482  0.00  0.00    +0.156 HD
ENDROOT
BRANCH   5  18
ATOM     15  S   UNL     1      37.923 -24.560 -14.353  0.00  0.00    +0.057 S 
ATOM     16  O   UNL     1      37.383 -25.833 -14.789  0.00  0.00    -0.154 OA
ATOM     17  O   UNL     1      38.957 -23.868 -15.092  0.00  0.00    -0.154 OA
ATOM     18  N   UNL     1      36.637 -23.448 -13.982  0.00  0.00    -0.194 N 
ATOM     19  C   UNL     1      38.439 -24.736 -12.651  0.00  0.00    +0.174 C 
ATOM     20  C   UNL     1      37.877 -23.519 -11.937  0.00  0.00    +0.051 C 
ATOM     21  C   UNL     1      36.477 -23.304 -12.507  0.00  0.00    +0.117 C 
ENDBRANCH   5  18
BRANCH  12  22
ATOM     22  C   UNL     1      35.778 -19.813 -20.561  0.00  0.00    +0.112 C 
BRANCH  22  26
ATOM     23  C   UNL     1      34.677 -16.189 -22.613  0.00  0.00    +0.048 C 
ATOM     24  C   UNL     1      34.796 -17.408 -23.309  0.00  0.00    +0.014 C 
ATOM     25  C   UNL     1      34.928 -16.188 -21.227  0.00  0.00    +0.014 C 
ATOM     26  C   UNL     1      35.397 -18.558 -21.271  0.00  0.00    -0.013 C 
ATOM     27  C   UNL     1      35.153 -18.581 -22.645  0.00  0.00    -0.003 C 
ATOM     28  C   UNL     1      35.285 -17.362 -20.563  0.00  0.00    -0.003 C 
BRANCH  23  29
ATOM     29  N   UNL     1      34.318 -15.011 -23.280  0.00  0.00    -0.307 N 
ATOM     30  C   UNL     1      33.457 -12.578 -24.571  0.00  0.00    +0.004 C 
ATOM     31  C   UNL     1      33.846 -13.810 -25.378  0.00  0.00    +0.021 C 
ATOM     32  C   UNL     1      34.221 -12.549 -23.253  0.00  0.00    +0.021 C 
ATOM     33  C   UNL     1      33.640 -15.096 -24.578  0.00  0.00    +0.091 C 
ATOM     34  C   UNL     1      34.007 -13.834 -22.456  0.00  0.00    +0.091 C 
ENDBRANCH  23  29
ENDBRANCH  22  26
ENDBRANCH  12  22
TORSDOF 4
ENDMDL
MODEL 3
REMARK VINA RESULT:     -10.8      2.687      4.006
REMARK  Name = 10138993
REMARK  4 active torsions:
REMARK  status: ('A' for Active; 'I' for Inactive)
REMARK    1  A    between atoms: C_5  and  N_18
REMARK    2  A    between atoms: C_12  and  C_22
REMARK    3  A    between atoms: C_22  and  C_26
REMARK    4  A    between atoms: C_23  and  N_29
REMARK                            x       y       z     vdW  Elec       q    Type
REMARK                         _______ _______ _______ _____ _____    ______ ____
ROOT
ATOM      1  O   UNL     1      32.794 -22.086 -18.769  0.00  0.00    -0.274 OA
ATOM      2  N   UNL     1      31.568 -23.612 -15.049  0.00  0.00    -0.275 N 
ATOM      3  N   UNL     1      34.233 -22.899 -17.101  0.00  0.00    -0.268 N 
ATOM      4  N   UNL     1      32.032 -23.138 -16.217  0.00  0.00    -0.157 NA
ATOM      5  C   UNL     1      34.907 -24.731 -12.952  0.00  0.00    +0.069 C 
ATOM      6  C   UNL     1      34.952 -24.178 -14.239  0.00  0.00    +0.020 C 
ATOM      7  C   UNL     1      33.689 -24.933 -12.300  0.00  0.00    +0.018 C 
ATOM      8  C   UNL     1      33.742 -23.831 -14.863  0.00  0.00    +0.052 A 
ATOM      9  C   UNL     1      32.544 -24.045 -14.191  0.00  0.00    +0.077 A 
ATOM     10  C   UNL     1      32.476 -24.593 -12.909  0.00  0.00    +0.020 C 
ATOM     11  C   UNL     1      33.344 -23.278 -16.087  0.00  0.00    +0.155 A 
ATOM     12  C   UNL     1      33.912 -22.345 -18.337  0.00  0.00    +0.232 C 
ATOM     13  H   UNL     1      30.609 -23.647 -14.829  0.00  0.00    +0.189 HD
ATOM     14  H   UNL     1      35.190 -23.040 -16.919  0.00  0.00    +0.156 HD
ENDROOT
BRANCH   5  18
ATOM     15  S   UNL     1      36.831 -23.974 -11.148  0.00  0.00    +0.057 S 
ATOM     16  O   UNL     1      36.714 -22.615 -11.638  0.00  0.00    -0.154 OA
ATOM     17  O   UNL     1      36.429 -24.347  -9.808  0.00  0.00    -0.154 OA
ATOM     18  N   UNL     1      36.146 -25.096 -12.288  0.00  0.00    -0.194 N 
ATOM     19  C   UNL     1      38.511 -24.516 -11.425  0.00  0.00    +0.174 C 
ATOM     20  C   UNL     1      38.387 -25.896 -12.046  0.00  0.00    +0.051 C 
ATOM     21  C   UNL     1      37.222 -25.814 -13.029  0.00  0.00    +0.117 C 
ENDBRANCH   5  18
BRANCH  12  22
ATOM     22  C   UNL     1      35.172 -22.073 -19.154  0.00  0.00    +0.112 C 
BRANCH  22  26
ATOM     23  C   UNL     1      34.906 -18.584 -21.666  0.00  0.00    +0.048 C 
ATOM     24  C   UNL     1      33.812 -19.460 -21.526  0.00  0.00    +0.014 C 
ATOM     25  C   UNL     1      36.088 -18.880 -20.962  0.00  0.00    +0.014 C 
ATOM     26  C   UNL     1      35.080 -20.864 -20.024  0.00  0.00    -0.013 C 
ATOM     27  C   UNL     1      33.898 -20.590 -20.713  0.00  0.00    -0.003 C 
ATOM     28  C   UNL     1      36.175 -20.010 -20.149  0.00  0.00    -0.003 C 
BRANCH  23  29
ATOM     29  N   UNL     1      34.818 -17.449 -22.483  0.00  0.00    -0.307 N 
ATOM     30  C   UNL     1      34.768 -15.150 -24.227  0.00  0.00    +0.004 C 
ATOM     31  C   UNL     1      34.595 -15.008 -22.720  0.00  0.00    +0.021 C 
ATOM     32  C   UNL     1      34.254 -16.508 -24.689  0.00  0.00    +0.021 C 
ATOM     33  C   UNL     1      35.270 -16.152 -21.964  0.00  0.00    +0.091 C 
ATOM     34  C   UNL     1      34.934 -17.648 -23.934  0.00  0.00    +0.091 C 
ENDBRANCH  23  29
ENDBRANCH  22  26
ENDBRANCH  12  22
TORSDOF 4
ENDMDL
MODEL 4
REMARK VINA RESULT:     -10.3     12.374     18.189
REMARK  Name = 10138993
REMARK  4 active torsions:
REMARK  status: ('A' for Active; 'I' for Inactive)
REMARK    1  A    between atoms: C_5  and  N_18
REMARK    2  A    between atoms: C_12  and  C_22
REMARK    3  A    between atoms: C_22  and  C_26
REMARK    4  A    between atoms: C_23  and  N_29
REMARK                            x       y       z     vdW  Elec       q    Type
REMARK                         _______ _______ _______ _____ _____    ______ ____
ROOT
ATOM      1  O   UNL     1      32.580 -11.151 -21.963  0.00  0.00    -0.274 OA
ATOM      2  N   UNL     1      31.687  -7.266 -20.630  0.00  0.00    -0.275 N 
ATOM      3  N   UNL     1      32.750  -9.203 -23.264  0.00  0.00    -0.268 N 
ATOM      4  N   UNL     1      31.990  -8.478 -21.124  0.00  0.00    -0.157 NA
ATOM      5  C   UNL     1      32.336  -4.661 -23.726  0.00  0.00    +0.069 C 
ATOM      6  C   UNL     1      32.536  -6.044 -23.825  0.00  0.00    +0.020 C 
ATOM      7  C   UNL     1      31.891  -4.084 -22.535  0.00  0.00    +0.018 C 
ATOM      8  C   UNL     1      32.282  -6.842 -22.697  0.00  0.00    +0.052 A 
ATOM      9  C   UNL     1      31.841  -6.241 -21.524  0.00  0.00    +0.077 A 
ATOM     10  C   UNL     1      31.634  -4.865 -21.403  0.00  0.00    +0.020 C 
ATOM     11  C   UNL     1      32.347  -8.203 -22.370  0.00  0.00    +0.155 A 
ATOM     12  C   UNL     1      32.838 -10.569 -23.011  0.00  0.00    +0.232 C 
ATOM     13  H   UNL     1      31.382  -7.127 -19.704  0.00  0.00    +0.189 HD
ATOM     14  H   UNL     1      32.998  -8.909 -24.169  0.00  0.00    +0.156 HD
ENDROOT
BRANCH   5  18
ATOM     15  S   UNL     1      33.833  -4.306 -25.999  0.00  0.00    +0.057 S 
ATOM     16  O   UNL     1      34.982  -4.829 -25.288  0.00  0.00    -0.154 OA
ATOM     17  O   UNL     1      33.226  -5.012 -27.108  0.00  0.00    -0.154 OA
ATOM     18  N   UNL     1      32.593  -3.817 -24.880  0.00  0.00    -0.194 N 
ATOM     19  C   UNL     1      34.214  -2.636 -26.509  0.00  0.00    +0.174 C 
ATOM     20  C   UNL     1      32.996  -1.814 -26.124  0.00  0.00    +0.051 C 
ATOM     21  C   UNL     1      32.551  -2.332 -24.758  0.00  0.00    +0.117 C 
ENDBRANCH   5  18
BRANCH  12  22
ATOM     22  C   UNL     1      33.318 -11.321 -24.250  0.00  0.00    +0.112 C 
BRANCH  22  26
ATOM     23  C   UNL     1      34.208 -15.476 -23.541  0.00  0.00    +0.048 C 
ATOM     24  C   UNL     1      33.638 -15.055 -24.758  0.00  0.00    +0.014 C 
ATOM     25  C   UNL     1      34.479 -14.500 -22.562  0.00  0.00    +0.014 C 
ATOM     26  C   UNL     1      33.626 -12.760 -24.004  0.00  0.00    -0.013 C 
ATOM     27  C   UNL     1      33.349 -13.710 -24.988  0.00  0.00    -0.003 C 
ATOM     28  C   UNL     1      34.190 -13.155 -22.792  0.00  0.00    -0.003 C 
BRANCH  23  29
ATOM     29  N   UNL     1      34.498 -16.827 -23.311  0.00  0.00    -0.307 N 
ATOM     30  C   UNL     1      35.238 -19.581 -22.865  0.00  0.00    +0.004 C 
ATOM     31  C   UNL     1      34.111 -19.206 -23.817  0.00  0.00    +0.021 C 
ATOM     32  C   UNL     1      35.364 -18.536 -21.761  0.00  0.00    +0.021 C 
ATOM     33  C   UNL     1      34.299 -17.801 -24.390  0.00  0.00    +0.091 C 
ATOM     34  C   UNL     1      35.557 -17.136 -22.339  0.00  0.00    +0.091 C 
ENDBRANCH  23  29
ENDBRANCH  22  26
ENDBRANCH  12  22
TORSDOF 4
ENDMDL
MODEL 5
REMARK VINA RESULT:      -9.8      4.096      6.538
REMARK  Name = 10138993
REMARK  4 active torsions:
REMARK  status: ('A' for Active; 'I' for Inactive)
REMARK    1  A    between atoms: C_5  and  N_18
REMARK    2  A    between atoms: C_12  and  C_22
REMARK    3  A    between atoms: C_22  and  C_26
REMARK    4  A    between atoms: C_23  and  N_29
REMARK                            x       y       z     vdW  Elec       q    Type
REMARK                         _______ _______ _______ _____ _____    ______ ____
ROOT
ATOM      1  O   UNL     1      37.582 -21.717 -17.639  0.00  0.00    -0.274 OA
ATOM      2  N   UNL     1      35.719 -22.767 -14.020  0.00  0.00    -0.275 N 
ATOM      3  N   UNL     1      35.361 -22.452 -17.425  0.00  0.00    -0.268 N 
ATOM      4  N   UNL     1      36.249 -22.447 -15.212  0.00  0.00    -0.157 NA
ATOM      5  C   UNL     1      31.865 -23.896 -14.835  0.00  0.00    +0.069 C 
ATOM      6  C   UNL     1      32.773 -23.483 -15.818  0.00  0.00    +0.020 C 
ATOM      7  C   UNL     1      32.237 -23.948 -13.490  0.00  0.00    +0.018 C 
ATOM      8  C   UNL     1      34.071 -23.117 -15.423  0.00  0.00    +0.052 A 
ATOM      9  C   UNL     1      34.414 -23.176 -14.077  0.00  0.00    +0.077 A 
ATOM     10  C   UNL     1      33.525 -23.586 -13.080  0.00  0.00    +0.020 C 
ATOM     11  C   UNL     1      35.241 -22.664 -16.045  0.00  0.00    +0.155 A 
ATOM     12  C   UNL     1      36.488 -22.006 -18.111  0.00  0.00    +0.232 C 
ATOM     13  H   UNL     1      36.225 -22.709 -13.177  0.00  0.00    +0.189 HD
ATOM     14  H   UNL     1      34.562 -22.638 -17.968  0.00  0.00    +0.156 HD
ENDROOT
BRANCH   5  18
ATOM     15  S   UNL     1      29.344 -23.020 -15.473  0.00  0.00    +0.057 S 
ATOM     16  O   UNL     1      29.479 -21.989 -14.463  0.00  0.00    -0.154 OA
ATOM     17  O   UNL     1      29.269 -22.710 -16.886  0.00  0.00    -0.154 OA
ATOM     18  N   UNL     1      30.519 -24.279 -15.222  0.00  0.00    -0.194 N 
ATOM     19  C   UNL     1      27.952 -24.048 -15.027  0.00  0.00    +0.174 C 
ATOM     20  C   UNL     1      28.448 -25.477 -15.177  0.00  0.00    +0.051 C 
ATOM     21  C   UNL     1      29.875 -25.488 -14.633  0.00  0.00    +0.117 C 
ENDBRANCH   5  18
BRANCH  12  22
ATOM     22  C   UNL     1      36.208 -21.908 -19.609  0.00  0.00    +0.112 C 
BRANCH  22  26
ATOM     23  C   UNL     1      35.212 -17.936 -20.946  0.00  0.00    +0.048 C 
ATOM     24  C   UNL     1      34.217 -18.922 -20.804  0.00  0.00    +0.014 C 
ATOM     25  C   UNL     1      36.541 -18.284 -20.638  0.00  0.00    +0.014 C 
ATOM     26  C   UNL     1      35.863 -20.532 -20.071  0.00  0.00    -0.013 C 
ATOM     27  C   UNL     1      34.539 -20.209 -20.371  0.00  0.00    -0.003 C 
ATOM     28  C   UNL     1      36.863 -19.570 -20.205  0.00  0.00    -0.003 C 
BRANCH  23  29
ATOM     29  N   UNL     1      34.888 -16.644 -21.380  0.00  0.00    -0.307 N 
ATOM     30  C   UNL     1      34.361 -13.965 -22.316  0.00  0.00    +0.004 C 
ATOM     31  C   UNL     1      33.969 -14.407 -20.912  0.00  0.00    +0.021 C 
ATOM     32  C   UNL     1      34.344 -15.156 -23.267  0.00  0.00    +0.021 C 
ATOM     33  C   UNL     1      34.858 -15.544 -20.409  0.00  0.00    +0.091 C 
ATOM     34  C   UNL     1      35.238 -16.286 -22.762  0.00  0.00    +0.091 C 
ENDBRANCH  23  29
ENDBRANCH  22  26
ENDBRANCH  12  22
TORSDOF 4
ENDMDL
MODEL 6
REMARK VINA RESULT:      -9.6     11.388     17.128
REMARK  Name = 10138993
REMARK  4 active torsions:
REMARK  status: ('A' for Active; 'I' for Inactive)
REMARK    1  A    between atoms: C_5  and  N_18
REMARK    2  A    between atoms: C_12  and  C_22
REMARK    3  A    between atoms: C_22  and  C_26
REMARK    4  A    between atoms: C_23  and  N_29
REMARK                            x       y       z     vdW  Elec       q    Type
REMARK                         _______ _______ _______ _____ _____    ______ ____
ROOT
ATOM      1  O   UNL     1      32.265 -12.356 -21.633  0.00  0.00    -0.274 OA
ATOM      2  N   UNL     1      31.574  -8.313 -20.710  0.00  0.00    -0.275 N 
ATOM      3  N   UNL     1      33.061 -10.529 -22.878  0.00  0.00    -0.268 N 
ATOM      4  N   UNL     1      31.835  -9.582 -21.066  0.00  0.00    -0.157 NA
ATOM      5  C   UNL     1      33.421  -6.009 -23.551  0.00  0.00    +0.069 C 
ATOM      6  C   UNL     1      33.449  -7.409 -23.554  0.00  0.00    +0.020 C 
ATOM      7  C   UNL     1      32.741  -5.307 -22.552  0.00  0.00    +0.018 C 
ATOM      8  C   UNL     1      32.780  -8.097 -22.528  0.00  0.00    +0.052 A 
ATOM      9  C   UNL     1      32.113  -7.373 -21.546  0.00  0.00    +0.077 A 
ATOM     10  C   UNL     1      32.071  -5.977 -21.524  0.00  0.00    +0.020 C 
ATOM     11  C   UNL     1      32.563  -9.432 -22.163  0.00  0.00    +0.155 A 
ATOM     12  C   UNL     1      32.885 -11.877 -22.577  0.00  0.00    +0.232 C 
ATOM     13  H   UNL     1      31.042  -8.080 -19.915  0.00  0.00    +0.189 HD
ATOM     14  H   UNL     1      33.592 -10.325 -23.681  0.00  0.00    +0.156 HD
ENDROOT
BRANCH   5  18
ATOM     15  S   UNL     1      33.159  -4.263 -25.652  0.00  0.00    +0.057 S 
ATOM     16  O   UNL     1      31.910  -4.913 -25.997  0.00  0.00    -0.154 OA
ATOM     17  O   UNL     1      33.210  -2.898 -25.172  0.00  0.00    -0.154 OA
ATOM     18  N   UNL     1      34.106  -5.278 -24.602  0.00  0.00    -0.194 N 
ATOM     19  C   UNL     1      34.272  -4.435 -27.039  0.00  0.00    +0.174 C 
ATOM     20  C   UNL     1      35.590  -4.892 -26.438  0.00  0.00    +0.051 C 
ATOM     21  C   UNL     1      35.231  -5.904 -25.352  0.00  0.00    +0.117 C 
ENDBRANCH   5  18
BRANCH  12  22
ATOM     22  C   UNL     1      33.587 -12.759 -23.607  0.00  0.00    +0.112 C 
BRANCH  22  26
ATOM     23  C   UNL     1      34.957 -16.530 -22.039  0.00  0.00    +0.048 C 
ATOM     24  C   UNL     1      34.720 -16.362 -23.417  0.00  0.00    +0.014 C 
ATOM     25  C   UNL     1      34.733 -15.431 -21.188  0.00  0.00    +0.014 C 
ATOM     26  C   UNL     1      34.062 -14.065 -23.063  0.00  0.00    -0.013 C 
ATOM     27  C   UNL     1      34.277 -15.141 -23.925  0.00  0.00    -0.003 C 
ATOM     28  C   UNL     1      34.289 -14.210 -21.696  0.00  0.00    -0.003 C 
BRANCH  23  29
ATOM     29  N   UNL     1      35.403 -17.756 -21.529  0.00  0.00    -0.307 N 
ATOM     30  C   UNL     1      36.391 -20.307 -20.608  0.00  0.00    +0.004 C 
ATOM     31  C   UNL     1      34.914 -19.946 -20.514  0.00  0.00    +0.021 C 
ATOM     32  C   UNL     1      37.246 -19.048 -20.525  0.00  0.00    +0.021 C 
ATOM     33  C   UNL     1      34.514 -18.923 -21.576  0.00  0.00    +0.091 C 
ATOM     34  C   UNL     1      36.846 -18.031 -21.592  0.00  0.00    +0.091 C 
ENDBRANCH  23  29
ENDBRANCH  22  26
ENDBRANCH  12  22
TORSDOF 4
ENDMDL
MODEL 7
REMARK VINA RESULT:      -9.4      3.006      8.282
REMARK  Name = 10138993
REMARK  4 active torsions:
REMARK  status: ('A' for Active; 'I' for Inactive)
REMARK    1  A    between atoms: C_5  and  N_18
REMARK    2  A    between atoms: C_12  and  C_22
REMARK    3  A    between atoms: C_22  and  C_26
REMARK    4  A    between atoms: C_23  and  N_29
REMARK                            x       y       z     vdW  Elec       q    Type
REMARK                         _______ _______ _______ _____ _____    ______ ____
ROOT
ATOM      1  O   UNL     1      35.132 -24.527 -10.956  0.00  0.00    -0.274 OA
ATOM      2  N   UNL     1      31.538 -24.304 -13.124  0.00  0.00    -0.275 N 
ATOM      3  N   UNL     1      34.936 -23.785 -13.176  0.00  0.00    -0.268 N 
ATOM      4  N   UNL     1      32.723 -24.348 -12.493  0.00  0.00    -0.157 NA
ATOM      5  C   UNL     1      32.382 -22.880 -16.873  0.00  0.00    +0.069 C 
ATOM      6  C   UNL     1      33.354 -23.080 -15.886  0.00  0.00    +0.020 C 
ATOM      7  C   UNL     1      31.037 -23.166 -16.625  0.00  0.00    +0.018 C 
ATOM      8  C   UNL     1      32.950 -23.573 -14.634  0.00  0.00    +0.052 A 
ATOM      9  C   UNL     1      31.605 -23.847 -14.413  0.00  0.00    +0.077 A 
ATOM     10  C   UNL     1      30.618 -23.657 -15.384  0.00  0.00    +0.020 C 
ATOM     11  C   UNL     1      33.562 -23.904 -13.418  0.00  0.00    +0.155 A 
ATOM     12  C   UNL     1      35.611 -24.094 -11.998  0.00  0.00    +0.232 C 
ATOM     13  H   UNL     1      30.693 -24.575 -12.697  0.00  0.00    +0.189 HD
ATOM     14  H   UNL     1      35.484 -23.445 -13.919  0.00  0.00    +0.156 HD
ENDROOT
BRANCH   5  18
ATOM     15  S   UNL     1      34.400 -22.683 -18.723  0.00  0.00    +0.057 S 
ATOM     16  O   UNL     1      35.343 -22.531 -17.633  0.00  0.00    -0.154 OA
ATOM     17  O   UNL     1      34.399 -23.847 -19.584  0.00  0.00    -0.154 OA
ATOM     18  N   UNL     1      32.778 -22.372 -18.175  0.00  0.00    -0.194 N 
ATOM     19  C   UNL     1      34.483 -21.211 -19.732  0.00  0.00    +0.174 C 
ATOM     20  C   UNL     1      33.037 -20.807 -19.966  0.00  0.00    +0.051 C 
ATOM     21  C   UNL     1      32.315 -21.033 -18.639  0.00  0.00    +0.117 C 
ENDBRANCH   5  18
BRANCH  12  22
ATOM     22  C   UNL     1      37.107 -23.824 -12.143  0.00  0.00    +0.112 C 
BRANCH  22  26
ATOM     23  C   UNL     1      39.213 -26.813 -14.420  0.00  0.00    +0.048 C 
ATOM     24  C   UNL     1      39.897 -25.976 -13.518  0.00  0.00    +0.014 C 
ATOM     25  C   UNL     1      37.821 -26.647 -14.556  0.00  0.00    +0.014 C 
ATOM     26  C   UNL     1      37.836 -24.859 -12.931  0.00  0.00    -0.013 C 
ATOM     27  C   UNL     1      39.215 -25.007 -12.781  0.00  0.00    -0.003 C 
ATOM     28  C   UNL     1      37.140 -25.679 -13.819  0.00  0.00    -0.003 C 
BRANCH  23  29
ATOM     29  N   UNL     1      39.898 -27.786 -15.159  0.00  0.00    -0.307 N 
ATOM     30  C   UNL     1      41.414 -29.690 -16.710  0.00  0.00    +0.004 C 
ATOM     31  C   UNL     1      39.941 -29.427 -16.996  0.00  0.00    +0.021 C 
ATOM     32  C   UNL     1      41.716 -29.448 -15.236  0.00  0.00    +0.021 C 
ATOM     33  C   UNL     1      39.524 -28.023 -16.559  0.00  0.00    +0.091 C 
ATOM     34  C   UNL     1      41.301 -28.042 -14.806  0.00  0.00    +0.091 C 
ENDBRANCH  23  29
ENDBRANCH  22  26
ENDBRANCH  12  22
TORSDOF 4
ENDMDL
MODEL 8
REMARK VINA RESULT:      -9.2      4.248      6.774
REMARK  Name = 10138993
REMARK  4 active torsions:
REMARK  status: ('A' for Active; 'I' for Inactive)
REMARK    1  A    between atoms: C_5  and  N_18
REMARK    2  A    between atoms: C_12  and  C_22
REMARK    3  A    between atoms: C_22  and  C_26
REMARK    4  A    between atoms: C_23  and  N_29
REMARK                            x       y       z     vdW  Elec       q    Type
REMARK                         _______ _______ _______ _____ _____    ______ ____
ROOT
ATOM      1  O   UNL     1      37.267 -20.975 -19.462  0.00  0.00    -0.274 OA
ATOM      2  N   UNL     1      36.498 -22.303 -15.549  0.00  0.00    -0.275 N 
ATOM      3  N   UNL     1      35.238 -21.898 -18.722  0.00  0.00    -0.268 N 
ATOM      4  N   UNL     1      36.673 -21.899 -16.818  0.00  0.00    -0.157 NA
ATOM      5  C   UNL     1      32.655 -23.717 -15.401  0.00  0.00    +0.069 C 
ATOM      6  C   UNL     1      33.242 -23.195 -16.560  0.00  0.00    +0.020 C 
ATOM      7  C   UNL     1      33.370 -23.785 -14.203  0.00  0.00    +0.018 C 
ATOM      8  C   UNL     1      34.568 -22.738 -16.495  0.00  0.00    +0.052 A 
ATOM      9  C   UNL     1      35.256 -22.817 -15.289  0.00  0.00    +0.077 A 
ATOM     10  C   UNL     1      34.691 -23.334 -14.121  0.00  0.00    +0.020 C 
ATOM     11  C   UNL     1      35.500 -22.169 -17.373  0.00  0.00    +0.155 A 
ATOM     12  C   UNL     1      36.111 -21.336 -19.650  0.00  0.00    +0.232 C 
ATOM     13  H   UNL     1      37.203 -22.235 -14.865  0.00  0.00    +0.189 HD
ATOM     14  H   UNL     1      34.340 -22.129 -19.050  0.00  0.00    +0.156 HD
ENDROOT
BRANCH   5  18
ATOM     15  S   UNL     1      29.999 -23.024 -15.375  0.00  0.00    +0.057 S 
ATOM     16  O   UNL     1      30.311 -21.985 -14.413  0.00  0.00    -0.154 OA
ATOM     17  O   UNL     1      29.553 -22.720 -16.719  0.00  0.00    -0.154 OA
ATOM     18  N   UNL     1      31.284 -24.195 -15.447  0.00  0.00    -0.194 N 
ATOM     19  C   UNL     1      28.838 -24.149 -14.615  0.00  0.00    +0.174 C 
ATOM     20  C   UNL     1      29.379 -25.538 -14.909  0.00  0.00    +0.051 C 
ATOM     21  C   UNL     1      30.893 -25.447 -14.737  0.00  0.00    +0.117 C 
ENDBRANCH   5  18
BRANCH  12  22
ATOM     22  C   UNL     1      35.441 -21.208 -21.017  0.00  0.00    +0.112 C 
BRANCH  22  26
ATOM     23  C   UNL     1      34.690 -17.140 -22.219  0.00  0.00    +0.048 C 
ATOM     24  C   UNL     1      35.166 -17.437 -20.927  0.00  0.00    +0.014 C 
ATOM     25  C   UNL     1      34.467 -18.210 -23.107  0.00  0.00    +0.014 C 
ATOM     26  C   UNL     1      35.181 -19.800 -21.434  0.00  0.00    -0.013 C 
ATOM     27  C   UNL     1      35.409 -18.754 -20.538  0.00  0.00    -0.003 C 
ATOM     28  C   UNL     1      34.710 -19.527 -22.717  0.00  0.00    -0.003 C 
BRANCH  23  29
ATOM     29  N   UNL     1      34.446 -15.817 -22.610  0.00  0.00    -0.307 N 
ATOM     30  C   UNL     1      34.080 -13.089 -23.476  0.00  0.00    +0.004 C 
ATOM     31  C   UNL     1      33.825 -13.505 -22.034  0.00  0.00    +0.021 C 
ATOM     32  C   UNL     1      33.821 -14.261 -24.416  0.00  0.00    +0.021 C 
ATOM     33  C   UNL     1      34.651 -14.731 -21.645  0.00  0.00    +0.091 C 
ATOM     34  C   UNL     1      34.653 -15.481 -24.026  0.00  0.00    +0.091 C 
ENDBRANCH  23  29
ENDBRANCH  22  26
ENDBRANCH  12  22
TORSDOF 4
ENDMDL
