MODEL 1
REMARK VINA RESULT:     -11.8      0.000      0.000
REMARK  Name = 24958200
REMARK  3 active torsions:
REMARK  status: ('A' for Active; 'I' for Inactive)
REMARK    1  A    between atoms: N_1  and  C_13
REMARK    2  A    between atoms: C_6  and  C_26
REMARK    3  A    between atoms: C_10  and  C_17
REMARK                            x       y       z     vdW  Elec       q    Type
REMARK                         _______ _______ _______ _____ _____    ______ ____
ROOT
ATOM      1  N   UNL     1      32.397 -22.864 -16.825  0.00  0.00    -0.189 N 
ATOM      2  N   UNL     1      31.053 -22.938 -16.884  0.00  0.00    -0.174 NA
ATOM      3  C   UNL     1      31.889 -23.944 -15.027  0.00  0.00    +0.036 C 
ATOM      4  C   UNL     1      32.955 -23.454 -15.728  0.00  0.00    +0.091 C 
ATOM      5  C   UNL     1      30.700 -23.608 -15.772  0.00  0.00    +0.105 C 
ATOM      6  C   UNL     1      29.429 -23.984 -15.299  0.00  0.00    +0.072 C 
ATOM      7  C   UNL     1      31.961 -24.633 -13.823  0.00  0.00    +0.003 C 
ATOM      8  C   UNL     1      29.468 -24.688 -14.075  0.00  0.00    +0.006 C 
ATOM      9  C   UNL     1      30.676 -24.996 -13.373  0.00  0.00    +0.000 C 
ENDROOT
BRANCH   1  13
ATOM     10  C   UNL     1      34.518 -20.943 -19.862  0.00  0.00    -0.024 C 
ATOM     11  C   UNL     1      33.133 -20.804 -19.782  0.00  0.00    -0.003 C 
ATOM     12  C   UNL     1      35.195 -21.725 -18.925  0.00  0.00    -0.003 C 
ATOM     13  C   UNL     1      33.100 -22.228 -17.832  0.00  0.00    +0.074 C 
ATOM     14  C   UNL     1      32.424 -21.446 -18.768  0.00  0.00    +0.016 C 
ATOM     15  C   UNL     1      34.486 -22.368 -17.910  0.00  0.00    +0.016 C 
BRANCH  10  17
ATOM     16  N   UNL     1      35.120 -18.850 -23.011  0.00  0.00    +0.384 N 
ATOM     17  C   UNL     1      35.291 -20.246 -20.967  0.00  0.00    +0.001 C 
ATOM     18  C   UNL     1      36.366 -19.303 -20.404  0.00  0.00    +0.000 C 
ATOM     19  C   UNL     1      34.360 -19.492 -21.936  0.00  0.00    -0.077 C 
ATOM     20  C   UNL     1      37.087 -18.582 -21.540  0.00  0.00    -0.023 C 
ATOM     21  C   UNL     1      36.098 -17.900 -22.482  0.00  0.00    -0.082 C 
ATOM     22  H   UNL     1      34.473 -18.353 -23.623  0.00  0.00    -0.085 HD
ATOM     23  H   UNL     1      35.622 -19.574 -23.525  0.00  0.00    -0.085 HD
ENDBRANCH  10  17
ENDBRANCH   1  13
BRANCH   6  26
ATOM     24  O   UNL     1      27.826 -24.336 -16.987  0.00  0.00    -0.270 OA
ATOM     25  N   UNL     1      27.412 -22.634 -15.509  0.00  0.00    -0.325 N 
ATOM     26  C   UNL     1      28.197 -23.680 -15.994  0.00  0.00    +0.244 C 
ATOM     27  H   UNL     1      26.567 -22.402 -15.959  0.00  0.00    +0.145 HD
ATOM     28  H   UNL     1      27.702 -22.127 -14.716  0.00  0.00    +0.145 HD
ENDBRANCH   6  26
TORSDOF 3
ENDMDL
MODEL 2
REMARK VINA RESULT:     -11.3      2.226      3.134
REMARK  Name = 24958200
REMARK  3 active torsions:
REMARK  status: ('A' for Active; 'I' for Inactive)
REMARK    1  A    between atoms: N_1  and  C_13
REMARK    2  A    between atoms: C_6  and  C_26
REMARK    3  A    between atoms: C_10  and  C_17
REMARK                            x       y       z     vdW  Elec       q    Type
REMARK                         _______ _______ _______ _____ _____    ______ ____
ROOT
ATOM      1  N   UNL     1      32.871 -22.917 -16.651  0.00  0.00    -0.189 N 
ATOM      2  N   UNL     1      33.619 -23.297 -15.597  0.00  0.00    -0.174 NA
ATOM      3  C   UNL     1      31.432 -23.860 -15.347  0.00  0.00    +0.036 C 
ATOM      4  C   UNL     1      31.546 -23.230 -16.555  0.00  0.00    +0.091 C 
ATOM      5  C   UNL     1      32.750 -23.891 -14.760  0.00  0.00    +0.105 C 
ATOM      6  C   UNL     1      32.957 -24.482 -13.500  0.00  0.00    +0.072 C 
ATOM      7  C   UNL     1      30.258 -24.367 -14.807  0.00  0.00    +0.003 C 
ATOM      8  C   UNL     1      31.781 -25.008 -12.922  0.00  0.00    +0.006 C 
ATOM      9  C   UNL     1      30.495 -24.952 -13.547  0.00  0.00    +0.000 C 
ENDROOT
BRANCH   1  13
ATOM     10  C   UNL     1      34.647 -20.940 -19.868  0.00  0.00    -0.024 C 
ATOM     11  C   UNL     1      33.262 -20.908 -19.708  0.00  0.00    -0.003 C 
ATOM     12  C   UNL     1      35.439 -21.633 -18.951  0.00  0.00    -0.003 C 
ATOM     13  C   UNL     1      33.459 -22.262 -17.717  0.00  0.00    +0.074 C 
ATOM     14  C   UNL     1      32.668 -21.569 -18.633  0.00  0.00    +0.016 C 
ATOM     15  C   UNL     1      34.845 -22.294 -17.877  0.00  0.00    +0.016 C 
BRANCH  10  17
ATOM     16  N   UNL     1      34.893 -18.862 -23.075  0.00  0.00    +0.384 N 
ATOM     17  C   UNL     1      35.294 -20.222 -21.038  0.00  0.00    +0.001 C 
ATOM     18  C   UNL     1      36.364 -19.221 -20.573  0.00  0.00    +0.000 C 
ATOM     19  C   UNL     1      34.253 -19.525 -21.936  0.00  0.00    -0.077 C 
ATOM     20  C   UNL     1      36.957 -18.483 -21.771  0.00  0.00    -0.023 C 
ATOM     21  C   UNL     1      35.864 -17.861 -22.636  0.00  0.00    -0.082 C 
ATOM     22  H   UNL     1      34.175 -18.405 -23.638  0.00  0.00    -0.085 HD
ATOM     23  H   UNL     1      35.386 -19.569 -23.621  0.00  0.00    -0.085 HD
ENDBRANCH  10  17
ENDBRANCH   1  13
BRANCH   6  26
ATOM     24  O   UNL     1      34.426 -24.119 -11.695  0.00  0.00    -0.270 OA
ATOM     25  N   UNL     1      35.305 -25.130 -13.555  0.00  0.00    -0.325 N 
ATOM     26  C   UNL     1      34.249 -24.549 -12.852  0.00  0.00    +0.244 C 
ATOM     27  H   UNL     1      36.197 -25.192 -13.143  0.00  0.00    +0.145 HD
ATOM     28  H   UNL     1      35.158 -25.480 -14.464  0.00  0.00    +0.145 HD
ENDBRANCH   6  26
TORSDOF 3
ENDMDL
MODEL 3
REMARK VINA RESULT:     -10.8      2.661      3.827
REMARK  Name = 24958200
REMARK  3 active torsions:
REMARK  status: ('A' for Active; 'I' for Inactive)
REMARK    1  A    between atoms: N_1  and  C_13
REMARK    2  A    between atoms: C_6  and  C_26
REMARK    3  A    between atoms: C_10  and  C_17
REMARK                            x       y       z     vdW  Elec       q    Type
REMARK                         _______ _______ _______ _____ _____    ______ ____
ROOT
ATOM      1  N   UNL     1      33.600 -22.446 -17.413  0.00  0.00    -0.189 N 
ATOM      2  N   UNL     1      34.559 -23.010 -16.653  0.00  0.00    -0.174 NA
ATOM      3  C   UNL     1      32.472 -23.434 -15.860  0.00  0.00    +0.036 C 
ATOM      4  C   UNL     1      32.324 -22.668 -16.983  0.00  0.00    +0.091 C 
ATOM      5  C   UNL     1      33.888 -23.638 -15.670  0.00  0.00    +0.105 C 
ATOM      6  C   UNL     1      34.362 -24.396 -14.584  0.00  0.00    +0.072 C 
ATOM      7  C   UNL     1      31.439 -23.916 -15.067  0.00  0.00    +0.003 C 
ATOM      8  C   UNL     1      33.335 -24.900 -13.756  0.00  0.00    +0.006 C 
ATOM      9  C   UNL     1      31.942 -24.670 -13.989  0.00  0.00    +0.000 C 
ENDROOT
BRANCH   1  13
ATOM     10  C   UNL     1      34.647 -20.222 -20.785  0.00  0.00    -0.024 C 
ATOM     11  C   UNL     1      35.640 -20.801 -19.995  0.00  0.00    -0.003 C 
ATOM     12  C   UNL     1      33.302 -20.388 -20.448  0.00  0.00    -0.003 C 
ATOM     13  C   UNL     1      33.947 -21.709 -18.530  0.00  0.00    +0.074 C 
ATOM     14  C   UNL     1      35.290 -21.544 -18.868  0.00  0.00    +0.016 C 
ATOM     15  C   UNL     1      32.953 -21.131 -19.321  0.00  0.00    +0.016 C 
BRANCH  10  17
ATOM     16  N   UNL     1      34.327 -18.687 -24.279  0.00  0.00    +0.384 N 
ATOM     17  C   UNL     1      35.027 -19.412 -22.011  0.00  0.00    +0.001 C 
ATOM     18  C   UNL     1      35.381 -17.961 -21.649  0.00  0.00    +0.000 C 
ATOM     19  C   UNL     1      33.930 -19.450 -23.092  0.00  0.00    -0.077 C 
ATOM     20  C   UNL     1      35.708 -17.163 -22.909  0.00  0.00    -0.023 C 
ATOM     21  C   UNL     1      34.598 -17.288 -23.949  0.00  0.00    -0.082 C 
ATOM     22  H   UNL     1      33.573 -18.726 -24.965  0.00  0.00    -0.085 HD
ATOM     23  H   UNL     1      35.181 -19.100 -24.654  0.00  0.00    -0.085 HD
ENDBRANCH  10  17
ENDBRANCH   1  13
BRANCH   6  26
ATOM     24  O   UNL     1      36.431 -25.424 -15.039  0.00  0.00    -0.270 OA
ATOM     25  N   UNL     1      36.372 -23.957 -13.278  0.00  0.00    -0.325 N 
ATOM     26  C   UNL     1      35.766 -24.641 -14.333  0.00  0.00    +0.244 C 
ATOM     27  H   UNL     1      37.326 -24.101 -13.081  0.00  0.00    +0.145 HD
ATOM     28  H   UNL     1      35.846 -23.330 -12.731  0.00  0.00    +0.145 HD
ENDBRANCH   6  26
TORSDOF 3
ENDMDL
MODEL 4
REMARK VINA RESULT:     -10.7      4.387      5.462
REMARK  Name = 24958200
REMARK  3 active torsions:
REMARK  status: ('A' for Active; 'I' for Inactive)
REMARK    1  A    between atoms: N_1  and  C_13
REMARK    2  A    between atoms: C_6  and  C_26
REMARK    3  A    between atoms: C_10  and  C_17
REMARK                            x       y       z     vdW  Elec       q    Type
REMARK                         _______ _______ _______ _____ _____    ______ ____
ROOT
ATOM      1  N   UNL     1      35.873 -23.136 -15.545  0.00  0.00    -0.189 N 
ATOM      2  N   UNL     1      36.823 -24.058 -15.295  0.00  0.00    -0.174 NA
ATOM      3  C   UNL     1      35.417 -23.773 -13.534  0.00  0.00    +0.036 C 
ATOM      4  C   UNL     1      34.999 -22.923 -14.519  0.00  0.00    +0.091 C 
ATOM      5  C   UNL     1      36.568 -24.479 -14.043  0.00  0.00    +0.105 C 
ATOM      6  C   UNL     1      37.229 -25.435 -13.251  0.00  0.00    +0.072 C 
ATOM      7  C   UNL     1      34.829 -23.915 -12.284  0.00  0.00    +0.003 C 
ATOM      8  C   UNL     1      36.655 -25.602 -11.971  0.00  0.00    +0.006 C 
ATOM      9  C   UNL     1      35.510 -24.876 -11.512  0.00  0.00    +0.000 C 
ENDROOT
BRANCH   1  13
ATOM     10  C   UNL     1      35.778 -21.179 -19.229  0.00  0.00    -0.024 C 
ATOM     11  C   UNL     1      34.654 -21.871 -18.777  0.00  0.00    -0.003 C 
ATOM     12  C   UNL     1      36.934 -21.141 -18.449  0.00  0.00    -0.003 C 
ATOM     13  C   UNL     1      35.842 -22.488 -16.766  0.00  0.00    +0.074 C 
ATOM     14  C   UNL     1      34.686 -22.525 -17.546  0.00  0.00    +0.016 C 
ATOM     15  C   UNL     1      36.966 -21.795 -17.217  0.00  0.00    +0.016 C 
BRANCH  10  17
ATOM     16  N   UNL     1      34.303 -19.362 -22.260  0.00  0.00    +0.384 N 
ATOM     17  C   UNL     1      35.744 -20.468 -20.570  0.00  0.00    +0.001 C 
ATOM     18  C   UNL     1      36.716 -19.278 -20.609  0.00  0.00    +0.000 C 
ATOM     19  C   UNL     1      34.320 -20.020 -20.951  0.00  0.00    -0.077 C 
ATOM     20  C   UNL     1      36.619 -18.558 -21.952  0.00  0.00    -0.023 C 
ATOM     21  C   UNL     1      35.175 -18.188 -22.281  0.00  0.00    -0.082 C 
ATOM     22  H   UNL     1      33.349 -19.070 -22.471  0.00  0.00    -0.085 HD
ATOM     23  H   UNL     1      34.642 -20.026 -22.957  0.00  0.00    -0.085 HD
ENDBRANCH  10  17
ENDBRANCH   1  13
BRANCH   6  26
ATOM     24  O   UNL     1      39.375 -26.360 -12.958  0.00  0.00    -0.270 OA
ATOM     25  N   UNL     1      38.365 -26.714 -14.985  0.00  0.00    -0.325 N 
ATOM     26  C   UNL     1      38.387 -26.180 -13.697  0.00  0.00    +0.244 C 
ATOM     27  H   UNL     1      39.137 -27.226 -15.320  0.00  0.00    +0.145 HD
ATOM     28  H   UNL     1      37.578 -26.579 -15.561  0.00  0.00    +0.145 HD
ENDBRANCH   6  26
TORSDOF 3
ENDMDL
MODEL 5
REMARK VINA RESULT:     -10.4      2.827      3.852
REMARK  Name = 24958200
REMARK  3 active torsions:
REMARK  status: ('A' for Active; 'I' for Inactive)
REMARK    1  A    between atoms: N_1  and  C_13
REMARK    2  A    between atoms: C_6  and  C_26
REMARK    3  A    between atoms: C_10  and  C_17
REMARK                            x       y       z     vdW  Elec       q    Type
REMARK                         _______ _______ _______ _____ _____    ______ ____
ROOT
ATOM      1  N   UNL     1      35.753 -22.882 -15.830  0.00  0.00    -0.189 N 
ATOM      2  N   UNL     1      34.595 -23.131 -15.188  0.00  0.00    -0.174 NA
ATOM      3  C   UNL     1      36.401 -23.851 -14.013  0.00  0.00    +0.036 C 
ATOM      4  C   UNL     1      36.873 -23.295 -15.169  0.00  0.00    +0.091 C 
ATOM      5  C   UNL     1      34.962 -23.738 -14.045  0.00  0.00    +0.105 C 
ATOM      6  C   UNL     1      34.182 -24.228 -12.981  0.00  0.00    +0.072 C 
ATOM      7  C   UNL     1      37.178 -24.414 -13.009  0.00  0.00    +0.003 C 
ATOM      8  C   UNL     1      34.944 -24.807 -11.943  0.00  0.00    +0.006 C 
ATOM      9  C   UNL     1      36.372 -24.895 -11.958  0.00  0.00    +0.000 C 
ENDROOT
BRANCH   1  13
ATOM     10  C   UNL     1      35.715 -20.993 -19.550  0.00  0.00    -0.024 C 
ATOM     11  C   UNL     1      36.876 -20.988 -18.776  0.00  0.00    -0.003 C 
ATOM     12  C   UNL     1      34.566 -21.631 -19.080  0.00  0.00    -0.003 C 
ATOM     13  C   UNL     1      35.740 -22.256 -17.062  0.00  0.00    +0.074 C 
ATOM     14  C   UNL     1      36.888 -21.619 -17.533  0.00  0.00    +0.016 C 
ATOM     15  C   UNL     1      34.579 -22.262 -17.836  0.00  0.00    +0.016 C 
BRANCH  10  17
ATOM     16  N   UNL     1      34.277 -19.283 -22.660  0.00  0.00    +0.384 N 
ATOM     17  C   UNL     1      35.701 -20.304 -20.903  0.00  0.00    +0.001 C 
ATOM     18  C   UNL     1      36.625 -19.076 -20.928  0.00  0.00    +0.000 C 
ATOM     19  C   UNL     1      34.275 -19.920 -21.341  0.00  0.00    -0.077 C 
ATOM     20  C   UNL     1      36.547 -18.381 -22.285  0.00  0.00    -0.023 C 
ATOM     21  C   UNL     1      35.102 -18.075 -22.670  0.00  0.00    -0.082 C 
ATOM     22  H   UNL     1      33.320 -19.034 -22.909  0.00  0.00    -0.085 HD
ATOM     23  H   UNL     1      34.668 -19.943 -23.333  0.00  0.00    -0.085 HD
ENDBRANCH  10  17
ENDBRANCH   1  13
BRANCH   6  26
ATOM     24  O   UNL     1      32.035 -25.123 -12.618  0.00  0.00    -0.270 OA
ATOM     25  N   UNL     1      32.142 -22.931 -13.278  0.00  0.00    -0.325 N 
ATOM     26  C   UNL     1      32.738 -24.147 -12.947  0.00  0.00    +0.244 C 
ATOM     27  H   UNL     1      31.161 -22.842 -13.265  0.00  0.00    +0.145 HD
ATOM     28  H   UNL     1      32.701 -22.159 -13.525  0.00  0.00    +0.145 HD
ENDBRANCH   6  26
TORSDOF 3
ENDMDL
MODEL 6
REMARK VINA RESULT:     -10.2      7.769     11.014
REMARK  Name = 24958200
REMARK  3 active torsions:
REMARK  status: ('A' for Active; 'I' for Inactive)
REMARK    1  A    between atoms: N_1  and  C_13
REMARK    2  A    between atoms: C_6  and  C_26
REMARK    3  A    between atoms: C_10  and  C_17
REMARK                            x       y       z     vdW  Elec       q    Type
REMARK                         _______ _______ _______ _____ _____    ______ ____
ROOT
ATOM      1  N   UNL     1      34.187 -15.461 -23.703  0.00  0.00    -0.189 N 
ATOM      2  N   UNL     1      34.974 -16.004 -22.754  0.00  0.00    -0.174 NA
ATOM      3  C   UNL     1      34.096 -17.571 -24.144  0.00  0.00    +0.036 C 
ATOM      4  C   UNL     1      33.632 -16.358 -24.568  0.00  0.00    +0.091 C 
ATOM      5  C   UNL     1      34.940 -17.326 -23.000  0.00  0.00    +0.105 C 
ATOM      6  C   UNL     1      35.571 -18.394 -22.334  0.00  0.00    +0.072 C 
ATOM      7  C   UNL     1      33.798 -18.798 -24.722  0.00  0.00    +0.003 C 
ATOM      8  C   UNL     1      35.287 -19.657 -22.899  0.00  0.00    +0.006 C 
ATOM      9  C   UNL     1      34.442 -19.848 -24.037  0.00  0.00    +0.000 C 
ENDROOT
BRANCH   1  13
ATOM     10  C   UNL     1      33.612 -11.330 -23.824  0.00  0.00    -0.024 C 
ATOM     11  C   UNL     1      33.886 -11.961 -22.611  0.00  0.00    -0.003 C 
ATOM     12  C   UNL     1      33.530 -12.080 -24.998  0.00  0.00    -0.003 C 
ATOM     13  C   UNL     1      33.996 -14.092 -23.743  0.00  0.00    +0.074 C 
ATOM     14  C   UNL     1      34.078 -13.341 -22.570  0.00  0.00    +0.016 C 
ATOM     15  C   UNL     1      33.722 -13.461 -24.957  0.00  0.00    +0.016 C 
BRANCH  10  17
ATOM     16  N   UNL     1      32.217  -7.899 -22.850  0.00  0.00    +0.384 N 
ATOM     17  C   UNL     1      33.401  -9.827 -23.869  0.00  0.00    +0.001 C 
ATOM     18  C   UNL     1      34.732  -9.062 -23.788  0.00  0.00    +0.000 C 
ATOM     19  C   UNL     1      32.431  -9.346 -22.773  0.00  0.00    -0.077 C 
ATOM     20  C   UNL     1      34.479  -7.556 -23.785  0.00  0.00    -0.023 C 
ATOM     21  C   UNL     1      33.474  -7.164 -22.705  0.00  0.00    -0.082 C 
ATOM     22  H   UNL     1      31.580  -7.618 -22.104  0.00  0.00    -0.085 HD
ATOM     23  H   UNL     1      31.822  -7.682 -23.765  0.00  0.00    -0.085 HD
ENDBRANCH  10  17
ENDBRANCH   1  13
BRANCH   6  26
ATOM     24  O   UNL     1      36.007 -17.727 -20.118  0.00  0.00    -0.270 OA
ATOM     25  N   UNL     1      37.755 -18.642 -21.285  0.00  0.00    -0.325 N 
ATOM     26  C   UNL     1      36.429 -18.221 -21.183  0.00  0.00    +0.244 C 
ATOM     27  H   UNL     1      38.366 -18.539 -20.519  0.00  0.00    +0.145 HD
ATOM     28  H   UNL     1      38.081 -19.043 -22.123  0.00  0.00    +0.145 HD
ENDBRANCH   6  26
TORSDOF 3
ENDMDL
MODEL 7
REMARK VINA RESULT:     -10.0      4.292      8.853
REMARK  Name = 24958200
REMARK  3 active torsions:
REMARK  status: ('A' for Active; 'I' for Inactive)
REMARK    1  A    between atoms: N_1  and  C_13
REMARK    2  A    between atoms: C_6  and  C_26
REMARK    3  A    between atoms: C_10  and  C_17
REMARK                            x       y       z     vdW  Elec       q    Type
REMARK                         _______ _______ _______ _____ _____    ______ ____
ROOT
ATOM      1  N   UNL     1      35.067 -21.644 -18.317  0.00  0.00    -0.189 N 
ATOM      2  N   UNL     1      36.044 -20.864 -18.820  0.00  0.00    -0.174 NA
ATOM      3  C   UNL     1      34.138 -20.755 -20.051  0.00  0.00    +0.036 C 
ATOM      4  C   UNL     1      33.897 -21.618 -19.019  0.00  0.00    +0.091 C 
ATOM      5  C   UNL     1      35.497 -20.291 -19.907  0.00  0.00    +0.105 C 
ATOM      6  C   UNL     1      36.044 -19.381 -20.830  0.00  0.00    +0.072 C 
ATOM      7  C   UNL     1      33.230 -20.404 -21.041  0.00  0.00    +0.003 C 
ATOM      8  C   UNL     1      35.144 -19.005 -21.852  0.00  0.00    +0.006 C 
ATOM      9  C   UNL     1      33.803 -19.494 -21.951  0.00  0.00    +0.000 C 
ENDROOT
BRANCH   1  13
ATOM     10  C   UNL     1      35.756 -23.898 -14.874  0.00  0.00    -0.024 C 
ATOM     11  C   UNL     1      36.786 -23.139 -15.429  0.00  0.00    -0.003 C 
ATOM     12  C   UNL     1      34.494 -23.902 -15.470  0.00  0.00    -0.003 C 
ATOM     13  C   UNL     1      35.295 -22.391 -17.177  0.00  0.00    +0.074 C 
ATOM     14  C   UNL     1      36.556 -22.386 -16.580  0.00  0.00    +0.016 C 
ATOM     15  C   UNL     1      34.264 -23.149 -16.621  0.00  0.00    +0.016 C 
BRANCH  10  17
ATOM     16  N   UNL     1      36.987 -26.808 -12.711  0.00  0.00    +0.384 N 
ATOM     17  C   UNL     1      36.006 -24.719 -13.622  0.00  0.00    +0.001 C 
ATOM     18  C   UNL     1      36.725 -23.901 -12.537  0.00  0.00    +0.000 C 
ATOM     19  C   UNL     1      36.780 -26.016 -13.926  0.00  0.00    -0.077 C 
ATOM     20  C   UNL     1      37.005 -24.770 -11.314  0.00  0.00    -0.023 C 
ATOM     21  C   UNL     1      37.731 -26.056 -11.701  0.00  0.00    -0.082 C 
ATOM     22  H   UNL     1      37.510 -27.650 -12.951  0.00  0.00    -0.085 HD
ATOM     23  H   UNL     1      36.073 -27.047 -12.325  0.00  0.00    -0.085 HD
ENDBRANCH  10  17
ENDBRANCH   1  13
BRANCH   6  26
ATOM     24  O   UNL     1      38.082 -18.665 -21.767  0.00  0.00    -0.270 OA
ATOM     25  N   UNL     1      37.918 -18.605 -19.481  0.00  0.00    -0.325 N 
ATOM     26  C   UNL     1      37.396 -18.875 -20.747  0.00  0.00    +0.244 C 
ATOM     27  H   UNL     1      38.836 -18.259 -19.389  0.00  0.00    +0.145 HD
ATOM     28  H   UNL     1      37.368 -18.760 -18.679  0.00  0.00    +0.145 HD
ENDBRANCH   6  26
TORSDOF 3
ENDMDL
MODEL 8
REMARK VINA RESULT:     -10.0      8.153     12.584
REMARK  Name = 24958200
REMARK  3 active torsions:
REMARK  status: ('A' for Active; 'I' for Inactive)
REMARK    1  A    between atoms: N_1  and  C_13
REMARK    2  A    between atoms: C_6  and  C_26
REMARK    3  A    between atoms: C_10  and  C_17
REMARK                            x       y       z     vdW  Elec       q    Type
REMARK                         _______ _______ _______ _____ _____    ______ ____
ROOT
ATOM      1  N   UNL     1      33.091 -11.382 -23.019  0.00  0.00    -0.189 N 
ATOM      2  N   UNL     1      32.781 -10.928 -21.789  0.00  0.00    -0.174 NA
ATOM      3  C   UNL     1      32.529  -9.330 -23.384  0.00  0.00    +0.036 C 
ATOM      4  C   UNL     1      32.958 -10.463 -24.018  0.00  0.00    +0.091 C 
ATOM      5  C   UNL     1      32.424  -9.645 -21.980  0.00  0.00    +0.105 C 
ATOM      6  C   UNL     1      32.002  -8.670 -21.057  0.00  0.00    +0.072 C 
ATOM      7  C   UNL     1      32.252  -8.115 -23.996  0.00  0.00    +0.003 C 
ATOM      8  C   UNL     1      31.712  -7.421 -21.650  0.00  0.00    +0.006 C 
ATOM      9  C   UNL     1      31.832  -7.159 -23.051  0.00  0.00    +0.000 C 
ENDROOT
BRANCH   1  13
ATOM     10  C   UNL     1      34.350 -15.327 -23.534  0.00  0.00    -0.024 C 
ATOM     11  C   UNL     1      33.729 -14.650 -24.583  0.00  0.00    -0.003 C 
ATOM     12  C   UNL     1      34.551 -14.684 -22.311  0.00  0.00    -0.003 C 
ATOM     13  C   UNL     1      33.507 -12.689 -23.189  0.00  0.00    +0.074 C 
ATOM     14  C   UNL     1      33.308 -13.332 -24.411  0.00  0.00    +0.016 C 
ATOM     15  C   UNL     1      34.129 -13.366 -22.139  0.00  0.00    +0.016 C 
BRANCH  10  17
ATOM     16  N   UNL     1      35.844 -18.734 -22.628  0.00  0.00    +0.384 N 
ATOM     17  C   UNL     1      34.807 -16.762 -23.720  0.00  0.00    +0.001 C 
ATOM     18  C   UNL     1      33.683 -17.652 -24.275  0.00  0.00    +0.000 C 
ATOM     19  C   UNL     1      35.382 -17.359 -22.422  0.00  0.00    -0.077 C 
ATOM     20  C   UNL     1      34.162 -19.096 -24.402  0.00  0.00    -0.023 C 
ATOM     21  C   UNL     1      34.759 -19.600 -23.091  0.00  0.00    -0.082 C 
ATOM     22  H   UNL     1      36.206 -19.098 -21.746  0.00  0.00    -0.085 HD
ATOM     23  H   UNL     1      36.573 -18.724 -23.342  0.00  0.00    -0.085 HD
ENDBRANCH  10  17
ENDBRANCH   1  13
BRANCH   6  26
ATOM     24  O   UNL     1      32.082  -8.020 -18.795  0.00  0.00    -0.270 OA
ATOM     25  N   UNL     1      31.488 -10.192 -19.226  0.00  0.00    -0.325 N 
ATOM     26  C   UNL     1      31.873  -8.916 -19.637  0.00  0.00    +0.244 C 
ATOM     27  H   UNL     1      31.391 -10.393 -18.267  0.00  0.00    +0.145 HD
ATOM     28  H   UNL     1      31.311 -10.893 -19.895  0.00  0.00    +0.145 HD
ENDBRANCH   6  26
TORSDOF 3
ENDMDL
MODEL 9
REMARK VINA RESULT:      -9.9      2.739      4.336
REMARK  Name = 24958200
REMARK  3 active torsions:
REMARK  status: ('A' for Active; 'I' for Inactive)
REMARK    1  A    between atoms: N_1  and  C_13
REMARK    2  A    between atoms: C_6  and  C_26
REMARK    3  A    between atoms: C_10  and  C_17
REMARK                            x       y       z     vdW  Elec       q    Type
REMARK                         _______ _______ _______ _____ _____    ______ ____
ROOT
ATOM      1  N   UNL     1      36.009 -21.662 -17.876  0.00  0.00    -0.189 N 
ATOM      2  N   UNL     1      34.929 -22.201 -17.279  0.00  0.00    -0.174 NA
ATOM      3  C   UNL     1      36.853 -22.686 -16.173  0.00  0.00    +0.036 C 
ATOM      4  C   UNL     1      37.196 -21.922 -17.254  0.00  0.00    +0.091 C 
ATOM      5  C   UNL     1      35.420 -22.850 -16.207  0.00  0.00    +0.105 C 
ATOM      6  C   UNL     1      34.761 -23.598 -15.214  0.00  0.00    +0.072 C 
ATOM      7  C   UNL     1      37.736 -23.197 -15.231  0.00  0.00    +0.003 C 
ATOM      8  C   UNL     1      35.633 -24.132 -14.240  0.00  0.00    +0.006 C 
ATOM      9  C   UNL     1      37.051 -23.940 -14.250  0.00  0.00    +0.000 C 
ENDROOT
BRANCH   1  13
ATOM     10  C   UNL     1      35.565 -19.408 -21.359  0.00  0.00    -0.024 C 
ATOM     11  C   UNL     1      36.797 -19.449 -20.707  0.00  0.00    -0.003 C 
ATOM     12  C   UNL     1      34.480 -20.122 -20.847  0.00  0.00    -0.003 C 
ATOM     13  C   UNL     1      35.862 -20.915 -19.030  0.00  0.00    +0.074 C 
ATOM     14  C   UNL     1      36.946 -20.202 -19.543  0.00  0.00    +0.016 C 
ATOM     15  C   UNL     1      34.629 -20.875 -19.682  0.00  0.00    +0.016 C 
BRANCH  10  17
ATOM     16  N   UNL     1      34.045 -18.238 -24.674  0.00  0.00    +0.384 N 
ATOM     17  C   UNL     1      35.402 -18.588 -22.626  0.00  0.00    +0.001 C 
ATOM     18  C   UNL     1      35.350 -17.081 -22.326  0.00  0.00    +0.000 C 
ATOM     19  C   UNL     1      34.170 -19.022 -23.442  0.00  0.00    -0.077 C 
ATOM     20  C   UNL     1      35.136 -16.290 -23.615  0.00  0.00    -0.023 C 
ATOM     21  C   UNL     1      33.927 -16.809 -24.390  0.00  0.00    -0.082 C 
ATOM     22  H   UNL     1      33.215 -18.546 -25.180  0.00  0.00    -0.085 HD
ATOM     23  H   UNL     1      34.886 -18.386 -25.233  0.00  0.00    -0.085 HD
ENDBRANCH  10  17
ENDBRANCH   1  13
BRANCH   6  26
ATOM     24  O   UNL     1      32.747 -24.220 -14.166  0.00  0.00    -0.270 OA
ATOM     25  N   UNL     1      32.602 -23.500 -16.338  0.00  0.00    -0.325 N 
ATOM     26  C   UNL     1      33.329 -23.802 -15.186  0.00  0.00    +0.244 C 
ATOM     27  H   UNL     1      31.625 -23.628 -16.352  0.00  0.00    +0.145 HD
ATOM     28  H   UNL     1      33.065 -23.159 -17.137  0.00  0.00    +0.145 HD
ENDBRANCH   6  26
TORSDOF 3
ENDMDL
