MODEL 1
REMARK VINA RESULT:     -11.8      0.000      0.000
REMARK  Name = 10224181
REMARK  7 active torsions:
REMARK  status: ('A' for Active; 'I' for Inactive)
REMARK    1  A    between atoms: N_3  and  C_23
REMARK    2  A    between atoms: C_12  and  C_14
REMARK    3  A    between atoms: C_15  and  C_16
REMARK    4  A    between atoms: C_16  and  C_17
REMARK    5  A    between atoms: C_23  and  C_24
REMARK    6  A    between atoms: C_29  and  C_31
REMARK    7  A    between atoms: C_31  and  O_32
REMARK                            x       y       z     vdW  Elec       q    Type
REMARK                         _______ _______ _______ _____ _____    ______ ____
ROOT
ATOM      1  O   UNL     1      36.565 -22.859 -14.952  0.00  0.00    -0.267 OA
ATOM      2  O   UNL     1      34.205 -25.135 -11.659  0.00  0.00    -0.246 OA
ATOM      3  N   UNL     1      35.406 -24.005 -13.283  0.00  0.00    -0.244 N 
ATOM      4  N   UNL     1      33.065 -24.400 -13.537  0.00  0.00    -0.279 N 
ATOM      5  C   UNL     1      33.085 -23.731 -14.797  0.00  0.00    +0.069 A 
ATOM      6  C   UNL     1      34.281 -23.201 -15.285  0.00  0.00    +0.073 A 
ATOM      7  C   UNL     1      35.523 -23.332 -14.506  0.00  0.00    +0.266 A 
ATOM      8  C   UNL     1      34.218 -24.556 -12.751  0.00  0.00    +0.334 A 
ATOM      9  C   UNL     1      34.321 -22.539 -16.523  0.00  0.00    +0.014 C 
ATOM     10  C   UNL     1      31.926 -23.581 -15.579  0.00  0.00    +0.018 C 
ATOM     11  C   UNL     1      31.799 -24.945 -13.049  0.00  0.00    +0.135 C 
ATOM     12  C   UNL     1      33.163 -22.401 -17.282  0.00  0.00    +0.042 C 
ATOM     13  C   UNL     1      31.966 -22.922 -16.810  0.00  0.00    +0.010 C 
ENDROOT
BRANCH  12  14
ATOM     14  C   UNL     1      33.206 -21.727 -18.541  0.00  0.00    -0.064 C 
ATOM     15  C   UNL     1      33.246 -21.156 -19.601  0.00  0.00    -0.082 C 
BRANCH  15  16
ATOM     16  C   UNL     1      33.295 -20.458 -20.891  0.00  0.00    +0.103 C 
BRANCH  16  17
ATOM     17  C   UNL     1      34.640 -19.824 -21.138  0.00  0.00    -0.009 C 
ATOM     18  C   UNL     1      35.670 -20.035 -20.233  0.00  0.00    -0.003 C 
ATOM     19  C   UNL     1      34.828 -19.042 -22.268  0.00  0.00    -0.003 C 
ATOM     20  C   UNL     1      36.915 -19.450 -20.462  0.00  0.00    -0.000 C 
ATOM     21  C   UNL     1      36.073 -18.456 -22.496  0.00  0.00    -0.000 C 
ATOM     22  C   UNL     1      37.116 -18.659 -21.594  0.00  0.00    -0.000 C 
ENDBRANCH  16  17
ENDBRANCH  15  16
ENDBRANCH  12  14
BRANCH   3  23
ATOM     23  C   UNL     1      36.621 -24.151 -12.486  0.00  0.00    +0.140 C 
BRANCH  23  24
ATOM     24  C   UNL     1      37.646 -25.008 -13.178  0.00  0.00    +0.001 C 
ATOM     25  C   UNL     1      37.227 -26.062 -13.979  0.00  0.00    -0.002 C 
ATOM     26  C   UNL     1      38.996 -24.732 -13.009  0.00  0.00    -0.002 C 
ATOM     27  C   UNL     1      38.177 -26.856 -14.621  0.00  0.00    +0.006 C 
ATOM     28  C   UNL     1      39.946 -25.526 -13.651  0.00  0.00    +0.006 C 
ATOM     29  C   UNL     1      39.536 -26.589 -14.457  0.00  0.00    +0.075 C 
BRANCH  29  31
ATOM     30  O   UNL     1      41.376 -28.114 -14.563  0.00  0.00    -0.245 OA
ATOM     31  C   UNL     1      40.527 -27.417 -15.127  0.00  0.00    +0.338 C 
BRANCH  31  32
ATOM     32  O   UNL     1      40.431 -27.350 -16.483  0.00  0.00    -0.477 OA
ATOM     33  H   UNL     1      40.956 -26.737 -16.960  0.00  0.00    +0.295 HD
ENDBRANCH  31  32
ENDBRANCH  29  31
ENDBRANCH  23  24
ENDBRANCH   3  23
TORSDOF 7
ENDMDL
MODEL 2
REMARK VINA RESULT:     -11.7      1.243      2.357
REMARK  Name = 10224181
REMARK  7 active torsions:
REMARK  status: ('A' for Active; 'I' for Inactive)
REMARK    1  A    between atoms: N_3  and  C_23
REMARK    2  A    between atoms: C_12  and  C_14
REMARK    3  A    between atoms: C_15  and  C_16
REMARK    4  A    between atoms: C_16  and  C_17
REMARK    5  A    between atoms: C_23  and  C_24
REMARK    6  A    between atoms: C_29  and  C_31
REMARK    7  A    between atoms: C_31  and  O_32
REMARK                            x       y       z     vdW  Elec       q    Type
REMARK                         _______ _______ _______ _____ _____    ______ ____
ROOT
ATOM      1  O   UNL     1      36.694 -22.945 -15.312  0.00  0.00    -0.267 OA
ATOM      2  O   UNL     1      32.816 -24.878 -13.630  0.00  0.00    -0.246 OA
ATOM      3  N   UNL     1      34.763 -23.926 -14.444  0.00  0.00    -0.244 N 
ATOM      4  N   UNL     1      32.709 -23.744 -15.647  0.00  0.00    -0.279 N 
ATOM      5  C   UNL     1      33.368 -22.994 -16.666  0.00  0.00    +0.069 A 
ATOM      6  C   UNL     1      34.732 -22.718 -16.556  0.00  0.00    +0.073 A 
ATOM      7  C   UNL     1      35.494 -23.199 -15.392  0.00  0.00    +0.266 A 
ATOM      8  C   UNL     1      33.384 -24.228 -14.515  0.00  0.00    +0.334 A 
ATOM      9  C   UNL     1      35.399 -21.982 -17.549  0.00  0.00    +0.014 C 
ATOM     10  C   UNL     1      32.684 -22.514 -17.798  0.00  0.00    +0.018 C 
ATOM     11  C   UNL     1      31.279 -24.018 -15.788  0.00  0.00    +0.135 C 
ATOM     12  C   UNL     1      34.705 -21.515 -18.661  0.00  0.00    +0.042 C 
ATOM     13  C   UNL     1      33.348 -21.782 -18.786  0.00  0.00    +0.010 C 
ENDROOT
BRANCH  12  14
ATOM     14  C   UNL     1      35.386 -20.767 -19.670  0.00  0.00    -0.064 C 
ATOM     15  C   UNL     1      35.963 -20.136 -20.519  0.00  0.00    -0.082 C 
BRANCH  15  16
ATOM     16  C   UNL     1      36.669 -19.368 -21.550  0.00  0.00    +0.103 C 
BRANCH  16  17
ATOM     17  C   UNL     1      35.716 -18.721 -22.522  0.00  0.00    -0.009 C 
ATOM     18  C   UNL     1      34.885 -19.517 -23.297  0.00  0.00    -0.003 C 
ATOM     19  C   UNL     1      35.683 -17.338 -22.625  0.00  0.00    -0.003 C 
ATOM     20  C   UNL     1      34.003 -18.917 -24.194  0.00  0.00    -0.000 C 
ATOM     21  C   UNL     1      34.801 -16.738 -23.524  0.00  0.00    -0.000 C 
ATOM     22  C   UNL     1      33.961 -17.527 -24.308  0.00  0.00    -0.000 C 
ENDBRANCH  16  17
ENDBRANCH  15  16
ENDBRANCH  12  14
BRANCH   3  23
ATOM     23  C   UNL     1      35.491 -24.417 -13.277  0.00  0.00    +0.140 C 
BRANCH  23  24
ATOM     24  C   UNL     1      36.793 -25.066 -13.660  0.00  0.00    +0.001 C 
ATOM     25  C   UNL     1      37.980 -24.589 -13.119  0.00  0.00    -0.002 C 
ATOM     26  C   UNL     1      36.791 -26.132 -14.548  0.00  0.00    -0.002 C 
ATOM     27  C   UNL     1      39.187 -25.191 -13.474  0.00  0.00    +0.006 C 
ATOM     28  C   UNL     1      37.998 -26.734 -14.903  0.00  0.00    +0.006 C 
ATOM     29  C   UNL     1      39.196 -26.263 -14.367  0.00  0.00    +0.075 C 
BRANCH  29  31
ATOM     30  O   UNL     1      41.348 -27.222 -13.950  0.00  0.00    -0.245 OA
ATOM     31  C   UNL     1      40.455 -26.891 -14.737  0.00  0.00    +0.338 C 
BRANCH  31  32
ATOM     32  O   UNL     1      40.565 -27.087 -16.079  0.00  0.00    -0.477 OA
ATOM     33  H   UNL     1      41.375 -26.909 -16.514  0.00  0.00    +0.295 HD
ENDBRANCH  31  32
ENDBRANCH  29  31
ENDBRANCH  23  24
ENDBRANCH   3  23
TORSDOF 7
ENDMDL
MODEL 3
REMARK VINA RESULT:     -11.0      7.174     10.697
REMARK  Name = 10224181
REMARK  7 active torsions:
REMARK  status: ('A' for Active; 'I' for Inactive)
REMARK    1  A    between atoms: N_3  and  C_23
REMARK    2  A    between atoms: C_12  and  C_14
REMARK    3  A    between atoms: C_15  and  C_16
REMARK    4  A    between atoms: C_16  and  C_17
REMARK    5  A    between atoms: C_23  and  C_24
REMARK    6  A    between atoms: C_29  and  C_31
REMARK    7  A    between atoms: C_31  and  O_32
REMARK                            x       y       z     vdW  Elec       q    Type
REMARK                         _______ _______ _______ _____ _____    ______ ____
ROOT
ATOM      1  O   UNL     1      35.401 -16.452 -19.594  0.00  0.00    -0.267 OA
ATOM      2  O   UNL     1      36.015 -18.793 -23.562  0.00  0.00    -0.246 OA
ATOM      3  N   UNL     1      35.726 -17.648 -21.571  0.00  0.00    -0.244 N 
ATOM      4  N   UNL     1      34.764 -16.844 -23.603  0.00  0.00    -0.279 N 
ATOM      5  C   UNL     1      34.210 -15.730 -22.905  0.00  0.00    +0.069 A 
ATOM      6  C   UNL     1      34.425 -15.592 -21.532  0.00  0.00    +0.073 A 
ATOM      7  C   UNL     1      35.223 -16.591 -20.802  0.00  0.00    +0.266 A 
ATOM      8  C   UNL     1      35.533 -17.827 -22.960  0.00  0.00    +0.334 A 
ATOM      9  C   UNL     1      33.889 -14.502 -20.827  0.00  0.00    +0.014 C 
ATOM     10  C   UNL     1      33.441 -14.749 -23.557  0.00  0.00    +0.018 C 
ATOM     11  C   UNL     1      34.522 -16.965 -25.040  0.00  0.00    +0.135 C 
ATOM     12  C   UNL     1      33.131 -13.542 -21.490  0.00  0.00    +0.042 C 
ATOM     13  C   UNL     1      32.908 -13.666 -22.856  0.00  0.00    +0.010 C 
ENDROOT
BRANCH  12  14
ATOM     14  C   UNL     1      32.586 -12.435 -20.771  0.00  0.00    -0.064 C 
ATOM     15  C   UNL     1      32.127 -11.498 -20.167  0.00  0.00    -0.082 C 
BRANCH  15  16
ATOM     16  C   UNL     1      31.570 -10.356 -19.434  0.00  0.00    +0.103 C 
BRANCH  16  17
ATOM     17  C   UNL     1      31.917  -9.043 -20.089  0.00  0.00    -0.009 C 
ATOM     18  C   UNL     1      32.290  -7.965 -19.300  0.00  0.00    -0.003 C 
ATOM     19  C   UNL     1      31.859  -8.934 -21.470  0.00  0.00    -0.003 C 
ATOM     20  C   UNL     1      32.612  -6.751 -19.906  0.00  0.00    -0.000 C 
ATOM     21  C   UNL     1      32.181  -7.719 -22.076  0.00  0.00    -0.000 C 
ATOM     22  C   UNL     1      32.557  -6.628 -21.294  0.00  0.00    -0.000 C 
ENDBRANCH  16  17
ENDBRANCH  15  16
ENDBRANCH  12  14
BRANCH   3  23
ATOM     23  C   UNL     1      36.522 -18.656 -20.875  0.00  0.00    +0.140 C 
BRANCH  23  24
ATOM     24  C   UNL     1      35.661 -19.726 -20.262  0.00  0.00    +0.001 C 
ATOM     25  C   UNL     1      36.246 -20.701 -19.465  0.00  0.00    -0.002 C 
ATOM     26  C   UNL     1      34.294 -19.724 -20.501  0.00  0.00    -0.002 C 
ATOM     27  C   UNL     1      35.448 -21.694 -18.896  0.00  0.00    +0.006 C 
ATOM     28  C   UNL     1      33.496 -20.717 -19.932  0.00  0.00    +0.006 C 
ATOM     29  C   UNL     1      34.073 -21.702 -19.130  0.00  0.00    +0.075 C 
BRANCH  29  31
ATOM     30  O   UNL     1      32.238 -22.537 -17.841  0.00  0.00    -0.245 OA
ATOM     31  C   UNL     1      33.240 -22.736 -18.536  0.00  0.00    +0.338 C 
BRANCH  31  32
ATOM     32  O   UNL     1      33.682 -23.991 -18.826  0.00  0.00    -0.477 OA
ATOM     33  H   UNL     1      34.542 -24.114 -19.178  0.00  0.00    +0.295 HD
ENDBRANCH  31  32
ENDBRANCH  29  31
ENDBRANCH  23  24
ENDBRANCH   3  23
TORSDOF 7
ENDMDL
MODEL 4
REMARK VINA RESULT:     -10.9      3.141      6.671
REMARK  Name = 10224181
REMARK  7 active torsions:
REMARK  status: ('A' for Active; 'I' for Inactive)
REMARK    1  A    between atoms: N_3  and  C_23
REMARK    2  A    between atoms: C_12  and  C_14
REMARK    3  A    between atoms: C_15  and  C_16
REMARK    4  A    between atoms: C_16  and  C_17
REMARK    5  A    between atoms: C_23  and  C_24
REMARK    6  A    between atoms: C_29  and  C_31
REMARK    7  A    between atoms: C_31  and  O_32
REMARK                            x       y       z     vdW  Elec       q    Type
REMARK                         _______ _______ _______ _____ _____    ______ ____
ROOT
ATOM      1  O   UNL     1      32.342 -23.744 -16.760  0.00  0.00    -0.267 OA
ATOM      2  O   UNL     1      34.718 -24.513 -12.840  0.00  0.00    -0.246 OA
ATOM      3  N   UNL     1      33.511 -24.145 -14.781  0.00  0.00    -0.244 N 
ATOM      4  N   UNL     1      35.735 -23.310 -14.539  0.00  0.00    -0.279 N 
ATOM      5  C   UNL     1      35.668 -22.744 -15.846  0.00  0.00    +0.069 A 
ATOM      6  C   UNL     1      34.510 -22.889 -16.611  0.00  0.00    +0.073 A 
ATOM      7  C   UNL     1      33.354 -23.625 -16.072  0.00  0.00    +0.266 A 
ATOM      8  C   UNL     1      34.664 -24.021 -13.973  0.00  0.00    +0.334 A 
ATOM      9  C   UNL     1      34.424 -22.339 -17.900  0.00  0.00    +0.014 C 
ATOM     10  C   UNL     1      36.745 -22.032 -16.406  0.00  0.00    +0.018 C 
ATOM     11  C   UNL     1      36.961 -23.143 -13.760  0.00  0.00    +0.135 C 
ATOM     12  C   UNL     1      35.501 -21.638 -18.436  0.00  0.00    +0.042 C 
ATOM     13  C   UNL     1      36.661 -21.484 -17.688  0.00  0.00    +0.010 C 
ENDROOT
BRANCH  12  14
ATOM     14  C   UNL     1      35.412 -21.079 -19.747  0.00  0.00    -0.064 C 
ATOM     15  C   UNL     1      35.340 -20.605 -20.853  0.00  0.00    -0.082 C 
BRANCH  15  16
ATOM     16  C   UNL     1      35.256 -20.027 -22.198  0.00  0.00    +0.103 C 
BRANCH  16  17
ATOM     17  C   UNL     1      35.145 -18.524 -22.160  0.00  0.00    -0.009 C 
ATOM     18  C   UNL     1      34.934 -17.824 -23.339  0.00  0.00    -0.003 C 
ATOM     19  C   UNL     1      35.255 -17.863 -20.945  0.00  0.00    -0.003 C 
ATOM     20  C   UNL     1      34.830 -16.434 -23.302  0.00  0.00    -0.000 C 
ATOM     21  C   UNL     1      35.152 -16.473 -20.908  0.00  0.00    -0.000 C 
ATOM     22  C   UNL     1      34.940 -15.759 -22.087  0.00  0.00    -0.000 C 
ENDBRANCH  16  17
ENDBRANCH  15  16
ENDBRANCH  12  14
BRANCH   3  23
ATOM     23  C   UNL     1      32.381 -24.880 -14.218  0.00  0.00    +0.140 C 
BRANCH  23  24
ATOM     24  C   UNL     1      31.065 -24.242 -14.570  0.00  0.00    +0.001 C 
ATOM     25  C   UNL     1      30.121 -24.970 -15.282  0.00  0.00    -0.002 C 
ATOM     26  C   UNL     1      30.812 -22.935 -14.178  0.00  0.00    -0.002 C 
ATOM     27  C   UNL     1      28.901 -24.379 -15.609  0.00  0.00    +0.006 C 
ATOM     28  C   UNL     1      29.592 -22.343 -14.505  0.00  0.00    +0.006 C 
ATOM     29  C   UNL     1      28.636 -23.066 -15.220  0.00  0.00    +0.075 C 
BRANCH  29  31
ATOM     30  O   UNL     1      26.336 -22.505 -14.877  0.00  0.00    -0.245 OA
ATOM     31  C   UNL     1      27.363 -22.449 -15.560  0.00  0.00    +0.338 C 
BRANCH  31  32
ATOM     32  O   UNL     1      27.408 -21.779 -16.744  0.00  0.00    -0.477 OA
ATOM     33  H   UNL     1      27.191 -20.869 -16.776  0.00  0.00    +0.295 HD
ENDBRANCH  31  32
ENDBRANCH  29  31
ENDBRANCH  23  24
ENDBRANCH   3  23
TORSDOF 7
ENDMDL
MODEL 5
REMARK VINA RESULT:     -10.2     12.185     17.749
REMARK  Name = 10224181
REMARK  7 active torsions:
REMARK  status: ('A' for Active; 'I' for Inactive)
REMARK    1  A    between atoms: N_3  and  C_23
REMARK    2  A    between atoms: C_12  and  C_14
REMARK    3  A    between atoms: C_15  and  C_16
REMARK    4  A    between atoms: C_16  and  C_17
REMARK    5  A    between atoms: C_23  and  C_24
REMARK    6  A    between atoms: C_29  and  C_31
REMARK    7  A    between atoms: C_31  and  O_32
REMARK                            x       y       z     vdW  Elec       q    Type
REMARK                         _______ _______ _______ _____ _____    ______ ____
ROOT
ATOM      1  O   UNL     1      35.438  -9.182 -24.328  0.00  0.00    -0.267 OA
ATOM      2  O   UNL     1      33.100  -6.436 -21.397  0.00  0.00    -0.246 OA
ATOM      3  N   UNL     1      34.282  -7.780 -22.865  0.00  0.00    -0.244 N 
ATOM      4  N   UNL     1      32.522  -8.676 -21.523  0.00  0.00    -0.279 N 
ATOM      5  C   UNL     1      32.738  -9.965 -22.094  0.00  0.00    +0.069 A 
ATOM      6  C   UNL     1      33.735 -10.144 -23.054  0.00  0.00    +0.073 A 
ATOM      7  C   UNL     1      34.566  -9.005 -23.481  0.00  0.00    +0.266 A 
ATOM      8  C   UNL     1      33.284  -7.555 -21.890  0.00  0.00    +0.334 A 
ATOM      9  C   UNL     1      33.963 -11.405 -23.628  0.00  0.00    +0.014 C 
ATOM     10  C   UNL     1      31.971 -11.083 -21.719  0.00  0.00    +0.018 C 
ATOM     11  C   UNL     1      31.471  -8.517 -20.519  0.00  0.00    +0.135 C 
ATOM     12  C   UNL     1      33.193 -12.499 -23.245  0.00  0.00    +0.042 C 
ATOM     13  C   UNL     1      32.198 -12.338 -22.290  0.00  0.00    +0.010 C 
ENDROOT
BRANCH  12  14
ATOM     14  C   UNL     1      33.427 -13.781 -23.829  0.00  0.00    -0.064 C 
ATOM     15  C   UNL     1      33.625 -14.865 -24.319  0.00  0.00    -0.082 C 
BRANCH  15  16
ATOM     16  C   UNL     1      33.868 -16.184 -24.912  0.00  0.00    +0.103 C 
BRANCH  16  17
ATOM     17  C   UNL     1      34.416 -17.163 -23.904  0.00  0.00    -0.009 C 
ATOM     18  C   UNL     1      35.146 -16.692 -22.823  0.00  0.00    -0.003 C 
ATOM     19  C   UNL     1      34.181 -18.519 -24.074  0.00  0.00    -0.003 C 
ATOM     20  C   UNL     1      35.652 -17.597 -21.891  0.00  0.00    -0.000 C 
ATOM     21  C   UNL     1      34.687 -19.425 -23.142  0.00  0.00    -0.000 C 
ATOM     22  C   UNL     1      35.423 -18.964 -22.050  0.00  0.00    -0.000 C 
ENDBRANCH  16  17
ENDBRANCH  15  16
ENDBRANCH  12  14
BRANCH   3  23
ATOM     23  C   UNL     1      35.090  -6.631 -23.267  0.00  0.00    +0.140 C 
BRANCH  23  24
ATOM     24  C   UNL     1      34.473  -5.887 -24.420  0.00  0.00    +0.001 C 
ATOM     25  C   UNL     1      33.100  -5.686 -24.448  0.00  0.00    -0.002 C 
ATOM     26  C   UNL     1      35.286  -5.412 -25.440  0.00  0.00    -0.002 C 
ATOM     27  C   UNL     1      32.528  -4.996 -25.517  0.00  0.00    +0.006 C 
ATOM     28  C   UNL     1      34.714  -4.722 -26.509  0.00  0.00    +0.006 C 
ATOM     29  C   UNL     1      33.335  -4.514 -26.548  0.00  0.00    +0.075 C 
BRANCH  29  31
ATOM     30  O   UNL     1      31.824  -2.969 -27.574  0.00  0.00    -0.245 OA
ATOM     31  C   UNL     1      32.739  -3.794 -27.663  0.00  0.00    +0.338 C 
BRANCH  31  32
ATOM     32  O   UNL     1      33.302  -4.125 -28.857  0.00  0.00    -0.477 OA
ATOM     33  H   UNL     1      33.224  -5.000 -29.184  0.00  0.00    +0.295 HD
ENDBRANCH  31  32
ENDBRANCH  29  31
ENDBRANCH  23  24
ENDBRANCH   3  23
TORSDOF 7
ENDMDL
MODEL 6
REMARK VINA RESULT:     -10.1      4.872     10.850
REMARK  Name = 10224181
REMARK  7 active torsions:
REMARK  status: ('A' for Active; 'I' for Inactive)
REMARK    1  A    between atoms: N_3  and  C_23
REMARK    2  A    between atoms: C_12  and  C_14
REMARK    3  A    between atoms: C_15  and  C_16
REMARK    4  A    between atoms: C_16  and  C_17
REMARK    5  A    between atoms: C_23  and  C_24
REMARK    6  A    between atoms: C_29  and  C_31
REMARK    7  A    between atoms: C_31  and  O_32
REMARK                            x       y       z     vdW  Elec       q    Type
REMARK                         _______ _______ _______ _____ _____    ______ ____
ROOT
ATOM      1  O   UNL     1      37.601 -19.500 -20.394  0.00  0.00    -0.267 OA
ATOM      2  O   UNL     1      33.485 -19.145 -22.524  0.00  0.00    -0.246 OA
ATOM      3  N   UNL     1      35.547 -19.303 -21.484  0.00  0.00    -0.244 N 
ATOM      4  N   UNL     1      33.651 -20.482 -20.640  0.00  0.00    -0.279 N 
ATOM      5  C   UNL     1      34.449 -21.020 -19.587  0.00  0.00    +0.069 A 
ATOM      6  C   UNL     1      35.801 -20.687 -19.499  0.00  0.00    +0.073 A 
ATOM      7  C   UNL     1      36.408 -19.781 -20.488  0.00  0.00    +0.266 A 
ATOM      8  C   UNL     1      34.174 -19.614 -21.611  0.00  0.00    +0.334 A 
ATOM      9  C   UNL     1      36.604 -21.206 -18.469  0.00  0.00    +0.014 C 
ATOM     10  C   UNL     1      33.916 -21.889 -18.618  0.00  0.00    +0.018 C 
ATOM     11  C   UNL     1      32.236 -20.849 -20.709  0.00  0.00    +0.135 C 
ATOM     12  C   UNL     1      36.058 -22.065 -17.520  0.00  0.00    +0.042 C 
ATOM     13  C   UNL     1      34.714 -22.406 -17.594  0.00  0.00    +0.010 C 
ENDROOT
BRANCH  12  14
ATOM     14  C   UNL     1      36.876 -22.591 -16.474  0.00  0.00    -0.064 C 
ATOM     15  C   UNL     1      37.563 -23.037 -15.590  0.00  0.00    -0.082 C 
BRANCH  15  16
ATOM     16  C   UNL     1      38.397 -23.582 -14.513  0.00  0.00    +0.103 C 
BRANCH  16  17
ATOM     17  C   UNL     1      37.568 -24.079 -13.356  0.00  0.00    -0.009 C 
ATOM     18  C   UNL     1      37.931 -25.252 -12.711  0.00  0.00    -0.003 C 
ATOM     19  C   UNL     1      36.455 -23.356 -12.953  0.00  0.00    -0.003 C 
ATOM     20  C   UNL     1      37.165 -25.712 -11.640  0.00  0.00    -0.000 C 
ATOM     21  C   UNL     1      35.689 -23.815 -11.883  0.00  0.00    -0.000 C 
ATOM     22  C   UNL     1      36.043 -24.993 -11.226  0.00  0.00    -0.000 C 
ENDBRANCH  16  17
ENDBRANCH  15  16
ENDBRANCH  12  14
BRANCH   3  23
ATOM     23  C   UNL     1      36.119 -18.401 -22.480  0.00  0.00    +0.140 C 
BRANCH  23  24
ATOM     24  C   UNL     1      35.451 -17.053 -22.466  0.00  0.00    +0.001 C 
ATOM     25  C   UNL     1      35.064 -16.470 -23.666  0.00  0.00    -0.002 C 
ATOM     26  C   UNL     1      35.229 -16.412 -21.256  0.00  0.00    -0.002 C 
ATOM     27  C   UNL     1      34.444 -15.220 -23.653  0.00  0.00    +0.006 C 
ATOM     28  C   UNL     1      34.609 -15.163 -21.243  0.00  0.00    +0.006 C 
ATOM     29  C   UNL     1      34.217 -14.567 -22.442  0.00  0.00    +0.075 C 
BRANCH  29  31
ATOM     30  O   UNL     1      32.556 -12.975 -21.784  0.00  0.00    -0.245 OA
ATOM     31  C   UNL     1      33.570 -13.264 -22.428  0.00  0.00    +0.338 C 
BRANCH  31  32
ATOM     32  O   UNL     1      34.206 -12.358 -23.220  0.00  0.00    -0.477 OA
ATOM     33  H   UNL     1      35.141 -12.299 -23.205  0.00  0.00    +0.295 HD
ENDBRANCH  31  32
ENDBRANCH  29  31
ENDBRANCH  23  24
ENDBRANCH   3  23
TORSDOF 7
ENDMDL
MODEL 7
REMARK VINA RESULT:      -9.9      6.590     10.403
REMARK  Name = 10224181
REMARK  7 active torsions:
REMARK  status: ('A' for Active; 'I' for Inactive)
REMARK    1  A    between atoms: N_3  and  C_23
REMARK    2  A    between atoms: C_12  and  C_14
REMARK    3  A    between atoms: C_15  and  C_16
REMARK    4  A    between atoms: C_16  and  C_17
REMARK    5  A    between atoms: C_23  and  C_24
REMARK    6  A    between atoms: C_29  and  C_31
REMARK    7  A    between atoms: C_31  and  O_32
REMARK                            x       y       z     vdW  Elec       q    Type
REMARK                         _______ _______ _______ _____ _____    ______ ____
ROOT
ATOM      1  O   UNL     1      35.715 -16.130 -20.558  0.00  0.00    -0.267 OA
ATOM      2  O   UNL     1      35.574 -20.077 -23.009  0.00  0.00    -0.246 OA
ATOM      3  N   UNL     1      35.659 -18.126 -21.766  0.00  0.00    -0.244 N 
ATOM      4  N   UNL     1      34.597 -18.176 -23.904  0.00  0.00    -0.279 N 
ATOM      5  C   UNL     1      34.276 -16.792 -23.782  0.00  0.00    +0.069 A 
ATOM      6  C   UNL     1      34.656 -16.087 -22.638  0.00  0.00    +0.073 A 
ATOM      7  C   UNL     1      35.389 -16.767 -21.557  0.00  0.00    +0.266 A 
ATOM      8  C   UNL     1      35.294 -18.877 -22.906  0.00  0.00    +0.334 A 
ATOM      9  C   UNL     1      34.350 -14.723 -22.499  0.00  0.00    +0.014 C 
ATOM     10  C   UNL     1      33.578 -16.097 -24.786  0.00  0.00    +0.018 C 
ATOM     11  C   UNL     1      34.186 -18.891 -25.112  0.00  0.00    +0.135 C 
ATOM     12  C   UNL     1      33.659 -14.054 -23.504  0.00  0.00    +0.042 C 
ATOM     13  C   UNL     1      33.274 -14.741 -24.648  0.00  0.00    +0.010 C 
ENDROOT
BRANCH  12  14
ATOM     14  C   UNL     1      33.349 -12.667 -23.361  0.00  0.00    -0.064 C 
ATOM     15  C   UNL     1      33.087 -11.497 -23.244  0.00  0.00    -0.082 C 
BRANCH  15  16
ATOM     16  C   UNL     1      32.770 -10.071 -23.104  0.00  0.00    +0.103 C 
BRANCH  16  17
ATOM     17  C   UNL     1      32.389  -9.714 -21.690  0.00  0.00    -0.009 C 
ATOM     18  C   UNL     1      32.653  -8.439 -21.213  0.00  0.00    -0.003 C 
ATOM     19  C   UNL     1      31.778 -10.667 -20.887  0.00  0.00    -0.003 C 
ATOM     20  C   UNL     1      32.300  -8.109 -19.905  0.00  0.00    -0.000 C 
ATOM     21  C   UNL     1      31.426 -10.337 -19.579  0.00  0.00    -0.000 C 
ATOM     22  C   UNL     1      31.686  -9.058 -19.088  0.00  0.00    -0.000 C 
ENDBRANCH  16  17
ENDBRANCH  15  16
ENDBRANCH  12  14
BRANCH   3  23
ATOM     23  C   UNL     1      36.386 -18.828 -20.712  0.00  0.00    +0.140 C 
BRANCH  23  24
ATOM     24  C   UNL     1      35.552 -19.913 -20.084  0.00  0.00    +0.001 C 
ATOM     25  C   UNL     1      34.173 -19.894 -20.244  0.00  0.00    -0.002 C 
ATOM     26  C   UNL     1      36.174 -20.917 -19.354  0.00  0.00    -0.002 C 
ATOM     27  C   UNL     1      33.401 -20.900 -19.662  0.00  0.00    +0.006 C 
ATOM     28  C   UNL     1      35.401 -21.922 -18.773  0.00  0.00    +0.006 C 
ATOM     29  C   UNL     1      34.015 -21.913 -18.926  0.00  0.00    +0.075 C 
BRANCH  29  31
ATOM     30  O   UNL     1      33.497 -24.164 -18.301  0.00  0.00    -0.245 OA
ATOM     31  C   UNL     1      33.209 -22.962 -18.320  0.00  0.00    +0.338 C 
BRANCH  31  32
ATOM     32  O   UNL     1      32.068 -22.482 -17.756  0.00  0.00    -0.477 OA
ATOM     33  H   UNL     1      31.538 -21.867 -18.223  0.00  0.00    +0.295 HD
ENDBRANCH  31  32
ENDBRANCH  29  31
ENDBRANCH  23  24
ENDBRANCH   3  23
TORSDOF 7
ENDMDL
MODEL 8
REMARK VINA RESULT:      -9.6      2.611      4.327
REMARK  Name = 10224181
REMARK  7 active torsions:
REMARK  status: ('A' for Active; 'I' for Inactive)
REMARK    1  A    between atoms: N_3  and  C_23
REMARK    2  A    between atoms: C_12  and  C_14
REMARK    3  A    between atoms: C_15  and  C_16
REMARK    4  A    between atoms: C_16  and  C_17
REMARK    5  A    between atoms: C_23  and  C_24
REMARK    6  A    between atoms: C_29  and  C_31
REMARK    7  A    between atoms: C_31  and  O_32
REMARK                            x       y       z     vdW  Elec       q    Type
REMARK                         _______ _______ _______ _____ _____    ______ ____
ROOT
ATOM      1  O   UNL     1      37.820 -21.928 -17.545  0.00  0.00    -0.267 OA
ATOM      2  O   UNL     1      34.923 -24.367 -14.850  0.00  0.00    -0.246 OA
ATOM      3  N   UNL     1      36.389 -23.162 -16.175  0.00  0.00    -0.244 N 
ATOM      4  N   UNL     1      34.044 -23.164 -16.624  0.00  0.00    -0.279 N 
ATOM      5  C   UNL     1      34.253 -22.300 -17.739  0.00  0.00    +0.069 A 
ATOM      6  C   UNL     1      35.543 -21.874 -18.059  0.00  0.00    +0.073 A 
ATOM      7  C   UNL     1      36.691 -22.315 -17.249  0.00  0.00    +0.266 A 
ATOM      8  C   UNL     1      35.100 -23.617 -15.817  0.00  0.00    +0.334 A 
ATOM      9  C   UNL     1      35.770 -21.023 -19.153  0.00  0.00    +0.014 C 
ATOM     10  C   UNL     1      33.190 -21.851 -18.544  0.00  0.00    +0.018 C 
ATOM     11  C   UNL     1      32.682 -23.595 -16.311  0.00  0.00    +0.135 C 
ATOM     12  C   UNL     1      34.704 -20.590 -19.936  0.00  0.00    +0.042 C 
ATOM     13  C   UNL     1      33.414 -21.005 -19.632  0.00  0.00    +0.010 C 
ENDROOT
BRANCH  12  14
ATOM     14  C   UNL     1      34.936 -19.724 -21.049  0.00  0.00    -0.064 C 
ATOM     15  C   UNL     1      35.129 -18.993 -21.987  0.00  0.00    -0.082 C 
BRANCH  15  16
ATOM     16  C   UNL     1      35.359 -18.103 -23.130  0.00  0.00    +0.103 C 
BRANCH  16  17
ATOM     17  C   UNL     1      34.897 -16.696 -22.850  0.00  0.00    -0.009 C 
ATOM     18  C   UNL     1      34.995 -16.188 -21.563  0.00  0.00    -0.003 C 
ATOM     19  C   UNL     1      34.380 -15.929 -23.885  0.00  0.00    -0.003 C 
ATOM     20  C   UNL     1      34.569 -14.886 -21.305  0.00  0.00    -0.000 C 
ATOM     21  C   UNL     1      33.953 -14.627 -23.627  0.00  0.00    -0.000 C 
ATOM     22  C   UNL     1      34.047 -14.106 -22.337  0.00  0.00    -0.000 C 
ENDBRANCH  16  17
ENDBRANCH  15  16
ENDBRANCH  12  14
BRANCH   3  23
ATOM     23  C   UNL     1      37.507 -23.617 -15.353  0.00  0.00    +0.140 C 
BRANCH  23  24
ATOM     24  C   UNL     1      37.088 -23.883 -13.933  0.00  0.00    +0.001 C 
ATOM     25  C   UNL     1      37.047 -25.189 -13.465  0.00  0.00    -0.002 C 
ATOM     26  C   UNL     1      36.748 -22.818 -13.109  0.00  0.00    -0.002 C 
ATOM     27  C   UNL     1      36.658 -25.435 -12.148  0.00  0.00    +0.006 C 
ATOM     28  C   UNL     1      36.360 -23.064 -11.793  0.00  0.00    +0.006 C 
ATOM     29  C   UNL     1      36.314 -24.373 -11.312  0.00  0.00    +0.075 C 
BRANCH  29  31
ATOM     30  O   UNL     1      36.362 -24.058  -8.941  0.00  0.00    -0.245 OA
ATOM     31  C   UNL     1      35.910 -24.629  -9.938  0.00  0.00    +0.338 C 
BRANCH  31  32
ATOM     32  O   UNL     1      34.952 -25.592  -9.849  0.00  0.00    -0.477 OA
ATOM     33  H   UNL     1      35.152 -26.415  -9.448  0.00  0.00    +0.295 HD
ENDBRANCH  31  32
ENDBRANCH  29  31
ENDBRANCH  23  24
ENDBRANCH   3  23
TORSDOF 7
ENDMDL
MODEL 9
REMARK VINA RESULT:      -9.5     12.337     17.868
REMARK  Name = 10224181
REMARK  7 active torsions:
REMARK  status: ('A' for Active; 'I' for Inactive)
REMARK    1  A    between atoms: N_3  and  C_23
REMARK    2  A    between atoms: C_12  and  C_14
REMARK    3  A    between atoms: C_15  and  C_16
REMARK    4  A    between atoms: C_16  and  C_17
REMARK    5  A    between atoms: C_23  and  C_24
REMARK    6  A    between atoms: C_29  and  C_31
REMARK    7  A    between atoms: C_31  and  O_32
REMARK                            x       y       z     vdW  Elec       q    Type
REMARK                         _______ _______ _______ _____ _____    ______ ____
ROOT
ATOM      1  O   UNL     1      35.083  -9.032 -24.340  0.00  0.00    -0.267 OA
ATOM      2  O   UNL     1      32.946  -6.476 -21.099  0.00  0.00    -0.246 OA
ATOM      3  N   UNL     1      34.025  -7.724 -22.723  0.00  0.00    -0.244 N 
ATOM      4  N   UNL     1      32.480  -8.743 -21.214  0.00  0.00    -0.279 N 
ATOM      5  C   UNL     1      32.700 -10.007 -21.836  0.00  0.00    +0.069 A 
ATOM      6  C   UNL     1      33.590 -10.111 -22.907  0.00  0.00    +0.073 A 
ATOM      7  C   UNL     1      34.304  -8.920 -23.396  0.00  0.00    +0.266 A 
ATOM      8  C   UNL     1      33.133  -7.574 -21.637  0.00  0.00    +0.334 A 
ATOM      9  C   UNL     1      33.820 -11.347 -23.532  0.00  0.00    +0.014 C 
ATOM     10  C   UNL     1      32.042 -11.174 -21.406  0.00  0.00    +0.018 C 
ATOM     11  C   UNL     1      31.542  -8.661 -20.095  0.00  0.00    +0.135 C 
ATOM     12  C   UNL     1      33.159 -12.490 -23.092  0.00  0.00    +0.042 C 
ATOM     13  C   UNL     1      32.271 -12.403 -22.028  0.00  0.00    +0.010 C 
ENDROOT
BRANCH  12  14
ATOM     14  C   UNL     1      33.395 -13.746 -23.730  0.00  0.00    -0.064 C 
ATOM     15  C   UNL     1      33.597 -14.807 -24.266  0.00  0.00    -0.082 C 
BRANCH  15  16
ATOM     16  C   UNL     1      33.846 -16.098 -24.917  0.00  0.00    +0.103 C 
BRANCH  16  17
ATOM     17  C   UNL     1      34.393 -17.119 -23.952  0.00  0.00    -0.009 C 
ATOM     18  C   UNL     1      35.087 -16.693 -22.829  0.00  0.00    -0.003 C 
ATOM     19  C   UNL     1      34.192 -18.469 -24.201  0.00  0.00    -0.003 C 
ATOM     20  C   UNL     1      35.592 -17.638 -21.936  0.00  0.00    -0.000 C 
ATOM     21  C   UNL     1      34.698 -19.413 -23.309  0.00  0.00    -0.000 C 
ATOM     22  C   UNL     1      35.398 -18.999 -22.177  0.00  0.00    -0.000 C 
ENDBRANCH  16  17
ENDBRANCH  15  16
ENDBRANCH  12  14
BRANCH   3  23
ATOM     23  C   UNL     1      34.719  -6.525 -23.184  0.00  0.00    +0.140 C 
BRANCH  23  24
ATOM     24  C   UNL     1      33.794  -5.587 -23.913  0.00  0.00    +0.001 C 
ATOM     25  C   UNL     1      32.914  -4.795 -23.188  0.00  0.00    -0.002 C 
ATOM     26  C   UNL     1      33.836  -5.525 -25.299  0.00  0.00    -0.002 C 
ATOM     27  C   UNL     1      32.057  -3.926 -23.863  0.00  0.00    +0.006 C 
ATOM     28  C   UNL     1      32.979  -4.656 -25.973  0.00  0.00    +0.006 C 
ATOM     29  C   UNL     1      32.089  -3.856 -25.255  0.00  0.00    +0.075 C 
BRANCH  29  31
ATOM     30  O   UNL     1      31.318  -2.597 -27.137  0.00  0.00    -0.245 OA
ATOM     31  C   UNL     1      31.196  -2.949 -25.960  0.00  0.00    +0.338 C 
BRANCH  31  32
ATOM     32  O   UNL     1      30.178  -2.506 -25.173  0.00  0.00    -0.477 OA
ATOM     33  H   UNL     1      29.862  -1.629 -25.266  0.00  0.00    +0.295 HD
ENDBRANCH  31  32
ENDBRANCH  29  31
ENDBRANCH  23  24
ENDBRANCH   3  23
TORSDOF 7
ENDMDL
