MODEL 1
REMARK VINA RESULT:     -12.4      0.000      0.000
REMARK  Name = 71245288
REMARK  5 active torsions:
REMARK  status: ('A' for Active; 'I' for Inactive)
REMARK    1  A    between atoms: C_3  and  C_9
REMARK    2  A    between atoms: C_6  and  N_14
REMARK    3  A    between atoms: C_15  and  C_18
REMARK    4  A    between atoms: C_22  and  C_30
REMARK    5  A    between atoms: N_27  and  C_32
REMARK                            x       y       z     vdW  Elec       q    Type
REMARK                         _______ _______ _______ _____ _____    ______ ____
ROOT
ATOM      1  O   UNL     1      32.770 -21.764 -19.261  0.00  0.00    -0.270 OA
ATOM      2  N   UNL     1      34.356 -22.129 -17.570  0.00  0.00    -0.259 N 
ATOM      3  C   UNL     1      33.918 -21.635 -18.807  0.00  0.00    +0.253 C 
ATOM      4  H   UNL     1      35.297 -21.948 -17.347  0.00  0.00    +0.157 HD
ATOM      5  N   UNL     1      34.250 -23.238 -15.468  0.00  0.00    -0.388 NA
ATOM      6  C   UNL     1      33.510 -23.930 -14.574  0.00  0.00    +0.166 C 
ATOM      7  C   UNL     1      33.622 -22.856 -16.602  0.00  0.00    +0.167 C 
ATOM      8  C   UNL     1      32.175 -24.255 -14.760  0.00  0.00    +0.031 C 
ATOM      9  C   UNL     1      32.293 -23.131 -16.882  0.00  0.00    +0.101 C 
ATOM     10  C   UNL     1      31.563 -23.845 -15.938  0.00  0.00    -0.015 C 
ENDROOT
BRANCH   3  15
ATOM     11  F   UNL     1      36.671 -21.807 -18.281  0.00  0.00    -0.204 F 
ATOM     12  C   UNL     1      35.433 -19.357 -21.367  0.00  0.00    +0.046 C 
ATOM     13  C   UNL     1      36.790 -19.476 -21.067  0.00  0.00    -0.006 C 
ATOM     14  C   UNL     1      34.490 -20.067 -20.624  0.00  0.00    +0.021 C 
ATOM     15  C   UNL     1      34.904 -20.896 -19.581  0.00  0.00    +0.082 C 
ATOM     16  C   UNL     1      37.204 -20.303 -20.024  0.00  0.00    +0.027 C 
ATOM     17  C   UNL     1      37.827 -18.728 -21.843  0.00  0.00    +0.032 C 
ATOM     18  C   UNL     1      36.261 -21.013 -19.281  0.00  0.00    +0.144 C 
BRANCH  12  20
ATOM     19  N   UNL     1      34.040 -17.928 -24.305  0.00  0.00    -0.255 NA
ATOM     20  N   UNL     1      35.001 -18.541 -22.398  0.00  0.00    -0.282 N 
ATOM     21  C   UNL     1      34.585 -16.835 -23.679  0.00  0.00    +0.053 C 
ATOM     22  C   UNL     1      35.187 -17.190 -22.495  0.00  0.00    +0.134 C 
ATOM     23  C   UNL     1      34.307 -18.938 -23.508  0.00  0.00    +0.219 C 
BRANCH  21  24
ATOM     24  C   UNL     1      34.527 -15.415 -24.233  0.00  0.00    +0.037 C 
ATOM     25  C   UNL     1      34.308 -14.278 -23.279  0.00  0.00    +0.006 C 
ATOM     26  C   UNL     1      33.214 -14.690 -24.221  0.00  0.00    +0.006 C 
ENDBRANCH  21  24
ENDBRANCH  12  20
ENDBRANCH   3  15
BRANCH   6  30
ATOM     27  N   UNL     1      35.495 -24.783 -13.371  0.00  0.00    -0.252 N 
ATOM     28  N   UNL     1      33.747 -24.280 -12.155  0.00  0.00    -0.129 NA
ATOM     29  N   UNL     1      34.745 -24.735 -11.317  0.00  0.00    -0.128 NA
ATOM     30  C   UNL     1      34.216 -24.317 -13.381  0.00  0.00    +0.188 C 
ATOM     31  C   UNL     1      35.784 -25.031 -12.063  0.00  0.00    +0.192 C 
BRANCH  27  32
ATOM     32  C   UNL     1      36.380 -24.981 -14.493  0.00  0.00    +0.080 C 
ATOM     33  C   UNL     1      37.697 -24.221 -14.312  0.00  0.00    +0.022 C 
ATOM     34  C   UNL     1      36.640 -26.467 -14.750  0.00  0.00    +0.022 C 
ENDBRANCH  27  32
ENDBRANCH   6  30
TORSDOF 5
ENDMDL
MODEL 2
REMARK VINA RESULT:     -11.7      1.610     10.652
REMARK  Name = 71245288
REMARK  5 active torsions:
REMARK  status: ('A' for Active; 'I' for Inactive)
REMARK    1  A    between atoms: C_3  and  C_9
REMARK    2  A    between atoms: C_6  and  N_14
REMARK    3  A    between atoms: C_15  and  C_18
REMARK    4  A    between atoms: C_22  and  C_30
REMARK    5  A    between atoms: N_27  and  C_32
REMARK                            x       y       z     vdW  Elec       q    Type
REMARK                         _______ _______ _______ _____ _____    ______ ____
ROOT
ATOM      1  O   UNL     1      36.763 -21.535 -18.050  0.00  0.00    -0.270 OA
ATOM      2  N   UNL     1      34.995 -20.833 -19.424  0.00  0.00    -0.259 N 
ATOM      3  C   UNL     1      35.557 -21.524 -18.340  0.00  0.00    +0.253 C 
ATOM      4  H   UNL     1      34.020 -20.919 -19.527  0.00  0.00    +0.157 HD
ATOM      5  N   UNL     1      34.902 -19.450 -21.357  0.00  0.00    -0.388 NA
ATOM      6  C   UNL     1      35.568 -18.691 -22.256  0.00  0.00    +0.166 C 
ATOM      7  C   UNL     1      35.647 -20.028 -20.389  0.00  0.00    +0.167 C 
ATOM      8  C   UNL     1      36.938 -18.483 -22.231  0.00  0.00    +0.031 C 
ATOM      9  C   UNL     1      37.021 -19.882 -20.277  0.00  0.00    +0.101 C 
ATOM     10  C   UNL     1      37.671 -19.094 -21.220  0.00  0.00    -0.015 C 
ENDROOT
BRANCH   3  15
ATOM     11  F   UNL     1      32.894 -21.982 -19.107  0.00  0.00    -0.204 F 
ATOM     12  C   UNL     1      34.144 -23.448 -15.454  0.00  0.00    +0.046 C 
ATOM     13  C   UNL     1      32.830 -23.650 -15.878  0.00  0.00    -0.006 C 
ATOM     14  C   UNL     1      35.039 -22.748 -16.263  0.00  0.00    +0.021 C 
ATOM     15  C   UNL     1      34.621 -22.252 -17.498  0.00  0.00    +0.082 C 
ATOM     16  C   UNL     1      32.412 -23.153 -17.112  0.00  0.00    +0.027 C 
ATOM     17  C   UNL     1      31.845 -24.394 -15.034  0.00  0.00    +0.032 C 
ATOM     18  C   UNL     1      33.308 -22.454 -17.922  0.00  0.00    +0.144 C 
BRANCH  12  20
ATOM     19  N   UNL     1      34.583 -24.399 -12.059  0.00  0.00    -0.255 NA
ATOM     20  N   UNL     1      34.579 -23.932 -14.232  0.00  0.00    -0.282 N 
ATOM     21  C   UNL     1      35.733 -24.866 -12.645  0.00  0.00    +0.053 C 
ATOM     22  C   UNL     1      35.753 -24.588 -13.991  0.00  0.00    +0.134 C 
ATOM     23  C   UNL     1      33.910 -23.842 -13.042  0.00  0.00    +0.219 C 
BRANCH  21  24
ATOM     24  C   UNL     1      36.840 -25.597 -11.891  0.00  0.00    +0.037 C 
ATOM     25  C   UNL     1      38.116 -24.864 -11.598  0.00  0.00    +0.006 C 
ATOM     26  C   UNL     1      38.096 -25.956 -12.627  0.00  0.00    +0.006 C 
ENDBRANCH  21  24
ENDBRANCH  12  20
ENDBRANCH   3  15
BRANCH   6  30
ATOM     27  N   UNL     1      34.501 -16.758 -23.370  0.00  0.00    -0.252 N 
ATOM     28  N   UNL     1      34.105 -18.731 -24.228  0.00  0.00    -0.129 NA
ATOM     29  N   UNL     1      33.431 -17.786 -24.977  0.00  0.00    -0.128 NA
ATOM     30  C   UNL     1      34.739 -18.095 -23.270  0.00  0.00    +0.188 C 
ATOM     31  C   UNL     1      33.682 -16.610 -24.448  0.00  0.00    +0.192 C 
BRANCH  27  32
ATOM     32  C   UNL     1      35.001 -15.698 -22.527  0.00  0.00    +0.080 C 
ATOM     33  C   UNL     1      34.474 -14.331 -22.969  0.00  0.00    +0.022 C 
ATOM     34  C   UNL     1      34.683 -15.954 -21.053  0.00  0.00    +0.022 C 
ENDBRANCH  27  32
ENDBRANCH   6  30
TORSDOF 5
ENDMDL
MODEL 3
REMARK VINA RESULT:     -11.3      3.184     11.126
REMARK  Name = 71245288
REMARK  5 active torsions:
REMARK  status: ('A' for Active; 'I' for Inactive)
REMARK    1  A    between atoms: C_3  and  C_9
REMARK    2  A    between atoms: C_6  and  N_14
REMARK    3  A    between atoms: C_15  and  C_18
REMARK    4  A    between atoms: C_22  and  C_30
REMARK    5  A    between atoms: N_27  and  C_32
REMARK                            x       y       z     vdW  Elec       q    Type
REMARK                         _______ _______ _______ _____ _____    ______ ____
ROOT
ATOM      1  O   UNL     1      35.374 -18.545 -23.800  0.00  0.00    -0.270 OA
ATOM      2  N   UNL     1      34.727 -16.879 -22.279  0.00  0.00    -0.259 N 
ATOM      3  C   UNL     1      35.245 -18.132 -22.637  0.00  0.00    +0.253 C 
ATOM      4  H   UNL     1      34.686 -16.693 -21.313  0.00  0.00    +0.157 HD
ATOM      5  N   UNL     1      33.795 -14.709 -22.561  0.00  0.00    -0.388 NA
ATOM      6  C   UNL     1      33.354 -13.752 -23.408  0.00  0.00    +0.166 C 
ATOM      7  C   UNL     1      34.255 -15.847 -23.125  0.00  0.00    +0.167 C 
ATOM      8  C   UNL     1      33.354 -13.880 -24.788  0.00  0.00    +0.031 C 
ATOM      9  C   UNL     1      34.297 -16.072 -24.492  0.00  0.00    +0.101 C 
ATOM     10  C   UNL     1      33.836 -15.065 -25.333  0.00  0.00    -0.015 C 
ENDROOT
BRANCH   3  15
ATOM     11  F   UNL     1      37.938 -18.326 -21.864  0.00  0.00    -0.204 F 
ATOM     12  C   UNL     1      35.151 -20.538 -19.766  0.00  0.00    +0.046 C 
ATOM     13  C   UNL     1      36.501 -20.601 -19.420  0.00  0.00    -0.006 C 
ATOM     14  C   UNL     1      34.739 -19.727 -20.824  0.00  0.00    +0.021 C 
ATOM     15  C   UNL     1      35.678 -18.978 -21.535  0.00  0.00    +0.082 C 
ATOM     16  C   UNL     1      37.439 -19.854 -20.131  0.00  0.00    +0.027 C 
ATOM     17  C   UNL     1      36.976 -21.462 -18.294  0.00  0.00    +0.032 C 
ATOM     18  C   UNL     1      37.027 -19.042 -21.188  0.00  0.00    +0.144 C 
BRANCH  12  20
ATOM     19  N   UNL     1      32.214 -22.019 -18.426  0.00  0.00    -0.255 NA
ATOM     20  N   UNL     1      34.204 -21.273 -19.074  0.00  0.00    -0.282 N 
ATOM     21  C   UNL     1      33.208 -22.659 -17.729  0.00  0.00    +0.053 C 
ATOM     22  C   UNL     1      34.451 -22.214 -18.113  0.00  0.00    +0.134 C 
ATOM     23  C   UNL     1      32.847 -21.192 -19.227  0.00  0.00    +0.219 C 
BRANCH  21  24
ATOM     24  C   UNL     1      32.958 -23.726 -16.667  0.00  0.00    +0.037 C 
ATOM     25  C   UNL     1      31.970 -23.436 -15.575  0.00  0.00    +0.006 C 
ATOM     26  C   UNL     1      33.439 -23.477 -15.269  0.00  0.00    +0.006 C 
ENDBRANCH  21  24
ENDBRANCH  12  20
ENDBRANCH   3  15
BRANCH   6  30
ATOM     27  N   UNL     1      33.250 -11.298 -23.121  0.00  0.00    -0.252 N 
ATOM     28  N   UNL     1      32.018 -12.500 -21.772  0.00  0.00    -0.129 NA
ATOM     29  N   UNL     1      31.829 -11.168 -21.463  0.00  0.00    -0.128 NA
ATOM     30  C   UNL     1      32.873 -12.557 -22.767  0.00  0.00    +0.188 C 
ATOM     31  C   UNL     1      32.575 -10.463 -22.282  0.00  0.00    +0.192 C 
BRANCH  27  32
ATOM     32  C   UNL     1      34.167 -10.902 -24.162  0.00  0.00    +0.080 C 
ATOM     33  C   UNL     1      33.490 -10.888 -25.535  0.00  0.00    +0.022 C 
ATOM     34  C   UNL     1      34.812  -9.548 -23.860  0.00  0.00    +0.022 C 
ENDBRANCH  27  32
ENDBRANCH   6  30
TORSDOF 5
ENDMDL
MODEL 4
REMARK VINA RESULT:     -11.2      5.565     10.032
REMARK  Name = 71245288
REMARK  5 active torsions:
REMARK  status: ('A' for Active; 'I' for Inactive)
REMARK    1  A    between atoms: C_3  and  C_9
REMARK    2  A    between atoms: C_6  and  N_14
REMARK    3  A    between atoms: C_15  and  C_18
REMARK    4  A    between atoms: C_22  and  C_30
REMARK    5  A    between atoms: N_27  and  C_32
REMARK                            x       y       z     vdW  Elec       q    Type
REMARK                         _______ _______ _______ _____ _____    ______ ____
ROOT
ATOM      1  O   UNL     1      32.702 -13.486 -24.072  0.00  0.00    -0.270 OA
ATOM      2  N   UNL     1      33.820 -14.411 -22.227  0.00  0.00    -0.259 N 
ATOM      3  C   UNL     1      33.059 -13.433 -22.885  0.00  0.00    +0.253 C 
ATOM      4  H   UNL     1      34.026 -14.228 -21.282  0.00  0.00    +0.157 HD
ATOM      5  N   UNL     1      35.044 -16.428 -21.926  0.00  0.00    -0.388 NA
ATOM      6  C   UNL     1      35.510 -17.576 -22.465  0.00  0.00    +0.166 C 
ATOM      7  C   UNL     1      34.329 -15.626 -22.745  0.00  0.00    +0.167 C 
ATOM      8  C   UNL     1      35.294 -17.959 -23.779  0.00  0.00    +0.031 C 
ATOM      9  C   UNL     1      34.059 -15.918 -24.073  0.00  0.00    +0.101 C 
ATOM     10  C   UNL     1      34.554 -17.109 -24.592  0.00  0.00    -0.015 C 
ENDROOT
BRANCH   3  15
ATOM     11  F   UNL     1      32.263 -13.705 -20.205  0.00  0.00    -0.204 F 
ATOM     12  C   UNL     1      32.267  -9.919 -21.855  0.00  0.00    +0.046 C 
ATOM     13  C   UNL     1      31.879 -10.105 -20.527  0.00  0.00    -0.006 C 
ATOM     14  C   UNL     1      32.654 -11.013 -22.629  0.00  0.00    +0.021 C 
ATOM     15  C   UNL     1      32.655 -12.294 -22.075  0.00  0.00    +0.082 C 
ATOM     16  C   UNL     1      31.879 -11.385 -19.975  0.00  0.00    +0.027 C 
ATOM     17  C   UNL     1      31.457  -8.955 -19.671  0.00  0.00    +0.032 C 
ATOM     18  C   UNL     1      32.267 -12.479 -20.748  0.00  0.00    +0.144 C 
BRANCH  12  20
ATOM     19  N   UNL     1      31.515  -6.802 -23.382  0.00  0.00    -0.255 NA
ATOM     20  N   UNL     1      32.273  -8.656 -22.423  0.00  0.00    -0.282 N 
ATOM     21  C   UNL     1      32.872  -6.717 -23.199  0.00  0.00    +0.053 C 
ATOM     22  C   UNL     1      33.366  -7.855 -22.606  0.00  0.00    +0.134 C 
ATOM     23  C   UNL     1      31.186  -7.981 -22.904  0.00  0.00    +0.219 C 
BRANCH  21  24
ATOM     24  C   UNL     1      33.716  -5.513 -23.604  0.00  0.00    +0.037 C 
ATOM     25  C   UNL     1      33.657  -5.038 -25.027  0.00  0.00    +0.006 C 
ATOM     26  C   UNL     1      34.888  -5.728 -24.516  0.00  0.00    +0.006 C 
ENDBRANCH  21  24
ENDBRANCH  12  20
ENDBRANCH   3  15
BRANCH   6  30
ATOM     27  N   UNL     1      35.711 -19.330 -20.731  0.00  0.00    -0.252 N 
ATOM     28  N   UNL     1      37.569 -18.387 -21.399  0.00  0.00    -0.129 NA
ATOM     29  N   UNL     1      37.879 -19.330 -20.440  0.00  0.00    -0.128 NA
ATOM     30  C   UNL     1      36.265 -18.402 -21.559  0.00  0.00    +0.188 C 
ATOM     31  C   UNL     1      36.753 -19.885 -20.052  0.00  0.00    +0.192 C 
BRANCH  27  32
ATOM     32  C   UNL     1      34.317 -19.674 -20.586  0.00  0.00    +0.080 C 
ATOM     33  C   UNL     1      33.661 -19.953 -21.940  0.00  0.00    +0.022 C 
ATOM     34  C   UNL     1      34.127 -20.858 -19.635  0.00  0.00    +0.022 C 
ENDBRANCH  27  32
ENDBRANCH   6  30
TORSDOF 5
ENDMDL
MODEL 5
REMARK VINA RESULT:     -10.6      3.350     11.105
REMARK  Name = 71245288
REMARK  5 active torsions:
REMARK  status: ('A' for Active; 'I' for Inactive)
REMARK    1  A    between atoms: C_3  and  C_9
REMARK    2  A    between atoms: C_6  and  N_14
REMARK    3  A    between atoms: C_15  and  C_18
REMARK    4  A    between atoms: C_22  and  C_30
REMARK    5  A    between atoms: N_27  and  C_32
REMARK                            x       y       z     vdW  Elec       q    Type
REMARK                         _______ _______ _______ _____ _____    ______ ____
ROOT
ATOM      1  O   UNL     1      34.596 -18.289 -24.103  0.00  0.00    -0.270 OA
ATOM      2  N   UNL     1      34.720 -16.380 -22.744  0.00  0.00    -0.259 N 
ATOM      3  C   UNL     1      34.868 -17.747 -23.020  0.00  0.00    +0.253 C 
ATOM      4  H   UNL     1      34.978 -16.096 -21.837  0.00  0.00    +0.157 HD
ATOM      5  N   UNL     1      34.186 -14.093 -23.120  0.00  0.00    -0.388 NA
ATOM      6  C   UNL     1      33.727 -13.148 -23.971  0.00  0.00    +0.166 C 
ATOM      7  C   UNL     1      34.246 -15.355 -23.598  0.00  0.00    +0.167 C 
ATOM      8  C   UNL     1      33.330 -13.406 -25.274  0.00  0.00    +0.031 C 
ATOM      9  C   UNL     1      33.873 -15.716 -24.883  0.00  0.00    +0.101 C 
ATOM     10  C   UNL     1      33.407 -14.716 -25.731  0.00  0.00    -0.015 C 
ENDROOT
BRANCH   3  15
ATOM     11  F   UNL     1      37.597 -17.731 -22.358  0.00  0.00    -0.204 F 
ATOM     12  C   UNL     1      35.079 -20.156 -20.159  0.00  0.00    +0.046 C 
ATOM     13  C   UNL     1      36.443 -20.114 -19.868  0.00  0.00    -0.006 C 
ATOM     14  C   UNL     1      34.563 -19.378 -21.196  0.00  0.00    +0.021 C 
ATOM     15  C   UNL     1      35.410 -18.557 -21.941  0.00  0.00    +0.082 C 
ATOM     16  C   UNL     1      37.290 -19.294 -20.613  0.00  0.00    +0.027 C 
ATOM     17  C   UNL     1      37.029 -20.936 -18.765  0.00  0.00    +0.032 C 
ATOM     18  C   UNL     1      36.773 -18.516 -21.649  0.00  0.00    +0.144 C 
BRANCH  12  20
ATOM     19  N   UNL     1      32.321 -21.819 -18.660  0.00  0.00    -0.255 NA
ATOM     20  N   UNL     1      34.221 -20.963 -19.432  0.00  0.00    -0.282 N 
ATOM     21  C   UNL     1      33.393 -22.459 -18.091  0.00  0.00    +0.053 C 
ATOM     22  C   UNL     1      34.582 -21.946 -18.554  0.00  0.00    +0.134 C 
ATOM     23  C   UNL     1      32.854 -20.924 -19.463  0.00  0.00    +0.219 C 
BRANCH  21  24
ATOM     24  C   UNL     1      33.272 -23.592 -17.076  0.00  0.00    +0.037 C 
ATOM     25  C   UNL     1      32.388 -23.395 -15.880  0.00  0.00    +0.006 C 
ATOM     26  C   UNL     1      33.880 -23.410 -15.717  0.00  0.00    +0.006 C 
ENDBRANCH  21  24
ENDBRANCH  12  20
ENDBRANCH   3  15
BRANCH   6  30
ATOM     27  N   UNL     1      32.819 -11.431 -22.440  0.00  0.00    -0.252 N 
ATOM     28  N   UNL     1      34.434 -10.804 -23.777  0.00  0.00    -0.129 NA
ATOM     29  N   UNL     1      34.061  -9.721 -23.006  0.00  0.00    -0.128 NA
ATOM     30  C   UNL     1      33.678 -11.818 -23.423  0.00  0.00    +0.188 C 
ATOM     31  C   UNL     1      33.093 -10.116 -22.211  0.00  0.00    +0.192 C 
BRANCH  27  32
ATOM     32  C   UNL     1      31.822 -12.225 -21.764  0.00  0.00    +0.080 C 
ATOM     33  C   UNL     1      32.437 -13.068 -20.644  0.00  0.00    +0.022 C 
ATOM     34  C   UNL     1      30.680 -11.358 -21.230  0.00  0.00    +0.022 C 
ENDBRANCH  27  32
ENDBRANCH   6  30
TORSDOF 5
ENDMDL
MODEL 6
REMARK VINA RESULT:     -10.2      1.985     10.534
REMARK  Name = 71245288
REMARK  5 active torsions:
REMARK  status: ('A' for Active; 'I' for Inactive)
REMARK    1  A    between atoms: C_3  and  C_9
REMARK    2  A    between atoms: C_6  and  N_14
REMARK    3  A    between atoms: C_15  and  C_18
REMARK    4  A    between atoms: C_22  and  C_30
REMARK    5  A    between atoms: N_27  and  C_32
REMARK                            x       y       z     vdW  Elec       q    Type
REMARK                         _______ _______ _______ _____ _____    ______ ____
ROOT
ATOM      1  O   UNL     1      36.189 -22.110 -19.690  0.00  0.00    -0.270 OA
ATOM      2  N   UNL     1      34.878 -20.174 -19.488  0.00  0.00    -0.259 N 
ATOM      3  C   UNL     1      35.253 -21.487 -19.166  0.00  0.00    +0.253 C 
ATOM      4  H   UNL     1      34.112 -19.813 -18.986  0.00  0.00    +0.157 HD
ATOM      5  N   UNL     1      34.930 -18.066 -20.588  0.00  0.00    -0.388 NA
ATOM      6  C   UNL     1      35.514 -17.269 -21.509  0.00  0.00    +0.166 C 
ATOM      7  C   UNL     1      35.456 -19.301 -20.441  0.00  0.00    +0.167 C 
ATOM      8  C   UNL     1      36.598 -17.648 -22.287  0.00  0.00    +0.031 C 
ATOM      9  C   UNL     1      36.537 -19.775 -21.168  0.00  0.00    +0.101 C 
ATOM     10  C   UNL     1      37.113 -18.926 -22.107  0.00  0.00    -0.015 C 
ENDROOT
BRANCH   3  15
ATOM     11  F   UNL     1      32.450 -21.647 -19.253  0.00  0.00    -0.204 F 
ATOM     12  C   UNL     1      34.390 -23.305 -16.006  0.00  0.00    +0.046 C 
ATOM     13  C   UNL     1      32.999 -23.359 -16.095  0.00  0.00    -0.006 C 
ATOM     14  C   UNL     1      35.130 -22.689 -17.016  0.00  0.00    +0.021 C 
ATOM     15  C   UNL     1      34.478 -22.128 -18.115  0.00  0.00    +0.082 C 
ATOM     16  C   UNL     1      32.348 -22.798 -17.192  0.00  0.00    +0.027 C 
ATOM     17  C   UNL     1      32.176 -24.011 -15.029  0.00  0.00    +0.032 C 
ATOM     18  C   UNL     1      33.088 -22.182 -18.202  0.00  0.00    +0.144 C 
BRANCH  12  20
ATOM     19  N   UNL     1      36.149 -25.347 -13.692  0.00  0.00    -0.255 NA
ATOM     20  N   UNL     1      35.057 -23.856 -14.925  0.00  0.00    -0.282 N 
ATOM     21  C   UNL     1      35.995 -24.177 -12.991  0.00  0.00    +0.053 C 
ATOM     22  C   UNL     1      35.321 -23.238 -13.735  0.00  0.00    +0.134 C 
ATOM     23  C   UNL     1      35.573 -25.120 -14.852  0.00  0.00    +0.219 C 
BRANCH  21  24
ATOM     24  C   UNL     1      36.509 -23.957 -11.572  0.00  0.00    +0.037 C 
ATOM     25  C   UNL     1      37.563 -22.914 -11.341  0.00  0.00    +0.006 C 
ATOM     26  C   UNL     1      37.913 -24.371 -11.242  0.00  0.00    +0.006 C 
ENDBRANCH  21  24
ENDBRANCH  12  20
ENDBRANCH   3  15
BRANCH   6  30
ATOM     27  N   UNL     1      34.498 -15.429 -22.813  0.00  0.00    -0.252 N 
ATOM     28  N   UNL     1      34.709 -15.109 -20.659  0.00  0.00    -0.129 NA
ATOM     29  N   UNL     1      34.129 -13.986 -21.212  0.00  0.00    -0.128 NA
ATOM     30  C   UNL     1      34.924 -15.962 -21.635  0.00  0.00    +0.188 C 
ATOM     31  C   UNL     1      34.009 -14.196 -22.502  0.00  0.00    +0.192 C 
BRANCH  27  32
ATOM     32  C   UNL     1      34.542 -16.023 -24.128  0.00  0.00    +0.080 C 
ATOM     33  C   UNL     1      33.875 -17.401 -24.145  0.00  0.00    +0.022 C 
ATOM     34  C   UNL     1      33.920 -15.104 -25.181  0.00  0.00    +0.022 C 
ENDBRANCH  27  32
ENDBRANCH   6  30
TORSDOF 5
ENDMDL
MODEL 7
REMARK VINA RESULT:     -10.1      1.054      1.695
REMARK  Name = 71245288
REMARK  5 active torsions:
REMARK  status: ('A' for Active; 'I' for Inactive)
REMARK    1  A    between atoms: C_3  and  C_9
REMARK    2  A    between atoms: C_6  and  N_14
REMARK    3  A    between atoms: C_15  and  C_18
REMARK    4  A    between atoms: C_22  and  C_30
REMARK    5  A    between atoms: N_27  and  C_32
REMARK                            x       y       z     vdW  Elec       q    Type
REMARK                         _______ _______ _______ _____ _____    ______ ____
ROOT
ATOM      1  O   UNL     1      33.097 -21.205 -18.814  0.00  0.00    -0.270 OA
ATOM      2  N   UNL     1      34.982 -22.201 -17.833  0.00  0.00    -0.259 N 
ATOM      3  C   UNL     1      34.326 -21.359 -18.743  0.00  0.00    +0.253 C 
ATOM      4  H   UNL     1      35.964 -22.218 -17.898  0.00  0.00    +0.157 HD
ATOM      5  N   UNL     1      35.245 -23.766 -16.061  0.00  0.00    -0.388 NA
ATOM      6  C   UNL     1      34.659 -24.543 -15.123  0.00  0.00    +0.166 C 
ATOM      7  C   UNL     1      34.416 -23.030 -16.835  0.00  0.00    +0.167 C 
ATOM      8  C   UNL     1      33.290 -24.616 -14.922  0.00  0.00    +0.031 C 
ATOM      9  C   UNL     1      33.036 -23.033 -16.714  0.00  0.00    +0.101 C 
ATOM     10  C   UNL     1      32.470 -23.844 -15.736  0.00  0.00    -0.015 C 
ENDROOT
BRANCH   3  15
ATOM     11  F   UNL     1      37.113 -21.249 -18.412  0.00  0.00    -0.204 F 
ATOM     12  C   UNL     1      35.449 -19.174 -21.572  0.00  0.00    +0.046 C 
ATOM     13  C   UNL     1      36.829 -19.150 -21.366  0.00  0.00    -0.006 C 
ATOM     14  C   UNL     1      34.628 -19.900 -20.709  0.00  0.00    +0.021 C 
ATOM     15  C   UNL     1      35.186 -20.602 -19.641  0.00  0.00    +0.082 C 
ATOM     16  C   UNL     1      37.386 -19.851 -20.297  0.00  0.00    +0.027 C 
ATOM     17  C   UNL     1      37.738 -18.381 -22.270  0.00  0.00    +0.032 C 
ATOM     18  C   UNL     1      36.565 -20.578 -19.435  0.00  0.00    +0.144 C 
BRANCH  12  20
ATOM     19  N   UNL     1      33.738 -18.114 -24.498  0.00  0.00    -0.255 NA
ATOM     20  N   UNL     1      34.875 -18.484 -22.626  0.00  0.00    -0.282 N 
ATOM     21  C   UNL     1      34.216 -16.930 -23.994  0.00  0.00    +0.053 C 
ATOM     22  C   UNL     1      34.924 -17.134 -22.834  0.00  0.00    +0.134 C 
ATOM     23  C   UNL     1      34.152 -19.029 -23.651  0.00  0.00    +0.219 C 
BRANCH  21  24
ATOM     24  C   UNL     1      33.987 -15.570 -24.645  0.00  0.00    +0.037 C 
ATOM     25  C   UNL     1      34.564 -14.350 -23.987  0.00  0.00    +0.006 C 
ATOM     26  C   UNL     1      33.082 -14.588 -23.961  0.00  0.00    +0.006 C 
ENDBRANCH  21  24
ENDBRANCH  12  20
ENDBRANCH   3  15
BRANCH   6  30
ATOM     27  N   UNL     1      36.044 -24.910 -13.107  0.00  0.00    -0.252 N 
ATOM     28  N   UNL     1      36.083 -26.482 -14.628  0.00  0.00    -0.129 NA
ATOM     29  N   UNL     1      36.909 -26.861 -13.589  0.00  0.00    -0.128 NA
ATOM     30  C   UNL     1      35.575 -25.310 -14.321  0.00  0.00    +0.188 C 
ATOM     31  C   UNL     1      36.872 -25.907 -12.687  0.00  0.00    +0.192 C 
BRANCH  27  32
ATOM     32  C   UNL     1      35.743 -23.693 -12.392  0.00  0.00    +0.080 C 
ATOM     33  C   UNL     1      34.604 -23.896 -11.390  0.00  0.00    +0.022 C 
ATOM     34  C   UNL     1      36.984 -23.126 -11.699  0.00  0.00    +0.022 C 
ENDBRANCH  27  32
ENDBRANCH   6  30
TORSDOF 5
ENDMDL
MODEL 8
REMARK VINA RESULT:     -10.0      5.202      9.199
REMARK  Name = 71245288
REMARK  5 active torsions:
REMARK  status: ('A' for Active; 'I' for Inactive)
REMARK    1  A    between atoms: C_3  and  C_9
REMARK    2  A    between atoms: C_6  and  N_14
REMARK    3  A    between atoms: C_15  and  C_18
REMARK    4  A    between atoms: C_22  and  C_30
REMARK    5  A    between atoms: N_27  and  C_32
REMARK                            x       y       z     vdW  Elec       q    Type
REMARK                         _______ _______ _______ _____ _____    ______ ____
ROOT
ATOM      1  O   UNL     1      33.197 -15.449 -25.511  0.00  0.00    -0.270 OA
ATOM      2  N   UNL     1      34.380 -15.476 -23.485  0.00  0.00    -0.259 N 
ATOM      3  C   UNL     1      33.688 -14.859 -24.537  0.00  0.00    +0.253 C 
ATOM      4  H   UNL     1      34.713 -14.874 -22.781  0.00  0.00    +0.157 HD
ATOM      5  N   UNL     1      35.351 -17.230 -22.204  0.00  0.00    -0.388 NA
ATOM      6  C   UNL     1      35.597 -18.552 -22.075  0.00  0.00    +0.166 C 
ATOM      7  C   UNL     1      34.663 -16.852 -23.304  0.00  0.00    +0.167 C 
ATOM      8  C   UNL     1      35.188 -19.510 -22.989  0.00  0.00    +0.031 C 
ATOM      9  C   UNL     1      34.210 -17.730 -24.275  0.00  0.00    +0.101 C 
ATOM     10  C   UNL     1      34.482 -19.083 -24.107  0.00  0.00    -0.015 C 
ENDROOT
BRANCH   3  15
ATOM     11  F   UNL     1      34.270 -13.129 -26.672  0.00  0.00    -0.204 F 
ATOM     12  C   UNL     1      32.924 -11.469 -23.138  0.00  0.00    +0.046 C 
ATOM     13  C   UNL     1      33.226 -10.650 -24.226  0.00  0.00    -0.006 C 
ATOM     14  C   UNL     1      33.076 -12.852 -23.241  0.00  0.00    +0.021 C 
ATOM     15  C   UNL     1      33.531 -13.416 -24.433  0.00  0.00    +0.082 C 
ATOM     16  C   UNL     1      33.681 -11.215 -25.417  0.00  0.00    +0.027 C 
ATOM     17  C   UNL     1      33.076  -9.165 -24.149  0.00  0.00    +0.032 C 
ATOM     18  C   UNL     1      33.833 -12.598 -25.521  0.00  0.00    +0.144 C 
BRANCH  12  20
ATOM     19  N   UNL     1      31.562 -10.821 -19.922  0.00  0.00    -0.255 NA
ATOM     20  N   UNL     1      32.472 -10.929 -21.945  0.00  0.00    -0.282 N 
ATOM     21  C   UNL     1      31.968  -9.574 -20.323  0.00  0.00    +0.053 C 
ATOM     22  C   UNL     1      32.535  -9.615 -21.575  0.00  0.00    +0.134 C 
ATOM     23  C   UNL     1      31.880 -11.614 -20.921  0.00  0.00    +0.219 C 
BRANCH  21  24
ATOM     24  C   UNL     1      31.807  -8.310 -19.483  0.00  0.00    +0.037 C 
ATOM     25  C   UNL     1      31.660  -6.992 -20.186  0.00  0.00    +0.006 C 
ATOM     26  C   UNL     1      32.930  -7.317 -19.454  0.00  0.00    +0.006 C 
ENDBRANCH  21  24
ENDBRANCH  12  20
ENDBRANCH   3  15
BRANCH   6  30
ATOM     27  N   UNL     1      36.027 -19.978 -20.100  0.00  0.00    -0.252 N 
ATOM     28  N   UNL     1      37.382 -18.288 -20.408  0.00  0.00    -0.129 NA
ATOM     29  N   UNL     1      37.776 -18.961 -19.268  0.00  0.00    -0.128 NA
ATOM     30  C   UNL     1      36.333 -18.913 -20.891  0.00  0.00    +0.188 C 
ATOM     31  C   UNL     1      36.953 -19.970 -19.101  0.00  0.00    +0.192 C 
BRANCH  27  32
ATOM     32  C   UNL     1      34.957 -20.932 -20.263  0.00  0.00    +0.080 C 
ATOM     33  C   UNL     1      35.151 -22.157 -19.366  0.00  0.00    +0.022 C 
ATOM     34  C   UNL     1      33.589 -20.290 -20.019  0.00  0.00    +0.022 C 
ENDBRANCH  27  32
ENDBRANCH   6  30
TORSDOF 5
ENDMDL
MODEL 9
REMARK VINA RESULT:      -9.8      2.923      5.302
REMARK  Name = 71245288
REMARK  5 active torsions:
REMARK  status: ('A' for Active; 'I' for Inactive)
REMARK    1  A    between atoms: C_3  and  C_9
REMARK    2  A    between atoms: C_6  and  N_14
REMARK    3  A    between atoms: C_15  and  C_18
REMARK    4  A    between atoms: C_22  and  C_30
REMARK    5  A    between atoms: N_27  and  C_32
REMARK                            x       y       z     vdW  Elec       q    Type
REMARK                         _______ _______ _______ _____ _____    ______ ____
ROOT
ATOM      1  O   UNL     1      37.070 -18.459 -21.622  0.00  0.00    -0.270 OA
ATOM      2  N   UNL     1      34.968 -19.175 -20.864  0.00  0.00    -0.259 N 
ATOM      3  C   UNL     1      35.831 -18.397 -21.649  0.00  0.00    +0.253 C 
ATOM      4  H   UNL     1      34.006 -19.013 -20.996  0.00  0.00    +0.157 HD
ATOM      5  N   UNL     1      34.296 -20.795 -19.257  0.00  0.00    -0.388 NA
ATOM      6  C   UNL     1      34.661 -21.729 -18.350  0.00  0.00    +0.166 C 
ATOM      7  C   UNL     1      35.299 -20.162 -19.904  0.00  0.00    +0.167 C 
ATOM      8  C   UNL     1      35.976 -22.058 -18.062  0.00  0.00    +0.031 C 
ATOM      9  C   UNL     1      36.644 -20.418 -19.689  0.00  0.00    +0.101 C 
ATOM     10  C   UNL     1      36.980 -21.386 -18.749  0.00  0.00    -0.015 C 
ENDROOT
BRANCH   3  15
ATOM     11  F   UNL     1      35.372 -19.054 -24.341  0.00  0.00    -0.204 F 
ATOM     12  C   UNL     1      34.166 -15.333 -23.016  0.00  0.00    +0.046 C 
ATOM     13  C   UNL     1      33.959 -15.705 -24.345  0.00  0.00    -0.006 C 
ATOM     14  C   UNL     1      34.782 -16.218 -22.131  0.00  0.00    +0.021 C 
ATOM     15  C   UNL     1      35.190 -17.476 -22.575  0.00  0.00    +0.082 C 
ATOM     16  C   UNL     1      34.369 -16.962 -24.788  0.00  0.00    +0.027 C 
ATOM     17  C   UNL     1      33.304 -14.779 -25.319  0.00  0.00    +0.032 C 
ATOM     18  C   UNL     1      34.984 -17.847 -23.903  0.00  0.00    +0.144 C 
BRANCH  12  20
ATOM     19  N   UNL     1      33.644 -11.878 -22.375  0.00  0.00    -0.255 NA
ATOM     20  N   UNL     1      33.768 -14.089 -22.555  0.00  0.00    -0.282 N 
ATOM     21  C   UNL     1      32.802 -12.474 -21.470  0.00  0.00    +0.053 C 
ATOM     22  C   UNL     1      32.861 -13.844 -21.563  0.00  0.00    +0.134 C 
ATOM     23  C   UNL     1      34.210 -12.878 -23.013  0.00  0.00    +0.219 C 
BRANCH  21  24
ATOM     24  C   UNL     1      31.918 -11.707 -20.491  0.00  0.00    +0.037 C 
ATOM     25  C   UNL     1      30.731 -10.960 -21.026  0.00  0.00    +0.006 C 
ATOM     26  C   UNL     1      31.932 -10.207 -20.532  0.00  0.00    +0.006 C 
ENDBRANCH  21  24
ENDBRANCH  12  20
ENDBRANCH   3  15
BRANCH   6  30
ATOM     27  N   UNL     1      33.697 -23.143 -16.564  0.00  0.00    -0.252 N 
ATOM     28  N   UNL     1      32.300 -22.334 -18.041  0.00  0.00    -0.129 NA
ATOM     29  N   UNL     1      31.586 -23.090 -17.133  0.00  0.00    -0.128 NA
ATOM     30  C   UNL     1      33.564 -22.379 -17.683  0.00  0.00    +0.188 C 
ATOM     31  C   UNL     1      32.439 -23.566 -16.256  0.00  0.00    +0.192 C 
BRANCH  27  32
ATOM     32  C   UNL     1      34.904 -23.454 -15.836  0.00  0.00    +0.080 C 
ATOM     33  C   UNL     1      35.135 -22.472 -14.684  0.00  0.00    +0.022 C 
ATOM     34  C   UNL     1      34.899 -24.897 -15.329  0.00  0.00    +0.022 C 
ENDBRANCH  27  32
ENDBRANCH   6  30
TORSDOF 5
ENDMDL
