MODEL 1
REMARK VINA RESULT:     -12.2      0.000      0.000
REMARK  Name = 5287739
REMARK  3 active torsions:
REMARK  status: ('A' for Active; 'I' for Inactive)
REMARK    1  A    between atoms: C_2  and  O_21
REMARK    2  A    between atoms: C_3  and  O_23
REMARK    3  A    between atoms: C_4  and  O_25
REMARK                            x       y       z     vdW  Elec       q    Type
REMARK                         _______ _______ _______ _____ _____    ______ ____
ROOT
ATOM      1  C   UNL     1      35.630 -23.863 -13.176  0.00  0.00    -0.021 C 
ATOM      2  C   UNL     1      37.217 -24.926 -10.968  0.00  0.00    +0.168 C 
ATOM      3  C   UNL     1      37.889 -23.975 -11.960  0.00  0.00    +0.162 C 
ATOM      4  C   UNL     1      35.788 -24.467 -10.692  0.00  0.00    +0.144 C 
ATOM      5  C   UNL     1      34.947 -24.477 -11.968  0.00  0.00    +0.058 C 
ATOM      6  C   UNL     1      37.023 -23.642 -13.159  0.00  0.00    +0.003 C 
ATOM      7  C   UNL     1      34.875 -23.551 -14.348  0.00  0.00    -0.004 C 
ATOM      8  C   UNL     1      35.534 -22.979 -15.467  0.00  0.00    -0.000 C 
ATOM      9  C   UNL     1      36.924 -22.736 -15.425  0.00  0.00    -0.000 C 
ATOM     10  C   UNL     1      37.648 -23.071 -14.278  0.00  0.00    -0.002 C 
ATOM     11  C   UNL     1      34.811 -22.647 -16.647  0.00  0.00    -0.000 C 
ATOM     12  C   UNL     1      33.488 -23.785 -14.466  0.00  0.00    -0.000 C 
ATOM     13  C   UNL     1      33.422 -22.890 -16.721  0.00  0.00    -0.000 C 
ATOM     14  C   UNL     1      35.476 -22.072 -17.757  0.00  0.00    -0.000 C 
ATOM     15  C   UNL     1      37.567 -22.167 -16.532  0.00  0.00    -0.000 C 
ATOM     16  C   UNL     1      32.776 -23.462 -15.623  0.00  0.00    -0.000 C 
ATOM     17  C   UNL     1      36.853 -21.838 -17.683  0.00  0.00    -0.000 C 
ATOM     18  C   UNL     1      32.718 -22.558 -17.887  0.00  0.00    -0.000 C 
ATOM     19  C   UNL     1      34.748 -21.750 -18.912  0.00  0.00    -0.000 C 
ATOM     20  C   UNL     1      33.377 -21.991 -18.975  0.00  0.00    +0.000 C 
ENDROOT
BRANCH   2  21
ATOM     21  O   UNL     1      37.202 -26.249 -11.503  0.00  0.00    -0.379 OA
ATOM     22  H   UNL     1      37.544 -26.234 -12.410  0.00  0.00    +0.211 HD
ENDBRANCH   2  21
BRANCH   3  23
ATOM     23  O   UNL     1      38.204 -22.748 -11.305  0.00  0.00    -0.377 OA
ATOM     24  H   UNL     1      37.969 -22.814 -10.366  0.00  0.00    +0.211 HD
ENDBRANCH   3  23
BRANCH   4  25
ATOM     25  O   UNL     1      35.173 -25.324  -9.735  0.00  0.00    -0.382 OA
ATOM     26  H   UNL     1      35.461 -25.074  -8.844  0.00  0.00    +0.210 HD
ENDBRANCH   4  25
TORSDOF 3
ENDMDL
MODEL 2
REMARK VINA RESULT:     -11.1      0.970      1.269
REMARK  Name = 5287739
REMARK  3 active torsions:
REMARK  status: ('A' for Active; 'I' for Inactive)
REMARK    1  A    between atoms: C_2  and  O_21
REMARK    2  A    between atoms: C_3  and  O_23
REMARK    3  A    between atoms: C_4  and  O_25
REMARK                            x       y       z     vdW  Elec       q    Type
REMARK                         _______ _______ _______ _____ _____    ______ ____
ROOT
ATOM      1  C   UNL     1      35.242 -23.645 -14.358  0.00  0.00    -0.021 C 
ATOM      2  C   UNL     1      36.712 -24.981 -12.218  0.00  0.00    +0.168 C 
ATOM      3  C   UNL     1      37.459 -23.986 -13.109  0.00  0.00    +0.162 C 
ATOM      4  C   UNL     1      35.302 -24.469 -11.934  0.00  0.00    +0.144 C 
ATOM      5  C   UNL     1      34.496 -24.324 -13.224  0.00  0.00    +0.058 C 
ATOM      6  C   UNL     1      36.644 -23.503 -14.292  0.00  0.00    +0.003 C 
ATOM      7  C   UNL     1      34.536 -23.192 -15.514  0.00  0.00    -0.004 C 
ATOM      8  C   UNL     1      35.254 -22.563 -16.565  0.00  0.00    -0.000 C 
ATOM      9  C   UNL     1      36.653 -22.400 -16.471  0.00  0.00    -0.000 C 
ATOM     10  C   UNL     1      37.328 -22.873 -15.343  0.00  0.00    -0.002 C 
ATOM     11  C   UNL     1      34.581 -22.090 -17.726  0.00  0.00    -0.000 C 
ATOM     12  C   UNL     1      33.142 -23.338 -15.682  0.00  0.00    -0.000 C 
ATOM     13  C   UNL     1      33.183 -22.250 -17.851  0.00  0.00    -0.000 C 
ATOM     14  C   UNL     1      35.304 -21.459 -18.767  0.00  0.00    -0.000 C 
ATOM     15  C   UNL     1      37.354 -21.774 -17.510  0.00  0.00    -0.000 C 
ATOM     16  C   UNL     1      32.479 -22.877 -16.822  0.00  0.00    -0.000 C 
ATOM     17  C   UNL     1      36.689 -21.308 -18.643  0.00  0.00    -0.000 C 
ATOM     18  C   UNL     1      32.529 -21.780 -18.998  0.00  0.00    -0.000 C 
ATOM     19  C   UNL     1      34.624 -20.998 -19.904  0.00  0.00    -0.000 C 
ATOM     20  C   UNL     1      33.246 -21.158 -20.018  0.00  0.00    +0.000 C 
ENDROOT
BRANCH   2  21
ATOM     21  O   UNL     1      36.641 -26.250 -12.867  0.00  0.00    -0.379 OA
ATOM     22  H   UNL     1      35.748 -26.383 -13.220  0.00  0.00    +0.211 HD
ENDBRANCH   2  21
BRANCH   3  23
ATOM     23  O   UNL     1      37.821 -22.839 -12.341  0.00  0.00    -0.377 OA
ATOM     24  H   UNL     1      38.127 -23.121 -11.464  0.00  0.00    +0.211 HD
ENDBRANCH   3  23
BRANCH   4  25
ATOM     25  O   UNL     1      34.618 -25.371 -11.070  0.00  0.00    -0.382 OA
ATOM     26  H   UNL     1      34.630 -25.024 -10.164  0.00  0.00    +0.210 HD
ENDBRANCH   4  25
TORSDOF 3
ENDMDL
MODEL 3
REMARK VINA RESULT:     -10.9      2.969      4.854
REMARK  Name = 5287739
REMARK  3 active torsions:
REMARK  status: ('A' for Active; 'I' for Inactive)
REMARK    1  A    between atoms: C_2  and  O_21
REMARK    2  A    between atoms: C_3  and  O_23
REMARK    3  A    between atoms: C_4  and  O_25
REMARK                            x       y       z     vdW  Elec       q    Type
REMARK                         _______ _______ _______ _____ _____    ______ ____
ROOT
ATOM      1  C   UNL     1      31.756 -23.462 -15.578  0.00  0.00    -0.021 C 
ATOM      2  C   UNL     1      30.026 -24.996 -13.795  0.00  0.00    +0.168 C 
ATOM      3  C   UNL     1      31.427 -24.619 -13.309  0.00  0.00    +0.162 C 
ATOM      4  C   UNL     1      29.423 -23.843 -14.592  0.00  0.00    +0.144 C 
ATOM      5  C   UNL     1      30.261 -23.528 -15.831  0.00  0.00    +0.058 C 
ATOM      6  C   UNL     1      32.291 -23.992 -14.385  0.00  0.00    +0.003 C 
ATOM      7  C   UNL     1      32.628 -22.909 -16.564  0.00  0.00    -0.004 C 
ATOM      8  C   UNL     1      34.024 -22.859 -16.309  0.00  0.00    -0.000 C 
ATOM      9  C   UNL     1      34.542 -23.366 -15.098  0.00  0.00    -0.000 C 
ATOM     10  C   UNL     1      33.674 -23.926 -14.157  0.00  0.00    -0.002 C 
ATOM     11  C   UNL     1      34.920 -22.305 -17.265  0.00  0.00    -0.000 C 
ATOM     12  C   UNL     1      32.181 -22.402 -17.803  0.00  0.00    -0.000 C 
ATOM     13  C   UNL     1      34.430 -21.802 -18.490  0.00  0.00    -0.000 C 
ATOM     14  C   UNL     1      36.310 -22.255 -17.000  0.00  0.00    -0.000 C 
ATOM     15  C   UNL     1      35.920 -23.310 -14.850  0.00  0.00    -0.000 C 
ATOM     16  C   UNL     1      33.059 -21.860 -18.745  0.00  0.00    -0.000 C 
ATOM     17  C   UNL     1      36.793 -22.760 -15.788  0.00  0.00    -0.000 C 
ATOM     18  C   UNL     1      35.321 -21.257 -19.425  0.00  0.00    -0.000 C 
ATOM     19  C   UNL     1      37.179 -21.705 -17.953  0.00  0.00    -0.000 C 
ATOM     20  C   UNL     1      36.686 -21.209 -19.157  0.00  0.00    +0.000 C 
ENDROOT
BRANCH   2  21
ATOM     21  O   UNL     1      30.097 -26.162 -14.615  0.00  0.00    -0.379 OA
ATOM     22  H   UNL     1      29.381 -26.142 -15.268  0.00  0.00    +0.211 HD
ENDBRANCH   2  21
BRANCH   3  23
ATOM     23  O   UNL     1      31.324 -23.679 -12.241  0.00  0.00    -0.377 OA
ATOM     24  H   UNL     1      32.146 -23.684 -11.727  0.00  0.00    +0.211 HD
ENDBRANCH   3  23
BRANCH   4  25
ATOM     25  O   UNL     1      28.102 -24.173 -15.009  0.00  0.00    -0.382 OA
ATOM     26  H   UNL     1      28.075 -24.244 -15.976  0.00  0.00    +0.210 HD
ENDBRANCH   4  25
TORSDOF 3
ENDMDL
MODEL 4
REMARK VINA RESULT:     -10.8      0.914      3.143
REMARK  Name = 5287739
REMARK  3 active torsions:
REMARK  status: ('A' for Active; 'I' for Inactive)
REMARK    1  A    between atoms: C_2  and  O_21
REMARK    2  A    between atoms: C_3  and  O_23
REMARK    3  A    between atoms: C_4  and  O_25
REMARK                            x       y       z     vdW  Elec       q    Type
REMARK                         _______ _______ _______ _____ _____    ______ ____
ROOT
ATOM      1  C   UNL     1      36.552 -23.284 -13.688  0.00  0.00    -0.021 C 
ATOM      2  C   UNL     1      36.915 -23.738 -10.827  0.00  0.00    +0.168 C 
ATOM      3  C   UNL     1      35.622 -24.222 -11.486  0.00  0.00    +0.162 C 
ATOM      4  C   UNL     1      38.097 -23.972 -11.764  0.00  0.00    +0.144 C 
ATOM      5  C   UNL     1      37.933 -23.189 -13.066  0.00  0.00    +0.058 C 
ATOM      6  C   UNL     1      35.469 -23.765 -12.923  0.00  0.00    +0.003 C 
ATOM      7  C   UNL     1      36.335 -22.844 -15.029  0.00  0.00    -0.004 C 
ATOM      8  C   UNL     1      35.035 -22.940 -15.590  0.00  0.00    -0.000 C 
ATOM      9  C   UNL     1      33.966 -23.452 -14.823  0.00  0.00    -0.000 C 
ATOM     10  C   UNL     1      34.195 -23.853 -13.504  0.00  0.00    -0.002 C 
ATOM     11  C   UNL     1      34.785 -22.521 -16.927  0.00  0.00    -0.000 C 
ATOM     12  C   UNL     1      37.352 -22.306 -15.847  0.00  0.00    -0.000 C 
ATOM     13  C   UNL     1      35.834 -21.995 -17.714  0.00  0.00    -0.000 C 
ATOM     14  C   UNL     1      33.486 -22.625 -17.481  0.00  0.00    -0.000 C 
ATOM     15  C   UNL     1      32.686 -23.548 -15.385  0.00  0.00    -0.000 C 
ATOM     16  C   UNL     1      37.110 -21.891 -17.158  0.00  0.00    -0.000 C 
ATOM     17  C   UNL     1      32.449 -23.141 -16.697  0.00  0.00    -0.000 C 
ATOM     18  C   UNL     1      35.578 -21.585 -19.030  0.00  0.00    -0.000 C 
ATOM     19  C   UNL     1      33.258 -22.208 -18.800  0.00  0.00    -0.000 C 
ATOM     20  C   UNL     1      34.299 -21.692 -19.569  0.00  0.00    +0.000 C 
ENDROOT
BRANCH   2  21
ATOM     21  O   UNL     1      36.810 -22.348 -10.522  0.00  0.00    -0.379 OA
ATOM     22  H   UNL     1      36.209 -22.226  -9.771  0.00  0.00    +0.211 HD
ENDBRANCH   2  21
BRANCH   3  23
ATOM     23  O   UNL     1      35.591 -25.648 -11.484  0.00  0.00    -0.377 OA
ATOM     24  H   UNL     1      36.310 -25.985 -10.925  0.00  0.00    +0.211 HD
ENDBRANCH   3  23
BRANCH   4  25
ATOM     25  O   UNL     1      39.309 -23.563 -11.137  0.00  0.00    -0.382 OA
ATOM     26  H   UNL     1      40.043 -24.102 -11.469  0.00  0.00    +0.210 HD
ENDBRANCH   4  25
TORSDOF 3
ENDMDL
MODEL 5
REMARK VINA RESULT:     -10.6      1.487      3.697
REMARK  Name = 5287739
REMARK  3 active torsions:
REMARK  status: ('A' for Active; 'I' for Inactive)
REMARK    1  A    between atoms: C_2  and  O_21
REMARK    2  A    between atoms: C_3  and  O_23
REMARK    3  A    between atoms: C_4  and  O_25
REMARK                            x       y       z     vdW  Elec       q    Type
REMARK                         _______ _______ _______ _____ _____    ______ ____
ROOT
ATOM      1  C   UNL     1      36.515 -23.384 -15.486  0.00  0.00    -0.021 C 
ATOM      2  C   UNL     1      37.083 -24.523 -12.858  0.00  0.00    +0.168 C 
ATOM      3  C   UNL     1      35.700 -24.750 -13.471  0.00  0.00    +0.162 C 
ATOM      4  C   UNL     1      38.153 -24.606 -13.943  0.00  0.00    +0.144 C 
ATOM      5  C   UNL     1      37.948 -23.529 -15.007  0.00  0.00    +0.058 C 
ATOM      6  C   UNL     1      35.464 -23.959 -14.741  0.00  0.00    +0.003 C 
ATOM      7  C   UNL     1      36.222 -22.627 -16.661  0.00  0.00    -0.004 C 
ATOM      8  C   UNL     1      34.875 -22.501 -17.089  0.00  0.00    -0.000 C 
ATOM      9  C   UNL     1      33.836 -23.107 -16.351  0.00  0.00    -0.000 C 
ATOM     10  C   UNL     1      34.141 -23.823 -15.190  0.00  0.00    -0.002 C 
ATOM     11  C   UNL     1      34.549 -21.763 -18.261  0.00  0.00    -0.000 C 
ATOM     12  C   UNL     1      37.209 -21.980 -17.436  0.00  0.00    -0.000 C 
ATOM     13  C   UNL     1      35.568 -21.137 -19.012  0.00  0.00    -0.000 C 
ATOM     14  C   UNL     1      33.203 -21.647 -18.684  0.00  0.00    -0.000 C 
ATOM     15  C   UNL     1      32.509 -22.983 -16.782  0.00  0.00    -0.000 C 
ATOM     16  C   UNL     1      36.891 -21.252 -18.585  0.00  0.00    -0.000 C 
ATOM     17  C   UNL     1      32.195 -22.263 -17.935  0.00  0.00    -0.000 C 
ATOM     18  C   UNL     1      35.236 -20.413 -20.166  0.00  0.00    -0.000 C 
ATOM     19  C   UNL     1      32.899 -20.916 -19.842  0.00  0.00    -0.000 C 
ATOM     20  C   UNL     1      33.911 -20.304 -20.578  0.00  0.00    +0.000 C 
ENDROOT
BRANCH   2  21
ATOM     21  O   UNL     1      37.129 -23.239 -12.235  0.00  0.00    -0.379 OA
ATOM     22  H   UNL     1      37.523 -22.598 -12.846  0.00  0.00    +0.211 HD
ENDBRANCH   2  21
BRANCH   3  23
ATOM     23  O   UNL     1      35.543 -26.132 -13.791  0.00  0.00    -0.377 OA
ATOM     24  H   UNL     1      35.312 -26.221 -14.729  0.00  0.00    +0.211 HD
ENDBRANCH   3  23
BRANCH   4  25
ATOM     25  O   UNL     1      39.447 -24.438 -13.370  0.00  0.00    -0.382 OA
ATOM     26  H   UNL     1      39.691 -25.240 -12.882  0.00  0.00    +0.210 HD
ENDBRANCH   4  25
TORSDOF 3
ENDMDL
MODEL 6
REMARK VINA RESULT:     -10.0      1.871      3.186
REMARK  Name = 5287739
REMARK  3 active torsions:
REMARK  status: ('A' for Active; 'I' for Inactive)
REMARK    1  A    between atoms: C_2  and  O_21
REMARK    2  A    between atoms: C_3  and  O_23
REMARK    3  A    between atoms: C_4  and  O_25
REMARK                            x       y       z     vdW  Elec       q    Type
REMARK                         _______ _______ _______ _____ _____    ______ ____
ROOT
ATOM      1  C   UNL     1      34.997 -24.041 -13.259  0.00  0.00    -0.021 C 
ATOM      2  C   UNL     1      37.760 -24.891 -12.845  0.00  0.00    +0.168 C 
ATOM      3  C   UNL     1      37.412 -24.131 -14.127  0.00  0.00    +0.162 C 
ATOM      4  C   UNL     1      36.986 -24.307 -11.667  0.00  0.00    +0.144 C 
ATOM      5  C   UNL     1      35.478 -24.439 -11.875  0.00  0.00    +0.058 C 
ATOM      6  C   UNL     1      35.924 -23.911 -14.314  0.00  0.00    +0.003 C 
ATOM      7  C   UNL     1      33.604 -23.846 -13.508  0.00  0.00    -0.004 C 
ATOM      8  C   UNL     1      33.176 -23.477 -14.810  0.00  0.00    -0.000 C 
ATOM      9  C   UNL     1      34.118 -23.320 -15.849  0.00  0.00    -0.000 C 
ATOM     10  C   UNL     1      35.474 -23.541 -15.590  0.00  0.00    -0.002 C 
ATOM     11  C   UNL     1      31.798 -23.264 -15.090  0.00  0.00    -0.000 C 
ATOM     12  C   UNL     1      32.607 -24.003 -12.521  0.00  0.00    -0.000 C 
ATOM     13  C   UNL     1      30.833 -23.425 -14.072  0.00  0.00    -0.000 C 
ATOM     14  C   UNL     1      31.380 -22.892 -16.391  0.00  0.00    -0.000 C 
ATOM     15  C   UNL     1      33.689 -22.952 -17.131  0.00  0.00    -0.000 C 
ATOM     16  C   UNL     1      31.253 -23.797 -12.794  0.00  0.00    -0.000 C 
ATOM     17  C   UNL     1      32.337 -22.738 -17.399  0.00  0.00    -0.000 C 
ATOM     18  C   UNL     1      29.477 -23.212 -14.358  0.00  0.00    -0.000 C 
ATOM     19  C   UNL     1      30.017 -22.685 -16.650  0.00  0.00    -0.000 C 
ATOM     20  C   UNL     1      29.072 -22.843 -15.639  0.00  0.00    +0.000 C 
ENDROOT
BRANCH   2  21
ATOM     21  O   UNL     1      37.431 -26.272 -13.000  0.00  0.00    -0.379 OA
ATOM     22  H   UNL     1      38.242 -26.782 -13.149  0.00  0.00    +0.211 HD
ENDBRANCH   2  21
BRANCH   3  23
ATOM     23  O   UNL     1      38.035 -22.848 -14.103  0.00  0.00    -0.377 OA
ATOM     24  H   UNL     1      38.999 -22.959 -14.070  0.00  0.00    +0.211 HD
ENDBRANCH   3  23
BRANCH   4  25
ATOM     25  O   UNL     1      37.340 -24.983 -10.464  0.00  0.00    -0.382 OA
ATOM     26  H   UNL     1      36.621 -25.581 -10.205  0.00  0.00    +0.210 HD
ENDBRANCH   4  25
TORSDOF 3
ENDMDL
MODEL 7
REMARK VINA RESULT:     -10.0      2.049      4.387
REMARK  Name = 5287739
REMARK  3 active torsions:
REMARK  status: ('A' for Active; 'I' for Inactive)
REMARK    1  A    between atoms: C_2  and  O_21
REMARK    2  A    between atoms: C_3  and  O_23
REMARK    3  A    between atoms: C_4  and  O_25
REMARK                            x       y       z     vdW  Elec       q    Type
REMARK                         _______ _______ _______ _____ _____    ______ ____
ROOT
ATOM      1  C   UNL     1      35.353 -24.073 -14.385  0.00  0.00    -0.021 C 
ATOM      2  C   UNL     1      37.862 -24.373 -12.922  0.00  0.00    +0.168 C 
ATOM      3  C   UNL     1      36.585 -24.950 -12.310  0.00  0.00    +0.162 C 
ATOM      4  C   UNL     1      37.861 -24.592 -14.432  0.00  0.00    +0.144 C 
ATOM      5  C   UNL     1      36.682 -23.880 -15.094  0.00  0.00    +0.058 C 
ATOM      6  C   UNL     1      35.327 -24.571 -13.065  0.00  0.00    +0.003 C 
ATOM      7  C   UNL     1      34.133 -23.709 -15.032  0.00  0.00    -0.004 C 
ATOM      8  C   UNL     1      32.903 -23.896 -14.350  0.00  0.00    -0.000 C 
ATOM      9  C   UNL     1      32.889 -24.423 -13.041  0.00  0.00    -0.000 C 
ATOM     10  C   UNL     1      34.096 -24.749 -12.417  0.00  0.00    -0.002 C 
ATOM     11  C   UNL     1      31.668 -23.553 -14.969  0.00  0.00    -0.000 C 
ATOM     12  C   UNL     1      34.075 -23.160 -16.331  0.00  0.00    -0.000 C 
ATOM     13  C   UNL     1      31.653 -23.014 -16.274  0.00  0.00    -0.000 C 
ATOM     14  C   UNL     1      30.444 -23.747 -14.284  0.00  0.00    -0.000 C 
ATOM     15  C   UNL     1      31.670 -24.608 -12.375  0.00  0.00    -0.000 C 
ATOM     16  C   UNL     1      32.864 -22.821 -16.940  0.00  0.00    -0.000 C 
ATOM     17  C   UNL     1      30.462 -24.276 -12.989  0.00  0.00    -0.000 C 
ATOM     18  C   UNL     1      30.431 -22.680 -16.875  0.00  0.00    -0.000 C 
ATOM     19  C   UNL     1      29.236 -23.405 -14.909  0.00  0.00    -0.000 C 
ATOM     20  C   UNL     1      29.231 -22.876 -16.197  0.00  0.00    +0.000 C 
ENDROOT
BRANCH   2  21
ATOM     21  O   UNL     1      37.944 -22.976 -12.638  0.00  0.00    -0.379 OA
ATOM     22  H   UNL     1      38.859 -22.677 -12.751  0.00  0.00    +0.211 HD
ENDBRANCH   2  21
BRANCH   3  23
ATOM     23  O   UNL     1      36.664 -26.375 -12.298  0.00  0.00    -0.377 OA
ATOM     24  H   UNL     1      36.460 -26.716 -13.183  0.00  0.00    +0.211 HD
ENDBRANCH   3  23
BRANCH   4  25
ATOM     25  O   UNL     1      39.069 -24.094 -15.001  0.00  0.00    -0.382 OA
ATOM     26  H   UNL     1      39.187 -24.467 -15.888  0.00  0.00    +0.210 HD
ENDBRANCH   4  25
TORSDOF 3
ENDMDL
MODEL 8
REMARK VINA RESULT:      -9.9      1.944      4.213
REMARK  Name = 5287739
REMARK  3 active torsions:
REMARK  status: ('A' for Active; 'I' for Inactive)
REMARK    1  A    between atoms: C_2  and  O_21
REMARK    2  A    between atoms: C_3  and  O_23
REMARK    3  A    between atoms: C_4  and  O_25
REMARK                            x       y       z     vdW  Elec       q    Type
REMARK                         _______ _______ _______ _____ _____    ______ ____
ROOT
ATOM      1  C   UNL     1      34.160 -23.481 -14.960  0.00  0.00    -0.021 C 
ATOM      2  C   UNL     1      32.568 -24.333 -12.665  0.00  0.00    +0.168 C 
ATOM      3  C   UNL     1      31.878 -24.197 -14.024  0.00  0.00    +0.162 C 
ATOM      4  C   UNL     1      33.967 -24.915 -12.847  0.00  0.00    +0.144 C 
ATOM      5  C   UNL     1      34.839 -24.002 -13.707  0.00  0.00    +0.058 C 
ATOM      6  C   UNL     1      32.757 -23.572 -15.088  0.00  0.00    +0.003 C 
ATOM      7  C   UNL     1      34.928 -22.856 -15.989  0.00  0.00    -0.004 C 
ATOM      8  C   UNL     1      34.272 -22.373 -17.151  0.00  0.00    -0.000 C 
ATOM      9  C   UNL     1      32.872 -22.499 -17.280  0.00  0.00    -0.000 C 
ATOM     10  C   UNL     1      32.135 -23.091 -16.250  0.00  0.00    -0.002 C 
ATOM     11  C   UNL     1      35.008 -21.755 -18.200  0.00  0.00    -0.000 C 
ATOM     12  C   UNL     1      36.327 -22.681 -15.918  0.00  0.00    -0.000 C 
ATOM     13  C   UNL     1      36.408 -21.606 -18.093  0.00  0.00    -0.000 C 
ATOM     14  C   UNL     1      34.346 -21.281 -19.358  0.00  0.00    -0.000 C 
ATOM     15  C   UNL     1      32.231 -22.024 -18.432  0.00  0.00    -0.000 C 
ATOM     16  C   UNL     1      37.052 -22.072 -16.945  0.00  0.00    -0.000 C 
ATOM     17  C   UNL     1      32.958 -21.424 -19.459  0.00  0.00    -0.000 C 
ATOM     18  C   UNL     1      37.125 -20.996 -19.132  0.00  0.00    -0.000 C 
ATOM     19  C   UNL     1      35.087 -20.674 -20.383  0.00  0.00    -0.000 C 
ATOM     20  C   UNL     1      36.468 -20.534 -20.269  0.00  0.00    +0.000 C 
ENDROOT
BRANCH   2  21
ATOM     21  O   UNL     1      32.657 -23.053 -12.040  0.00  0.00    -0.379 OA
ATOM     22  H   UNL     1      33.280 -23.099 -11.298  0.00  0.00    +0.211 HD
ENDBRANCH   2  21
BRANCH   3  23
ATOM     23  O   UNL     1      31.491 -25.488 -14.492  0.00  0.00    -0.377 OA
ATOM     24  H   UNL     1      31.535 -25.506 -15.461  0.00  0.00    +0.211 HD
ENDBRANCH   3  23
BRANCH   4  25
ATOM     25  O   UNL     1      34.596 -25.084 -11.580  0.00  0.00    -0.382 OA
ATOM     26  H   UNL     1      35.330 -24.455 -11.497  0.00  0.00    +0.210 HD
ENDBRANCH   4  25
TORSDOF 3
ENDMDL
MODEL 9
REMARK VINA RESULT:      -9.8      1.546      3.749
REMARK  Name = 5287739
REMARK  3 active torsions:
REMARK  status: ('A' for Active; 'I' for Inactive)
REMARK    1  A    between atoms: C_2  and  O_21
REMARK    2  A    between atoms: C_3  and  O_23
REMARK    3  A    between atoms: C_4  and  O_25
REMARK                            x       y       z     vdW  Elec       q    Type
REMARK                         _______ _______ _______ _____ _____    ______ ____
ROOT
ATOM      1  C   UNL     1      35.188 -23.576 -14.880  0.00  0.00    -0.021 C 
ATOM      2  C   UNL     1      34.285 -24.623 -12.308  0.00  0.00    +0.168 C 
ATOM      3  C   UNL     1      33.287 -24.567 -13.466  0.00  0.00    +0.162 C 
ATOM      4  C   UNL     1      35.662 -25.030 -12.826  0.00  0.00    +0.144 C 
ATOM      5  C   UNL     1      36.197 -24.015 -13.834  0.00  0.00    +0.058 C 
ATOM      6  C   UNL     1      33.815 -23.836 -14.684  0.00  0.00    +0.003 C 
ATOM      7  C   UNL     1      35.617 -22.858 -16.037  0.00  0.00    -0.004 C 
ATOM      8  C   UNL     1      34.656 -22.455 -17.001  0.00  0.00    -0.000 C 
ATOM      9  C   UNL     1      33.290 -22.749 -16.807  0.00  0.00    -0.000 C 
ATOM     10  C   UNL     1      32.888 -23.430 -15.655  0.00  0.00    -0.002 C 
ATOM     11  C   UNL     1      35.051 -21.748 -18.171  0.00  0.00    -0.000 C 
ATOM     12  C   UNL     1      36.964 -22.515 -16.286  0.00  0.00    -0.000 C 
ATOM     13  C   UNL     1      36.410 -21.431 -18.385  0.00  0.00    -0.000 C 
ATOM     14  C   UNL     1      34.087 -21.354 -19.130  0.00  0.00    -0.000 C 
ATOM     15  C   UNL     1      32.347 -22.352 -17.765  0.00  0.00    -0.000 C 
ATOM     16  C   UNL     1      37.353 -21.819 -17.432  0.00  0.00    -0.000 C 
ATOM     17  C   UNL     1      32.740 -21.664 -18.913  0.00  0.00    -0.000 C 
ATOM     18  C   UNL     1      36.789 -20.735 -19.542  0.00  0.00    -0.000 C 
ATOM     19  C   UNL     1      34.493 -20.658 -20.278  0.00  0.00    -0.000 C 
ATOM     20  C   UNL     1      35.836 -20.352 -20.482  0.00  0.00    +0.000 C 
ENDROOT
BRANCH   2  21
ATOM     21  O   UNL     1      34.367 -23.344 -11.680  0.00  0.00    -0.379 OA
ATOM     22  H   UNL     1      33.958 -23.389 -10.802  0.00  0.00    +0.211 HD
ENDBRANCH   2  21
BRANCH   3  23
ATOM     23  O   UNL     1      32.956 -25.894 -13.873  0.00  0.00    -0.377 OA
ATOM     24  H   UNL     1      32.774 -26.436 -13.089  0.00  0.00    +0.211 HD
ENDBRANCH   3  23
BRANCH   4  25
ATOM     25  O   UNL     1      36.584 -25.126 -11.744  0.00  0.00    -0.382 OA
ATOM     26  H   UNL     1      36.662 -26.052 -11.465  0.00  0.00    +0.210 HD
ENDBRANCH   4  25
TORSDOF 3
ENDMDL
