MODEL 1
REMARK VINA RESULT:     -11.9      0.000      0.000
REMARK  Name = 17758361
REMARK  5 active torsions:
REMARK  status: ('A' for Active; 'I' for Inactive)
REMARK    1  A    between atoms: N_1  and  C_18
REMARK    2  A    between atoms: C_4  and  C_10
REMARK    3  A    between atoms: C_10  and  C_11
REMARK    4  A    between atoms: C_18  and  C_19
REMARK    5  A    between atoms: C_22  and  C_27
REMARK                            x       y       z     vdW  Elec       q    Type
REMARK                         _______ _______ _______ _____ _____    ______ ____
ROOT
ATOM      1  N   UNL     1      32.585 -22.498 -17.969  0.00  0.00    -0.314 N 
ATOM      2  N   UNL     1      30.647 -22.531 -16.633  0.00  0.00    -0.229 NA
ATOM      3  C   UNL     1      31.957 -22.829 -16.780  0.00  0.00    +0.129 C 
ATOM      4  C   UNL     1      32.109 -23.787 -14.609  0.00  0.00    +0.043 C 
ATOM      5  C   UNL     1      32.726 -23.450 -15.808  0.00  0.00    +0.037 C 
ATOM      6  C   UNL     1      30.762 -23.496 -14.420  0.00  0.00    +0.024 C 
ATOM      7  C   UNL     1      30.082 -22.873 -15.453  0.00  0.00    +0.100 C 
ATOM      8  H   UNL     1      32.051 -22.057 -18.669  0.00  0.00    +0.149 HD
ENDROOT
BRANCH   4  10
ATOM      9  O   UNL     1      32.285 -25.048 -12.647  0.00  0.00    -0.287 OA
ATOM     10  C   UNL     1      32.869 -24.440 -13.554  0.00  0.00    +0.196 C 
BRANCH  10  11
ATOM     11  C   UNL     1      34.363 -24.412 -13.510  0.00  0.00    +0.039 C 
ATOM     12  C   UNL     1      35.018 -23.770 -12.458  0.00  0.00    -0.001 C 
ATOM     13  C   UNL     1      36.411 -23.745 -12.416  0.00  0.00    -0.022 C 
ATOM     14  C   UNL     1      35.102 -25.031 -14.517  0.00  0.00    +0.003 C 
ATOM     15  C   UNL     1      37.151 -24.364 -13.425  0.00  0.00    -0.004 C 
ATOM     16  C   UNL     1      36.496 -25.007 -14.475  0.00  0.00    -0.000 C 
ATOM     17  C   UNL     1      37.112 -23.061 -11.292  0.00  0.00    +0.031 C 
ENDBRANCH  10  11
ENDBRANCH   4  10
BRANCH   1  18
ATOM     18  C   UNL     1      33.980 -22.765 -18.239  0.00  0.00    +0.115 C 
BRANCH  18  19
ATOM     19  C   UNL     1      34.580 -21.682 -19.072  0.00  0.00    -0.003 C 
ATOM     20  C   UNL     1      33.760 -20.872 -19.857  0.00  0.00    -0.003 C 
ATOM     21  C   UNL     1      35.961 -21.481 -19.066  0.00  0.00    -0.003 C 
ATOM     22  C   UNL     1      35.700 -19.659 -20.631  0.00  0.00    +0.031 C 
ATOM     23  C   UNL     1      34.321 -19.861 -20.637  0.00  0.00    +0.002 C 
ATOM     24  C   UNL     1      36.520 -20.469 -19.846  0.00  0.00    +0.002 C 
BRANCH  22  27
ATOM     25  N   UNL     1      37.651 -18.564 -21.709  0.00  0.00    -0.343 N 
ATOM     26  N   UNL     1      35.511 -17.656 -21.945  0.00  0.00    -0.285 NA
ATOM     27  C   UNL     1      36.284 -18.604 -21.444  0.00  0.00    +0.117 C 
ATOM     28  H   UNL     1      38.025 -17.841 -22.262  0.00  0.00    +0.144 HD
ATOM     29  H   UNL     1      38.244 -19.260 -21.342  0.00  0.00    +0.144 HD
ATOM     30  H   UNL     1      35.903 -16.941 -22.496  0.00  0.00    +0.188 HD
ENDBRANCH  22  27
ENDBRANCH  18  19
ENDBRANCH   1  18
TORSDOF 5
ENDMDL
MODEL 2
REMARK VINA RESULT:     -11.6      1.676      4.259
REMARK  Name = 17758361
REMARK  5 active torsions:
REMARK  status: ('A' for Active; 'I' for Inactive)
REMARK    1  A    between atoms: N_1  and  C_18
REMARK    2  A    between atoms: C_4  and  C_10
REMARK    3  A    between atoms: C_10  and  C_11
REMARK    4  A    between atoms: C_18  and  C_19
REMARK    5  A    between atoms: C_22  and  C_27
REMARK                            x       y       z     vdW  Elec       q    Type
REMARK                         _______ _______ _______ _____ _____    ______ ____
ROOT
ATOM      1  N   UNL     1      34.891 -22.910 -17.241  0.00  0.00    -0.314 N 
ATOM      2  N   UNL     1      35.959 -23.746 -15.317  0.00  0.00    -0.229 NA
ATOM      3  C   UNL     1      34.829 -23.308 -15.916  0.00  0.00    +0.129 C 
ATOM      4  C   UNL     1      33.520 -23.627 -13.957  0.00  0.00    +0.043 C 
ATOM      5  C   UNL     1      33.597 -23.230 -15.287  0.00  0.00    +0.037 C 
ATOM      6  C   UNL     1      34.661 -24.084 -13.306  0.00  0.00    +0.024 C 
ATOM      7  C   UNL     1      35.845 -24.124 -14.024  0.00  0.00    +0.100 C 
ATOM      8  H   UNL     1      35.760 -22.960 -17.700  0.00  0.00    +0.149 HD
ENDROOT
BRANCH   4  10
ATOM      9  O   UNL     1      32.204 -23.142 -12.085  0.00  0.00    -0.287 OA
ATOM     10  C   UNL     1      32.251 -23.567 -13.248  0.00  0.00    +0.196 C 
BRANCH  10  11
ATOM     11  C   UNL     1      30.964 -24.004 -13.871  0.00  0.00    +0.039 C 
ATOM     12  C   UNL     1      30.118 -23.062 -14.458  0.00  0.00    -0.001 C 
ATOM     13  C   UNL     1      28.918 -23.470 -15.040  0.00  0.00    -0.022 C 
ATOM     14  C   UNL     1      30.612 -25.352 -13.867  0.00  0.00    +0.003 C 
ATOM     15  C   UNL     1      28.565 -24.820 -15.036  0.00  0.00    -0.004 C 
ATOM     16  C   UNL     1      29.412 -25.761 -14.450  0.00  0.00    -0.000 C 
ATOM     17  C   UNL     1      28.014 -22.465 -15.670  0.00  0.00    +0.031 C 
ENDBRANCH  10  11
ENDBRANCH   4  10
BRANCH   1  18
ATOM     18  C   UNL     1      33.749 -22.426 -17.985  0.00  0.00    +0.115 C 
BRANCH  18  19
ATOM     19  C   UNL     1      34.176 -21.500 -19.075  0.00  0.00    -0.003 C 
ATOM     20  C   UNL     1      33.217 -20.847 -19.849  0.00  0.00    -0.003 C 
ATOM     21  C   UNL     1      35.533 -21.288 -19.319  0.00  0.00    -0.003 C 
ATOM     22  C   UNL     1      34.971 -19.770 -21.113  0.00  0.00    +0.031 C 
ATOM     23  C   UNL     1      33.615 -19.983 -20.868  0.00  0.00    +0.002 C 
ATOM     24  C   UNL     1      35.930 -20.423 -20.338  0.00  0.00    +0.002 C 
BRANCH  22  27
ATOM     25  N   UNL     1      36.649 -18.280 -22.178  0.00  0.00    -0.343 N 
ATOM     26  N   UNL     1      34.552 -18.590 -23.163  0.00  0.00    -0.285 NA
ATOM     27  C   UNL     1      35.385 -18.868 -22.176  0.00  0.00    +0.117 C 
ATOM     28  H   UNL     1      36.908 -17.673 -22.907  0.00  0.00    +0.144 HD
ATOM     29  H   UNL     1      37.282 -18.473 -21.449  0.00  0.00    +0.144 HD
ATOM     30  H   UNL     1      34.830 -17.980 -23.884  0.00  0.00    +0.188 HD
ENDBRANCH  22  27
ENDBRANCH  18  19
ENDBRANCH   1  18
TORSDOF 5
ENDMDL
MODEL 3
REMARK VINA RESULT:     -11.2      6.095      9.731
REMARK  Name = 17758361
REMARK  5 active torsions:
REMARK  status: ('A' for Active; 'I' for Inactive)
REMARK    1  A    between atoms: N_1  and  C_18
REMARK    2  A    between atoms: C_4  and  C_10
REMARK    3  A    between atoms: C_10  and  C_11
REMARK    4  A    between atoms: C_18  and  C_19
REMARK    5  A    between atoms: C_22  and  C_27
REMARK                            x       y       z     vdW  Elec       q    Type
REMARK                         _______ _______ _______ _____ _____    ______ ____
ROOT
ATOM      1  N   UNL     1      33.851 -14.936 -23.731  0.00  0.00    -0.314 N 
ATOM      2  N   UNL     1      33.497 -17.020 -24.766  0.00  0.00    -0.229 NA
ATOM      3  C   UNL     1      34.074 -16.302 -23.777  0.00  0.00    +0.129 C 
ATOM      4  C   UNL     1      35.113 -18.217 -22.825  0.00  0.00    +0.043 C 
ATOM      5  C   UNL     1      34.882 -16.846 -22.792  0.00  0.00    +0.037 C 
ATOM      6  C   UNL     1      34.537 -18.990 -23.827  0.00  0.00    +0.024 C 
ATOM      7  C   UNL     1      33.744 -18.349 -24.766  0.00  0.00    +0.100 C 
ATOM      8  H   UNL     1      33.279 -14.535 -24.425  0.00  0.00    +0.149 HD
ENDROOT
BRANCH   4  10
ATOM      9  O   UNL     1      37.169 -18.605 -21.780  0.00  0.00    -0.287 OA
ATOM     10  C   UNL     1      35.953 -18.841 -21.815  0.00  0.00    +0.196 C 
BRANCH  10  11
ATOM     11  C   UNL     1      35.407 -19.780 -20.788  0.00  0.00    +0.039 C 
ATOM     12  C   UNL     1      36.266 -20.391 -19.874  0.00  0.00    -0.001 C 
ATOM     13  C   UNL     1      35.757 -21.266 -18.916  0.00  0.00    -0.022 C 
ATOM     14  C   UNL     1      34.039 -20.044 -20.743  0.00  0.00    +0.003 C 
ATOM     15  C   UNL     1      34.387 -21.530 -18.870  0.00  0.00    -0.004 C 
ATOM     16  C   UNL     1      33.529 -20.919 -19.783  0.00  0.00    -0.000 C 
ATOM     17  C   UNL     1      36.674 -21.917 -17.937  0.00  0.00    +0.031 C 
ENDBRANCH  10  11
ENDBRANCH   4  10
BRANCH   1  18
ATOM     18  C   UNL     1      34.412 -14.067 -22.720  0.00  0.00    +0.115 C 
BRANCH  18  19
ATOM     19  C   UNL     1      33.736 -12.737 -22.724  0.00  0.00    -0.003 C 
ATOM     20  C   UNL     1      34.151 -11.747 -23.615  0.00  0.00    -0.003 C 
ATOM     21  C   UNL     1      32.691 -12.482 -21.835  0.00  0.00    -0.003 C 
ATOM     22  C   UNL     1      32.476 -10.249 -22.729  0.00  0.00    +0.031 C 
ATOM     23  C   UNL     1      33.520 -10.503 -23.617  0.00  0.00    +0.002 C 
ATOM     24  C   UNL     1      32.061 -11.238 -21.838  0.00  0.00    +0.002 C 
BRANCH  22  27
ATOM     25  N   UNL     1      31.494  -8.306 -23.925  0.00  0.00    -0.343 N 
ATOM     26  N   UNL     1      31.522  -8.361 -21.589  0.00  0.00    -0.285 NA
ATOM     27  C   UNL     1      31.819  -8.951 -22.733  0.00  0.00    +0.117 C 
ATOM     28  H   UNL     1      31.049  -7.428 -23.904  0.00  0.00    +0.144 HD
ATOM     29  H   UNL     1      31.709  -8.728 -24.788  0.00  0.00    +0.144 HD
ATOM     30  H   UNL     1      31.077  -7.483 -21.588  0.00  0.00    +0.188 HD
ENDBRANCH  22  27
ENDBRANCH  18  19
ENDBRANCH   1  18
TORSDOF 5
ENDMDL
MODEL 4
REMARK VINA RESULT:     -11.1      3.604      9.049
REMARK  Name = 17758361
REMARK  5 active torsions:
REMARK  status: ('A' for Active; 'I' for Inactive)
REMARK    1  A    between atoms: N_1  and  C_18
REMARK    2  A    between atoms: C_4  and  C_10
REMARK    3  A    between atoms: C_10  and  C_11
REMARK    4  A    between atoms: C_18  and  C_19
REMARK    5  A    between atoms: C_22  and  C_27
REMARK                            x       y       z     vdW  Elec       q    Type
REMARK                         _______ _______ _______ _____ _____    ______ ____
ROOT
ATOM      1  N   UNL     1      34.542 -22.793 -17.046  0.00  0.00    -0.314 N 
ATOM      2  N   UNL     1      32.812 -22.125 -18.496  0.00  0.00    -0.229 NA
ATOM      3  C   UNL     1      34.115 -22.059 -18.140  0.00  0.00    +0.129 C 
ATOM      4  C   UNL     1      34.648 -20.559 -19.906  0.00  0.00    +0.043 C 
ATOM      5  C   UNL     1      35.063 -21.299 -18.805  0.00  0.00    +0.037 C 
ATOM      6  C   UNL     1      33.315 -20.601 -20.303  0.00  0.00    +0.024 C 
ATOM      7  C   UNL     1      32.445 -21.392 -19.571  0.00  0.00    +0.100 C 
ATOM      8  H   UNL     1      33.879 -23.337 -16.564  0.00  0.00    +0.149 HD
ENDROOT
BRANCH   4  10
ATOM      9  O   UNL     1      36.778 -19.658 -20.258  0.00  0.00    -0.287 OA
ATOM     10  C   UNL     1      35.602 -19.744 -20.641  0.00  0.00    +0.196 C 
BRANCH  10  11
ATOM     11  C   UNL     1      35.225 -18.983 -21.871  0.00  0.00    +0.039 C 
ATOM     12  C   UNL     1      35.273 -17.588 -21.871  0.00  0.00    -0.001 C 
ATOM     13  C   UNL     1      34.922 -16.878 -23.018  0.00  0.00    -0.022 C 
ATOM     14  C   UNL     1      34.827 -19.667 -23.019  0.00  0.00    +0.003 C 
ATOM     15  C   UNL     1      34.523 -17.563 -24.167  0.00  0.00    -0.004 C 
ATOM     16  C   UNL     1      34.477 -18.957 -24.167  0.00  0.00    -0.000 C 
ATOM     17  C   UNL     1      34.975 -15.388 -23.020  0.00  0.00    +0.031 C 
ENDBRANCH  10  11
ENDBRANCH   4  10
BRANCH   1  18
ATOM     18  C   UNL     1      35.910 -22.802 -16.574  0.00  0.00    +0.115 C 
BRANCH  18  19
ATOM     19  C   UNL     1      35.974 -23.182 -15.133  0.00  0.00    -0.003 C 
ATOM     20  C   UNL     1      34.843 -23.690 -14.495  0.00  0.00    -0.003 C 
ATOM     21  C   UNL     1      37.165 -23.027 -14.423  0.00  0.00    -0.003 C 
ATOM     22  C   UNL     1      36.093 -23.889 -12.438  0.00  0.00    +0.031 C 
ATOM     23  C   UNL     1      34.902 -24.043 -13.147  0.00  0.00    +0.002 C 
ATOM     24  C   UNL     1      37.224 -23.381 -13.076  0.00  0.00    +0.002 C 
BRANCH  22  27
ATOM     25  N   UNL     1      37.084 -23.681 -10.170  0.00  0.00    -0.343 N 
ATOM     26  N   UNL     1      35.317 -25.162 -10.553  0.00  0.00    -0.285 NA
ATOM     27  C   UNL     1      36.154 -24.258 -11.032  0.00  0.00    +0.117 C 
ATOM     28  H   UNL     1      37.107 -23.945  -9.222  0.00  0.00    +0.144 HD
ATOM     29  H   UNL     1      37.718 -23.007 -10.509  0.00  0.00    +0.144 HD
ATOM     30  H   UNL     1      35.356 -25.413  -9.602  0.00  0.00    +0.188 HD
ENDBRANCH  22  27
ENDBRANCH  18  19
ENDBRANCH   1  18
TORSDOF 5
ENDMDL
MODEL 5
REMARK VINA RESULT:     -11.1      3.740      6.949
REMARK  Name = 17758361
REMARK  5 active torsions:
REMARK  status: ('A' for Active; 'I' for Inactive)
REMARK    1  A    between atoms: N_1  and  C_18
REMARK    2  A    between atoms: C_4  and  C_10
REMARK    3  A    between atoms: C_10  and  C_11
REMARK    4  A    between atoms: C_18  and  C_19
REMARK    5  A    between atoms: C_22  and  C_27
REMARK                            x       y       z     vdW  Elec       q    Type
REMARK                         _______ _______ _______ _____ _____    ______ ____
ROOT
ATOM      1  N   UNL     1      34.477 -24.031 -12.719  0.00  0.00    -0.314 N 
ATOM      2  N   UNL     1      32.328 -24.976 -12.876  0.00  0.00    -0.229 NA
ATOM      3  C   UNL     1      33.277 -24.166 -13.395  0.00  0.00    +0.129 C 
ATOM      4  C   UNL     1      31.929 -23.582 -15.265  0.00  0.00    +0.043 C 
ATOM      5  C   UNL     1      33.129 -23.454 -14.575  0.00  0.00    +0.037 C 
ATOM      6  C   UNL     1      30.928 -24.406 -14.762  0.00  0.00    +0.024 C 
ATOM      7  C   UNL     1      31.175 -25.076 -13.575  0.00  0.00    +0.100 C 
ATOM      8  H   UNL     1      34.596 -24.530 -11.879  0.00  0.00    +0.149 HD
ENDROOT
BRANCH   4  10
ATOM      9  O   UNL     1      30.574 -22.562 -16.876  0.00  0.00    -0.287 OA
ATOM     10  C   UNL     1      31.720 -22.857 -16.509  0.00  0.00    +0.196 C 
BRANCH  10  11
ATOM     11  C   UNL     1      32.852 -22.440 -17.392  0.00  0.00    +0.039 C 
ATOM     12  C   UNL     1      32.608 -21.634 -18.505  0.00  0.00    -0.001 C 
ATOM     13  C   UNL     1      33.664 -21.244 -19.328  0.00  0.00    -0.022 C 
ATOM     14  C   UNL     1      34.151 -22.855 -17.102  0.00  0.00    +0.003 C 
ATOM     15  C   UNL     1      34.965 -21.659 -19.038  0.00  0.00    -0.004 C 
ATOM     16  C   UNL     1      35.208 -22.464 -17.925  0.00  0.00    -0.000 C 
ATOM     17  C   UNL     1      33.405 -20.381 -20.516  0.00  0.00    +0.031 C 
ENDBRANCH  10  11
ENDBRANCH   4  10
BRANCH   1  18
ATOM     18  C   UNL     1      35.565 -23.195 -13.178  0.00  0.00    +0.115 C 
BRANCH  18  19
ATOM     19  C   UNL     1      36.751 -24.019 -13.552  0.00  0.00    -0.003 C 
ATOM     20  C   UNL     1      37.054 -25.172 -12.828  0.00  0.00    -0.003 C 
ATOM     21  C   UNL     1      37.556 -23.637 -14.625  0.00  0.00    -0.003 C 
ATOM     22  C   UNL     1      38.969 -25.560 -14.248  0.00  0.00    +0.031 C 
ATOM     23  C   UNL     1      38.164 -25.942 -13.176  0.00  0.00    +0.002 C 
ATOM     24  C   UNL     1      38.665 -24.408 -14.973  0.00  0.00    +0.002 C 
BRANCH  22  27
ATOM     25  N   UNL     1      40.920 -26.971 -13.640  0.00  0.00    -0.343 N 
ATOM     26  N   UNL     1      40.442 -26.525 -15.883  0.00  0.00    -0.285 NA
ATOM     27  C   UNL     1      40.126 -26.364 -14.610  0.00  0.00    +0.117 C 
ATOM     28  H   UNL     1      41.698 -27.512 -13.907  0.00  0.00    +0.144 HD
ATOM     29  H   UNL     1      40.702 -26.860 -12.685  0.00  0.00    +0.144 HD
ATOM     30  H   UNL     1      41.224 -27.070 -16.131  0.00  0.00    +0.188 HD
ENDBRANCH  22  27
ENDBRANCH  18  19
ENDBRANCH   1  18
TORSDOF 5
ENDMDL
MODEL 6
REMARK VINA RESULT:     -11.0      2.295      3.258
REMARK  Name = 17758361
REMARK  5 active torsions:
REMARK  status: ('A' for Active; 'I' for Inactive)
REMARK    1  A    between atoms: N_1  and  C_18
REMARK    2  A    between atoms: C_4  and  C_10
REMARK    3  A    between atoms: C_10  and  C_11
REMARK    4  A    between atoms: C_18  and  C_19
REMARK    5  A    between atoms: C_22  and  C_27
REMARK                            x       y       z     vdW  Elec       q    Type
REMARK                         _______ _______ _______ _____ _____    ______ ____
ROOT
ATOM      1  N   UNL     1      34.844 -21.663 -18.992  0.00  0.00    -0.314 N 
ATOM      2  N   UNL     1      33.555 -22.908 -17.466  0.00  0.00    -0.229 NA
ATOM      3  C   UNL     1      34.733 -22.322 -17.780  0.00  0.00    +0.129 C 
ATOM      4  C   UNL     1      35.751 -22.993 -15.738  0.00  0.00    +0.043 C 
ATOM      5  C   UNL     1      35.849 -22.336 -16.959  0.00  0.00    +0.037 C 
ATOM      6  C   UNL     1      34.556 -23.608 -15.380  0.00  0.00    +0.024 C 
ATOM      7  C   UNL     1      33.497 -23.537 -16.271  0.00  0.00    +0.100 C 
ATOM      8  H   UNL     1      34.059 -21.645 -19.586  0.00  0.00    +0.149 HD
ENDROOT
BRANCH   4  10
ATOM      9  O   UNL     1      37.806 -22.208 -14.945  0.00  0.00    -0.287 OA
ATOM     10  C   UNL     1      36.892 -23.038 -14.838  0.00  0.00    +0.196 C 
BRANCH  10  11
ATOM     11  C   UNL     1      37.021 -24.064 -13.759  0.00  0.00    +0.039 C 
ATOM     12  C   UNL     1      36.431 -23.845 -12.514  0.00  0.00    -0.001 C 
ATOM     13  C   UNL     1      36.550 -24.803 -11.508  0.00  0.00    -0.022 C 
ATOM     14  C   UNL     1      37.730 -25.240 -13.998  0.00  0.00    +0.003 C 
ATOM     15  C   UNL     1      37.259 -25.981 -11.747  0.00  0.00    -0.004 C 
ATOM     16  C   UNL     1      37.849 -26.200 -12.991  0.00  0.00    -0.000 C 
ATOM     17  C   UNL     1      35.917 -24.572 -10.178  0.00  0.00    +0.031 C 
ENDBRANCH  10  11
ENDBRANCH   4  10
BRANCH   1  18
ATOM     18  C   UNL     1      36.051 -20.999 -19.434  0.00  0.00    +0.115 C 
BRANCH  18  19
ATOM     19  C   UNL     1      35.760 -20.043 -20.542  0.00  0.00    -0.003 C 
ATOM     20  C   UNL     1      36.695 -19.066 -20.882  0.00  0.00    -0.003 C 
ATOM     21  C   UNL     1      34.552 -20.125 -21.235  0.00  0.00    -0.003 C 
ATOM     22  C   UNL     1      35.216 -18.253 -22.610  0.00  0.00    +0.031 C 
ATOM     23  C   UNL     1      36.423 -18.171 -21.917  0.00  0.00    +0.002 C 
ATOM     24  C   UNL     1      34.280 -19.230 -22.269  0.00  0.00    +0.002 C 
BRANCH  22  27
ATOM     25  N   UNL     1      35.370 -15.997 -23.637  0.00  0.00    -0.343 N 
ATOM     26  N   UNL     1      34.245 -17.721 -24.743  0.00  0.00    -0.285 NA
ATOM     27  C   UNL     1      34.933 -17.319 -23.688  0.00  0.00    +0.117 C 
ATOM     28  H   UNL     1      35.167 -15.382 -24.378  0.00  0.00    +0.144 HD
ATOM     29  H   UNL     1      35.881 -15.678 -22.858  0.00  0.00    +0.144 HD
ATOM     30  H   UNL     1      34.053 -17.091 -25.474  0.00  0.00    +0.188 HD
ENDBRANCH  22  27
ENDBRANCH  18  19
ENDBRANCH   1  18
TORSDOF 5
ENDMDL
MODEL 7
REMARK VINA RESULT:     -10.9     11.444     16.435
REMARK  Name = 17758361
REMARK  5 active torsions:
REMARK  status: ('A' for Active; 'I' for Inactive)
REMARK    1  A    between atoms: N_1  and  C_18
REMARK    2  A    between atoms: C_4  and  C_10
REMARK    3  A    between atoms: C_10  and  C_11
REMARK    4  A    between atoms: C_18  and  C_19
REMARK    5  A    between atoms: C_22  and  C_27
REMARK                            x       y       z     vdW  Elec       q    Type
REMARK                         _______ _______ _______ _____ _____    ______ ____
ROOT
ATOM      1  N   UNL     1      31.838  -9.983 -20.477  0.00  0.00    -0.314 N 
ATOM      2  N   UNL     1      32.356  -7.997 -19.324  0.00  0.00    -0.229 NA
ATOM      3  C   UNL     1      32.004  -8.608 -20.477  0.00  0.00    +0.129 C 
ATOM      4  C   UNL     1      31.953  -6.563 -21.689  0.00  0.00    +0.043 C 
ATOM      5  C   UNL     1      31.792  -7.944 -21.675  0.00  0.00    +0.037 C 
ATOM      6  C   UNL     1      32.316  -5.898 -20.523  0.00  0.00    +0.024 C 
ATOM      7  C   UNL     1      32.503  -6.654 -19.377  0.00  0.00    +0.100 C 
ATOM      8  H   UNL     1      31.986 -10.469 -19.633  0.00  0.00    +0.149 HD
ENDROOT
BRANCH   4  10
ATOM      9  O   UNL     1      30.636  -5.316 -23.166  0.00  0.00    -0.287 OA
ATOM     10  C   UNL     1      31.743  -5.816 -22.919  0.00  0.00    +0.196 C 
BRANCH  10  11
ATOM     11  C   UNL     1      32.827  -5.615 -23.929  0.00  0.00    +0.039 C 
ATOM     12  C   UNL     1      32.533  -5.028 -25.161  0.00  0.00    -0.001 C 
ATOM     13  C   UNL     1      33.544  -4.840 -26.102  0.00  0.00    -0.022 C 
ATOM     14  C   UNL     1      34.131  -6.012 -23.639  0.00  0.00    +0.003 C 
ATOM     15  C   UNL     1      34.850  -5.238 -25.812  0.00  0.00    -0.004 C 
ATOM     16  C   UNL     1      35.143  -5.823 -24.581  0.00  0.00    -0.000 C 
ATOM     17  C   UNL     1      33.231  -4.211 -27.418  0.00  0.00    +0.031 C 
ENDBRANCH  10  11
ENDBRANCH   4  10
BRANCH   1  18
ATOM     18  C   UNL     1      31.462 -10.744 -21.648  0.00  0.00    +0.115 C 
BRANCH  18  19
ATOM     19  C   UNL     1      32.325 -11.951 -21.800  0.00  0.00    -0.003 C 
ATOM     20  C   UNL     1      32.385 -12.899 -20.778  0.00  0.00    -0.003 C 
ATOM     21  C   UNL     1      33.073 -12.132 -22.964  0.00  0.00    -0.003 C 
ATOM     22  C   UNL     1      33.941 -14.207 -22.083  0.00  0.00    +0.031 C 
ATOM     23  C   UNL     1      33.193 -14.026 -20.920  0.00  0.00    +0.002 C 
ATOM     24  C   UNL     1      33.881 -13.260 -23.105  0.00  0.00    +0.002 C 
BRANCH  22  27
ATOM     25  N   UNL     1      35.015 -16.248 -21.162  0.00  0.00    -0.343 N 
ATOM     26  N   UNL     1      35.348 -15.646 -23.395  0.00  0.00    -0.285 NA
ATOM     27  C   UNL     1      34.783 -15.383 -22.230  0.00  0.00    +0.117 C 
ATOM     28  H   UNL     1      35.588 -17.039 -21.283  0.00  0.00    +0.144 HD
ATOM     29  H   UNL     1      34.605 -16.067 -20.285  0.00  0.00    +0.144 HD
ATOM     30  H   UNL     1      35.919 -16.442 -23.497  0.00  0.00    +0.188 HD
ENDBRANCH  22  27
ENDBRANCH  18  19
ENDBRANCH   1  18
TORSDOF 5
ENDMDL
MODEL 8
REMARK VINA RESULT:     -10.9      9.285     14.388
REMARK  Name = 17758361
REMARK  5 active torsions:
REMARK  status: ('A' for Active; 'I' for Inactive)
REMARK    1  A    between atoms: N_1  and  C_18
REMARK    2  A    between atoms: C_4  and  C_10
REMARK    3  A    between atoms: C_10  and  C_11
REMARK    4  A    between atoms: C_18  and  C_19
REMARK    5  A    between atoms: C_22  and  C_27
REMARK                            x       y       z     vdW  Elec       q    Type
REMARK                         _______ _______ _______ _____ _____    ______ ____
ROOT
ATOM      1  N   UNL     1      34.040 -12.687 -25.174  0.00  0.00    -0.314 N 
ATOM      2  N   UNL     1      34.923 -10.506 -25.106  0.00  0.00    -0.229 NA
ATOM      3  C   UNL     1      34.020 -11.404 -24.653  0.00  0.00    +0.129 C 
ATOM      4  C   UNL     1      33.035  -9.843 -23.155  0.00  0.00    +0.043 C 
ATOM      5  C   UNL     1      33.065 -11.126 -23.689  0.00  0.00    +0.037 C 
ATOM      6  C   UNL     1      33.947  -8.890 -23.596  0.00  0.00    +0.024 C 
ATOM      7  C   UNL     1      34.863  -9.269 -24.565  0.00  0.00    +0.100 C 
ATOM      8  H   UNL     1      34.713 -12.899 -25.861  0.00  0.00    +0.149 HD
ENDROOT
BRANCH   4  10
ATOM      9  O   UNL     1      31.160 -10.299 -21.833  0.00  0.00    -0.287 OA
ATOM     10  C   UNL     1      32.053  -9.496 -22.139  0.00  0.00    +0.196 C 
BRANCH  10  11
ATOM     11  C   UNL     1      32.068  -8.183 -21.427  0.00  0.00    +0.039 C 
ATOM     12  C   UNL     1      31.547  -7.046 -22.047  0.00  0.00    -0.001 C 
ATOM     13  C   UNL     1      31.561  -5.821 -21.381  0.00  0.00    -0.022 C 
ATOM     14  C   UNL     1      32.602  -8.094 -20.142  0.00  0.00    +0.003 C 
ATOM     15  C   UNL     1      32.095  -5.732 -20.095  0.00  0.00    -0.004 C 
ATOM     16  C   UNL     1      32.614  -6.868 -19.475  0.00  0.00    -0.000 C 
ATOM     17  C   UNL     1      31.002  -4.607 -22.042  0.00  0.00    +0.031 C 
ENDBRANCH  10  11
ENDBRANCH   4  10
BRANCH   1  18
ATOM     18  C   UNL     1      33.127 -13.731 -24.766  0.00  0.00    +0.115 C 
BRANCH  18  19
ATOM     19  C   UNL     1      33.836 -14.787 -23.985  0.00  0.00    -0.003 C 
ATOM     20  C   UNL     1      34.143 -16.008 -24.584  0.00  0.00    -0.003 C 
ATOM     21  C   UNL     1      34.190 -14.552 -22.656  0.00  0.00    -0.003 C 
ATOM     22  C   UNL     1      35.159 -16.761 -22.526  0.00  0.00    +0.031 C 
ATOM     23  C   UNL     1      34.805 -16.995 -23.854  0.00  0.00    +0.002 C 
ATOM     24  C   UNL     1      34.852 -15.540 -21.927  0.00  0.00    +0.002 C 
BRANCH  22  27
ATOM     25  N   UNL     1      36.890 -18.531 -22.325  0.00  0.00    -0.343 N 
ATOM     26  N   UNL     1      35.488 -18.042 -20.520  0.00  0.00    -0.285 NA
ATOM     27  C   UNL     1      35.849 -17.791 -21.766  0.00  0.00    +0.117 C 
ATOM     28  H   UNL     1      37.343 -19.224 -21.792  0.00  0.00    +0.144 HD
ATOM     29  H   UNL     1      37.172 -18.360 -23.253  0.00  0.00    +0.144 HD
ATOM     30  H   UNL     1      35.953 -18.739 -20.003  0.00  0.00    +0.188 HD
ENDBRANCH  22  27
ENDBRANCH  18  19
ENDBRANCH   1  18
TORSDOF 5
ENDMDL
MODEL 9
REMARK VINA RESULT:     -10.8      2.477      4.469
REMARK  Name = 17758361
REMARK  5 active torsions:
REMARK  status: ('A' for Active; 'I' for Inactive)
REMARK    1  A    between atoms: N_1  and  C_18
REMARK    2  A    between atoms: C_4  and  C_10
REMARK    3  A    between atoms: C_10  and  C_11
REMARK    4  A    between atoms: C_18  and  C_19
REMARK    5  A    between atoms: C_22  and  C_27
REMARK                            x       y       z     vdW  Elec       q    Type
REMARK                         _______ _______ _______ _____ _____    ______ ____
ROOT
ATOM      1  N   UNL     1      36.611 -20.882 -18.712  0.00  0.00    -0.314 N 
ATOM      2  N   UNL     1      37.757 -21.073 -16.665  0.00  0.00    -0.229 NA
ATOM      3  C   UNL     1      36.734 -21.459 -17.459  0.00  0.00    +0.129 C 
ATOM      4  C   UNL     1      35.901 -22.995 -15.847  0.00  0.00    +0.043 C 
ATOM      5  C   UNL     1      35.788 -22.406 -17.102  0.00  0.00    +0.037 C 
ATOM      6  C   UNL     1      36.941 -22.624 -15.001  0.00  0.00    +0.024 C 
ATOM      7  C   UNL     1      37.835 -21.667 -15.454  0.00  0.00    +0.100 C 
ATOM      8  H   UNL     1      37.275 -20.206 -18.980  0.00  0.00    +0.149 HD
ENDROOT
BRANCH   4  10
ATOM      9  O   UNL     1      35.310 -25.142 -15.130  0.00  0.00    -0.287 OA
ATOM     10  C   UNL     1      34.936 -23.997 -15.420  0.00  0.00    +0.196 C 
BRANCH  10  11
ATOM     11  C   UNL     1      33.474 -23.704 -15.312  0.00  0.00    +0.039 C 
ATOM     12  C   UNL     1      32.813 -23.892 -14.098  0.00  0.00    -0.001 C 
ATOM     13  C   UNL     1      31.450 -23.619 -13.996  0.00  0.00    -0.022 C 
ATOM     14  C   UNL     1      32.772 -23.243 -16.424  0.00  0.00    +0.003 C 
ATOM     15  C   UNL     1      30.746 -23.157 -15.110  0.00  0.00    -0.004 C 
ATOM     16  C   UNL     1      31.407 -22.969 -16.323  0.00  0.00    -0.000 C 
ATOM     17  C   UNL     1      30.743 -23.816 -12.698  0.00  0.00    +0.031 C 
ENDBRANCH  10  11
ENDBRANCH   4  10
BRANCH   1  18
ATOM     18  C   UNL     1      35.559 -21.216 -19.647  0.00  0.00    +0.115 C 
BRANCH  18  19
ATOM     19  C   UNL     1      35.410 -20.154 -20.685  0.00  0.00    -0.003 C 
ATOM     20  C   UNL     1      36.384 -19.164 -20.813  0.00  0.00    -0.003 C 
ATOM     21  C   UNL     1      34.296 -20.151 -21.525  0.00  0.00    -0.003 C 
ATOM     22  C   UNL     1      35.131 -18.167 -22.622  0.00  0.00    +0.031 C 
ATOM     23  C   UNL     1      36.244 -18.171 -21.782  0.00  0.00    +0.002 C 
ATOM     24  C   UNL     1      34.157 -19.158 -22.494  0.00  0.00    +0.002 C 
BRANCH  22  27
ATOM     25  N   UNL     1      35.409 -15.824 -23.396  0.00  0.00    -0.343 N 
ATOM     26  N   UNL     1      34.441 -17.422 -24.800  0.00  0.00    -0.285 NA
ATOM     27  C   UNL     1      34.986 -17.131 -23.632  0.00  0.00    +0.117 C 
ATOM     28  H   UNL     1      35.302 -15.138 -24.094  0.00  0.00    +0.144 HD
ATOM     29  H   UNL     1      35.815 -15.587 -22.531  0.00  0.00    +0.144 HD
ATOM     30  H   UNL     1      34.342 -16.722 -25.485  0.00  0.00    +0.188 HD
ENDBRANCH  22  27
ENDBRANCH  18  19
ENDBRANCH   1  18
TORSDOF 5
ENDMDL
