MODEL 1
REMARK VINA RESULT:     -10.9      0.000      0.000
REMARK  Name = 9909438
REMARK  10 active torsions:
REMARK  status: ('A' for Active; 'I' for Inactive)
REMARK    1  A    between atoms: C_1  and  C_2
REMARK    2  A    between atoms: C_1  and  C_18
REMARK    3  A    between atoms: C_2  and  C_7
REMARK    4  A    between atoms: N_4  and  C_10
REMARK    5  A    between atoms: C_10  and  C_11
REMARK    6  A    between atoms: C_18  and  C_19
REMARK    7  A    between atoms: C_22  and  O_25
REMARK    8  A    between atoms: O_25  and  C_26
REMARK    9  A    between atoms: C_26  and  C_30
REMARK   10  A    between atoms: C_30  and  O_31
REMARK                            x       y       z     vdW  Elec       q    Type
REMARK                         _______ _______ _______ _____ _____    ______ ____
ROOT
ATOM      1  C   UNL     1      34.079 -22.215 -18.948  0.00  0.00    +0.014 C 
ENDROOT
BRANCH   1   2
ATOM      2  C   UNL     1      33.477 -20.968 -19.590  0.00  0.00    +0.078 C 
BRANCH   2   7
ATOM      3  O   UNL     1      37.496 -18.858 -20.891  0.00  0.00    -0.191 OA
ATOM      4  N   UNL     1      35.449 -19.123 -21.965  0.00  0.00    -0.151 N 
ATOM      5  N   UNL     1      34.279 -19.716 -21.603  0.00  0.00    -0.229 N 
ATOM      6  N   UNL     1      35.715 -19.980 -19.896  0.00  0.00    -0.308 NA
ATOM      7  C   UNL     1      34.507 -20.208 -20.353  0.00  0.00    +0.187 C 
ATOM      8  C   UNL     1      36.344 -19.272 -20.920  0.00  0.00    +0.286 C 
ATOM      9  H   UNL     1      33.449 -19.778 -22.130  0.00  0.00    +0.173 HD
BRANCH   4  10
ATOM     10  C   UNL     1      35.586 -18.476 -23.239  0.00  0.00    +0.152 C 
BRANCH  10  11
ATOM     11  C   UNL     1      34.999 -17.094 -23.235  0.00  0.00    +0.000 C 
ATOM     12  C   UNL     1      34.346 -16.622 -24.367  0.00  0.00    -0.003 C 
ATOM     13  C   UNL     1      35.114 -16.302 -22.099  0.00  0.00    -0.003 C 
ATOM     14  C   UNL     1      33.911 -14.537 -23.228  0.00  0.00    -0.022 C 
ATOM     15  C   UNL     1      33.800 -15.338 -24.363  0.00  0.00    -0.005 C 
ATOM     16  C   UNL     1      34.568 -15.019 -22.095  0.00  0.00    -0.005 C 
ATOM     17  C   UNL     1      33.327 -13.164 -23.224  0.00  0.00    +0.031 C 
ENDBRANCH  10  11
ENDBRANCH   4  10
ENDBRANCH   2   7
ENDBRANCH   1   2
BRANCH   1  18
ATOM     18  C   UNL     1      33.192 -22.786 -17.835  0.00  0.00    +0.027 C 
BRANCH  18  19
ATOM     19  C   UNL     1      33.966 -22.993 -16.559  0.00  0.00    -0.022 C 
ATOM     20  C   UNL     1      35.312 -22.661 -16.518  0.00  0.00    -0.001 C 
ATOM     21  C   UNL     1      33.321 -23.510 -15.446  0.00  0.00    -0.001 C 
ATOM     22  C   UNL     1      35.392 -23.370 -14.210  0.00  0.00    +0.139 C 
ATOM     23  C   UNL     1      36.030 -22.851 -15.337  0.00  0.00    +0.037 C 
ATOM     24  C   UNL     1      34.038 -23.701 -14.265  0.00  0.00    +0.037 C 
BRANCH  22  25
ATOM     25  O   UNL     1      36.091 -23.558 -13.058  0.00  0.00    -0.472 OA
BRANCH  25  26
ATOM     26  C   UNL     1      36.760 -24.808 -12.900  0.00  0.00    +0.221 C 
ATOM     27  C   UNL     1      36.411 -25.685 -14.099  0.00  0.00    +0.055 C 
ATOM     28  C   UNL     1      38.257 -24.534 -12.799  0.00  0.00    +0.055 C 
BRANCH  26  30
ATOM     29  O   UNL     1      35.209 -25.010 -11.034  0.00  0.00    -0.246 OA
ATOM     30  C   UNL     1      36.219 -25.401 -11.606  0.00  0.00    +0.350 C 
BRANCH  30  31
ATOM     31  O   UNL     1      36.970 -26.428 -11.129  0.00  0.00    -0.478 OA
ATOM     32  H   UNL     1      36.841 -27.295 -11.459  0.00  0.00    +0.295 HD
ENDBRANCH  30  31
ENDBRANCH  26  30
ENDBRANCH  25  26
ENDBRANCH  22  25
ENDBRANCH  18  19
ENDBRANCH   1  18
TORSDOF 10
ENDMDL
MODEL 2
REMARK VINA RESULT:     -10.9      1.734      2.382
REMARK  Name = 9909438
REMARK  10 active torsions:
REMARK  status: ('A' for Active; 'I' for Inactive)
REMARK    1  A    between atoms: C_1  and  C_2
REMARK    2  A    between atoms: C_1  and  C_18
REMARK    3  A    between atoms: C_2  and  C_7
REMARK    4  A    between atoms: N_4  and  C_10
REMARK    5  A    between atoms: C_10  and  C_11
REMARK    6  A    between atoms: C_18  and  C_19
REMARK    7  A    between atoms: C_22  and  O_25
REMARK    8  A    between atoms: O_25  and  C_26
REMARK    9  A    between atoms: C_26  and  C_30
REMARK   10  A    between atoms: C_30  and  O_31
REMARK                            x       y       z     vdW  Elec       q    Type
REMARK                         _______ _______ _______ _____ _____    ______ ____
ROOT
ATOM      1  C   UNL     1      34.459 -22.268 -18.816  0.00  0.00    +0.014 C 
ENDROOT
BRANCH   1   2
ATOM      2  C   UNL     1      33.783 -21.047 -19.434  0.00  0.00    +0.078 C 
BRANCH   2   7
ATOM      3  O   UNL     1      37.646 -18.742 -20.868  0.00  0.00    -0.191 OA
ATOM      4  N   UNL     1      35.594 -19.143 -21.889  0.00  0.00    -0.151 N 
ATOM      5  N   UNL     1      34.467 -19.793 -21.489  0.00  0.00    -0.229 N 
ATOM      6  N   UNL     1      35.954 -19.942 -19.811  0.00  0.00    -0.308 NA
ATOM      7  C   UNL     1      34.750 -20.246 -20.235  0.00  0.00    +0.187 C 
ATOM      8  C   UNL     1      36.519 -19.220 -20.863  0.00  0.00    +0.286 C 
ATOM      9  H   UNL     1      33.631 -19.912 -21.994  0.00  0.00    +0.173 HD
BRANCH   4  10
ATOM     10  C   UNL     1      35.666 -18.514 -23.178  0.00  0.00    +0.152 C 
BRANCH  10  11
ATOM     11  C   UNL     1      35.054 -17.144 -23.171  0.00  0.00    +0.000 C 
ATOM     12  C   UNL     1      35.112 -16.372 -22.017  0.00  0.00    -0.003 C 
ATOM     13  C   UNL     1      34.434 -16.661 -24.317  0.00  0.00    -0.003 C 
ATOM     14  C   UNL     1      33.920 -14.606 -23.156  0.00  0.00    -0.022 C 
ATOM     15  C   UNL     1      34.543 -15.098 -22.010  0.00  0.00    -0.005 C 
ATOM     16  C   UNL     1      33.866 -15.388 -24.310  0.00  0.00    -0.005 C 
ATOM     17  C   UNL     1      33.312 -13.244 -23.148  0.00  0.00    +0.031 C 
ENDBRANCH  10  11
ENDBRANCH   4  10
ENDBRANCH   2   7
ENDBRANCH   1   2
BRANCH   1  18
ATOM     18  C   UNL     1      34.014 -22.514 -17.370  0.00  0.00    +0.027 C 
BRANCH  18  19
ATOM     19  C   UNL     1      35.177 -22.886 -16.487  0.00  0.00    -0.022 C 
ATOM     20  C   UNL     1      36.438 -22.386 -16.775  0.00  0.00    -0.001 C 
ATOM     21  C   UNL     1      34.967 -23.721 -15.400  0.00  0.00    -0.001 C 
ATOM     22  C   UNL     1      37.317 -23.568 -14.860  0.00  0.00    +0.139 C 
ATOM     23  C   UNL     1      37.514 -22.728 -15.957  0.00  0.00    +0.037 C 
ATOM     24  C   UNL     1      36.044 -24.065 -14.582  0.00  0.00    +0.037 C 
BRANCH  22  25
ATOM     25  O   UNL     1      38.367 -23.904 -14.062  0.00  0.00    -0.472 OA
BRANCH  25  26
ATOM     26  C   UNL     1      38.752 -25.278 -14.040  0.00  0.00    +0.221 C 
ATOM     27  C   UNL     1      38.777 -25.738 -12.586  0.00  0.00    +0.055 C 
ATOM     28  C   UNL     1      37.748 -26.063 -14.879  0.00  0.00    +0.055 C 
BRANCH  26  30
ATOM     29  O   UNL     1      41.118 -24.730 -14.215  0.00  0.00    -0.246 OA
ATOM     30  C   UNL     1      40.142 -25.323 -14.659  0.00  0.00    +0.350 C 
BRANCH  30  31
ATOM     31  O   UNL     1      40.211 -26.098 -15.772  0.00  0.00    -0.478 OA
ATOM     32  H   UNL     1      40.609 -25.764 -16.551  0.00  0.00    +0.295 HD
ENDBRANCH  30  31
ENDBRANCH  26  30
ENDBRANCH  25  26
ENDBRANCH  22  25
ENDBRANCH  18  19
ENDBRANCH   1  18
TORSDOF 10
ENDMDL
MODEL 3
REMARK VINA RESULT:     -10.8      5.499     12.836
REMARK  Name = 9909438
REMARK  10 active torsions:
REMARK  status: ('A' for Active; 'I' for Inactive)
REMARK    1  A    between atoms: C_1  and  C_2
REMARK    2  A    between atoms: C_1  and  C_18
REMARK    3  A    between atoms: C_2  and  C_7
REMARK    4  A    between atoms: N_4  and  C_10
REMARK    5  A    between atoms: C_10  and  C_11
REMARK    6  A    between atoms: C_18  and  C_19
REMARK    7  A    between atoms: C_22  and  O_25
REMARK    8  A    between atoms: O_25  and  C_26
REMARK    9  A    between atoms: C_26  and  C_30
REMARK   10  A    between atoms: C_30  and  O_31
REMARK                            x       y       z     vdW  Elec       q    Type
REMARK                         _______ _______ _______ _____ _____    ______ ____
ROOT
ATOM      1  C   UNL     1      34.211 -14.097 -23.248  0.00  0.00    +0.014 C 
ENDROOT
BRANCH   1   2
ATOM      2  C   UNL     1      33.828 -15.138 -24.297  0.00  0.00    +0.078 C 
BRANCH   2   7
ATOM      3  O   UNL     1      34.674 -19.782 -24.209  0.00  0.00    -0.191 OA
ATOM      4  N   UNL     1      35.430 -18.028 -22.879  0.00  0.00    -0.151 N 
ATOM      5  N   UNL     1      35.190 -16.689 -22.882  0.00  0.00    -0.229 N 
ATOM      6  N   UNL     1      34.010 -17.581 -24.573  0.00  0.00    -0.308 NA
ATOM      7  C   UNL     1      34.330 -16.489 -23.920  0.00  0.00    +0.187 C 
ATOM      8  C   UNL     1      34.705 -18.594 -23.913  0.00  0.00    +0.286 C 
ATOM      9  H   UNL     1      35.557 -16.012 -22.269  0.00  0.00    +0.173 HD
BRANCH   4  10
ATOM     10  C   UNL     1      36.299 -18.621 -21.902  0.00  0.00    +0.152 C 
BRANCH  10  11
ATOM     11  C   UNL     1      35.562 -19.558 -20.989  0.00  0.00    +0.000 C 
ATOM     12  C   UNL     1      36.277 -20.372 -20.119  0.00  0.00    -0.003 C 
ATOM     13  C   UNL     1      34.173 -19.602 -21.024  0.00  0.00    -0.003 C 
ATOM     14  C   UNL     1      34.199 -21.292 -19.299  0.00  0.00    -0.022 C 
ATOM     15  C   UNL     1      35.591 -21.243 -19.270  0.00  0.00    -0.005 C 
ATOM     16  C   UNL     1      33.489 -20.472 -20.176  0.00  0.00    -0.005 C 
ATOM     17  C   UNL     1      33.467 -22.223 -18.392  0.00  0.00    +0.031 C 
ENDBRANCH  10  11
ENDBRANCH   4  10
ENDBRANCH   2   7
ENDBRANCH   1   2
BRANCH   1  18
ATOM     18  C   UNL     1      33.067 -13.802 -22.271  0.00  0.00    +0.027 C 
BRANCH  18  19
ATOM     19  C   UNL     1      32.689 -12.342 -22.283  0.00  0.00    -0.022 C 
ATOM     20  C   UNL     1      33.301 -11.488 -23.188  0.00  0.00    -0.001 C 
ATOM     21  C   UNL     1      31.736 -11.878 -21.390  0.00  0.00    -0.001 C 
ATOM     22  C   UNL     1      31.994  -9.658 -22.308  0.00  0.00    +0.139 C 
ATOM     23  C   UNL     1      32.952 -10.138 -23.201  0.00  0.00    +0.037 C 
ATOM     24  C   UNL     1      31.387 -10.527 -21.402  0.00  0.00    +0.037 C 
BRANCH  22  25
ATOM     25  O   UNL     1      31.653  -8.341 -22.318  0.00  0.00    -0.472 OA
BRANCH  25  26
ATOM     26  C   UNL     1      32.396  -7.471 -21.464  0.00  0.00    +0.221 C 
ATOM     27  C   UNL     1      32.502  -8.133 -20.094  0.00  0.00    +0.055 C 
ATOM     28  C   UNL     1      33.762  -7.237 -22.102  0.00  0.00    +0.055 C 
BRANCH  26  30
ATOM     29  O   UNL     1      30.522  -5.999 -21.963  0.00  0.00    -0.246 OA
ATOM     30  C   UNL     1      31.591  -6.180 -21.394  0.00  0.00    +0.350 C 
BRANCH  30  31
ATOM     31  O   UNL     1      32.175  -5.223 -20.627  0.00  0.00    -0.478 OA
ATOM     32  H   UNL     1      31.652  -4.548 -20.243  0.00  0.00    +0.295 HD
ENDBRANCH  30  31
ENDBRANCH  26  30
ENDBRANCH  25  26
ENDBRANCH  22  25
ENDBRANCH  18  19
ENDBRANCH   1  18
TORSDOF 10
ENDMDL
MODEL 4
REMARK VINA RESULT:     -10.8      5.996     13.698
REMARK  Name = 9909438
REMARK  10 active torsions:
REMARK  status: ('A' for Active; 'I' for Inactive)
REMARK    1  A    between atoms: C_1  and  C_2
REMARK    2  A    between atoms: C_1  and  C_18
REMARK    3  A    between atoms: C_2  and  C_7
REMARK    4  A    between atoms: N_4  and  C_10
REMARK    5  A    between atoms: C_10  and  C_11
REMARK    6  A    between atoms: C_18  and  C_19
REMARK    7  A    between atoms: C_22  and  O_25
REMARK    8  A    between atoms: O_25  and  C_26
REMARK    9  A    between atoms: C_26  and  C_30
REMARK   10  A    between atoms: C_30  and  O_31
REMARK                            x       y       z     vdW  Elec       q    Type
REMARK                         _______ _______ _______ _____ _____    ______ ____
ROOT
ATOM      1  C   UNL     1      33.223 -13.365 -23.517  0.00  0.00    +0.014 C 
ENDROOT
BRANCH   1   2
ATOM      2  C   UNL     1      34.221 -13.997 -22.551  0.00  0.00    +0.078 C 
BRANCH   2   7
ATOM      3  O   UNL     1      34.375 -18.119 -24.849  0.00  0.00    -0.191 OA
ATOM      4  N   UNL     1      35.432 -17.363 -22.918  0.00  0.00    -0.151 N 
ATOM      5  N   UNL     1      35.392 -16.186 -22.236  0.00  0.00    -0.229 N 
ATOM      6  N   UNL     1      34.029 -15.975 -24.011  0.00  0.00    -0.308 NA
ATOM      7  C   UNL     1      34.532 -15.401 -22.943  0.00  0.00    +0.187 C 
ATOM      8  C   UNL     1      34.592 -17.251 -24.013  0.00  0.00    +0.286 C 
ATOM      9  H   UNL     1      35.878 -15.953 -21.413  0.00  0.00    +0.173 HD
BRANCH   4  10
ATOM     10  C   UNL     1      36.240 -18.457 -22.458  0.00  0.00    +0.152 C 
BRANCH  10  11
ATOM     11  C   UNL     1      35.502 -19.332 -21.487  0.00  0.00    +0.000 C 
ATOM     12  C   UNL     1      34.124 -19.470 -21.597  0.00  0.00    -0.003 C 
ATOM     13  C   UNL     1      36.205 -19.993 -20.486  0.00  0.00    -0.003 C 
ATOM     14  C   UNL     1      34.135 -20.950 -19.688  0.00  0.00    -0.022 C 
ATOM     15  C   UNL     1      33.438 -20.283 -20.694  0.00  0.00    -0.005 C 
ATOM     16  C   UNL     1      35.519 -20.806 -19.584  0.00  0.00    -0.005 C 
ATOM     17  C   UNL     1      33.401 -21.819 -18.722  0.00  0.00    +0.031 C 
ENDBRANCH  10  11
ENDBRANCH   4  10
ENDBRANCH   2   7
ENDBRANCH   1   2
BRANCH   1  18
ATOM     18  C   UNL     1      33.852 -12.253 -24.363  0.00  0.00    +0.027 C 
BRANCH  18  19
ATOM     19  C   UNL     1      33.647 -10.896 -23.739  0.00  0.00    -0.022 C 
ATOM     20  C   UNL     1      32.594 -10.705 -22.856  0.00  0.00    -0.001 C 
ATOM     21  C   UNL     1      34.515  -9.863 -24.055  0.00  0.00    -0.001 C 
ATOM     22  C   UNL     1      33.271  -8.402 -22.586  0.00  0.00    +0.139 C 
ATOM     23  C   UNL     1      32.405  -9.451 -22.276  0.00  0.00    +0.037 C 
ATOM     24  C   UNL     1      34.325  -8.607 -23.476  0.00  0.00    +0.037 C 
BRANCH  22  25
ATOM     25  O   UNL     1      33.086  -7.177 -22.023  0.00  0.00    -0.472 OA
BRANCH  25  26
ATOM     26  C   UNL     1      32.269  -6.251 -22.737  0.00  0.00    +0.221 C 
ATOM     27  C   UNL     1      33.187  -5.313 -23.514  0.00  0.00    +0.055 C 
ATOM     28  C   UNL     1      31.343  -7.046 -23.653  0.00  0.00    +0.055 C 
BRANCH  26  30
ATOM     29  O   UNL     1      30.360  -5.031 -21.845  0.00  0.00    -0.246 OA
ATOM     30  C   UNL     1      31.480  -5.497 -21.675  0.00  0.00    +0.350 C 
BRANCH  30  31
ATOM     31  O   UNL     1      32.140  -5.383 -20.493  0.00  0.00    -0.478 OA
ATOM     32  H   UNL     1      31.771  -4.876 -19.798  0.00  0.00    +0.295 HD
ENDBRANCH  30  31
ENDBRANCH  26  30
ENDBRANCH  25  26
ENDBRANCH  22  25
ENDBRANCH  18  19
ENDBRANCH   1  18
TORSDOF 10
ENDMDL
MODEL 5
REMARK VINA RESULT:     -10.7      1.637      2.477
REMARK  Name = 9909438
REMARK  10 active torsions:
REMARK  status: ('A' for Active; 'I' for Inactive)
REMARK    1  A    between atoms: C_1  and  C_2
REMARK    2  A    between atoms: C_1  and  C_18
REMARK    3  A    between atoms: C_2  and  C_7
REMARK    4  A    between atoms: N_4  and  C_10
REMARK    5  A    between atoms: C_10  and  C_11
REMARK    6  A    between atoms: C_18  and  C_19
REMARK    7  A    between atoms: C_22  and  O_25
REMARK    8  A    between atoms: O_25  and  C_26
REMARK    9  A    between atoms: C_26  and  C_30
REMARK   10  A    between atoms: C_30  and  O_31
REMARK                            x       y       z     vdW  Elec       q    Type
REMARK                         _______ _______ _______ _____ _____    ______ ____
ROOT
ATOM      1  C   UNL     1      34.607 -20.549 -19.933  0.00  0.00    +0.014 C 
ENDROOT
BRANCH   1   2
ATOM      2  C   UNL     1      35.776 -19.762 -20.521  0.00  0.00    +0.078 C 
BRANCH   2   7
ATOM      3  O   UNL     1      33.783 -18.425 -24.586  0.00  0.00    -0.191 OA
ATOM      4  N   UNL     1      35.077 -17.281 -23.027  0.00  0.00    -0.151 N 
ATOM      5  N   UNL     1      35.668 -17.651 -21.859  0.00  0.00    -0.229 N 
ATOM      6  N   UNL     1      34.603 -19.457 -22.668  0.00  0.00    -0.308 NA
ATOM      7  C   UNL     1      35.346 -18.965 -21.704  0.00  0.00    +0.187 C 
ATOM      8  C   UNL     1      34.421 -18.385 -23.542  0.00  0.00    +0.286 C 
ATOM      9  H   UNL     1      36.209 -17.091 -21.256  0.00  0.00    +0.173 HD
BRANCH   4  10
ATOM     10  C   UNL     1      35.207 -15.942 -23.530  0.00  0.00    +0.152 C 
BRANCH  10  11
ATOM     11  C   UNL     1      34.343 -14.972 -22.778  0.00  0.00    +0.000 C 
ATOM     12  C   UNL     1      34.430 -14.907 -21.393  0.00  0.00    -0.003 C 
ATOM     13  C   UNL     1      33.464 -14.151 -23.474  0.00  0.00    -0.003 C 
ATOM     14  C   UNL     1      32.743 -13.177 -21.383  0.00  0.00    -0.022 C 
ATOM     15  C   UNL     1      33.627 -14.005 -20.693  0.00  0.00    -0.005 C 
ATOM     16  C   UNL     1      32.661 -13.250 -22.774  0.00  0.00    -0.005 C 
ATOM     17  C   UNL     1      31.885 -12.214 -20.635  0.00  0.00    +0.031 C 
ENDBRANCH  10  11
ENDBRANCH   4  10
ENDBRANCH   2   7
ENDBRANCH   1   2
BRANCH   1  18
ATOM     18  C   UNL     1      34.965 -22.014 -19.661  0.00  0.00    +0.027 C 
BRANCH  18  19
ATOM     19  C   UNL     1      35.063 -22.296 -18.183  0.00  0.00    -0.022 C 
ATOM     20  C   UNL     1      36.241 -22.002 -17.512  0.00  0.00    -0.001 C 
ATOM     21  C   UNL     1      33.976 -22.842 -17.520  0.00  0.00    -0.001 C 
ATOM     22  C   UNL     1      35.245 -22.812 -15.465  0.00  0.00    +0.139 C 
ATOM     23  C   UNL     1      36.333 -22.262 -16.144  0.00  0.00    +0.037 C 
ATOM     24  C   UNL     1      34.067 -23.103 -16.152  0.00  0.00    +0.037 C 
BRANCH  22  25
ATOM     25  O   UNL     1      35.334 -23.067 -14.131  0.00  0.00    -0.472 OA
BRANCH  25  26
ATOM     26  C   UNL     1      36.011 -24.261 -13.742  0.00  0.00    +0.221 C 
ATOM     27  C   UNL     1      35.687 -25.343 -14.767  0.00  0.00    +0.055 C 
ATOM     28  C   UNL     1      37.505 -23.956 -13.674  0.00  0.00    +0.055 C 
BRANCH  26  30
ATOM     29  O   UNL     1      34.557 -24.007 -11.806  0.00  0.00    -0.246 OA
ATOM     30  C   UNL     1      35.457 -24.618 -12.369  0.00  0.00    +0.350 C 
BRANCH  30  31
ATOM     31  O   UNL     1      36.062 -25.697 -11.808  0.00  0.00    -0.478 OA
ATOM     32  H   UNL     1      35.704 -26.085 -11.035  0.00  0.00    +0.295 HD
ENDBRANCH  30  31
ENDBRANCH  26  30
ENDBRANCH  25  26
ENDBRANCH  22  25
ENDBRANCH  18  19
ENDBRANCH   1  18
TORSDOF 10
ENDMDL
MODEL 6
REMARK VINA RESULT:     -10.7      5.705     13.719
REMARK  Name = 9909438
REMARK  10 active torsions:
REMARK  status: ('A' for Active; 'I' for Inactive)
REMARK    1  A    between atoms: C_1  and  C_2
REMARK    2  A    between atoms: C_1  and  C_18
REMARK    3  A    between atoms: C_2  and  C_7
REMARK    4  A    between atoms: N_4  and  C_10
REMARK    5  A    between atoms: C_10  and  C_11
REMARK    6  A    between atoms: C_18  and  C_19
REMARK    7  A    between atoms: C_22  and  O_25
REMARK    8  A    between atoms: O_25  and  C_26
REMARK    9  A    between atoms: C_26  and  C_30
REMARK   10  A    between atoms: C_30  and  O_31
REMARK                            x       y       z     vdW  Elec       q    Type
REMARK                         _______ _______ _______ _____ _____    ______ ____
ROOT
ATOM      1  C   UNL     1      33.771 -13.307 -23.353  0.00  0.00    +0.014 C 
ENDROOT
BRANCH   1   2
ATOM      2  C   UNL     1      34.050 -14.682 -23.955  0.00  0.00    +0.078 C 
BRANCH   2   7
ATOM      3  O   UNL     1      35.333 -16.652 -19.861  0.00  0.00    -0.191 OA
ATOM      4  N   UNL     1      35.504 -17.374 -22.066  0.00  0.00    -0.151 N 
ATOM      5  N   UNL     1      35.151 -16.818 -23.257  0.00  0.00    -0.229 N 
ATOM      6  N   UNL     1      34.573 -15.364 -21.644  0.00  0.00    -0.308 NA
ATOM      7  C   UNL     1      34.601 -15.614 -22.932  0.00  0.00    +0.187 C 
ATOM      8  C   UNL     1      35.159 -16.487 -21.062  0.00  0.00    +0.286 C 
ATOM      9  H   UNL     1      35.267 -17.201 -24.157  0.00  0.00    +0.173 HD
BRANCH   4  10
ATOM     10  C   UNL     1      36.133 -18.664 -22.011  0.00  0.00    +0.152 C 
BRANCH  10  11
ATOM     11  C   UNL     1      35.425 -19.595 -21.070  0.00  0.00    +0.000 C 
ATOM     12  C   UNL     1      34.043 -19.720 -21.140  0.00  0.00    -0.003 C 
ATOM     13  C   UNL     1      36.158 -20.322 -20.139  0.00  0.00    -0.003 C 
ATOM     14  C   UNL     1      34.112 -21.319 -19.329  0.00  0.00    -0.022 C 
ATOM     15  C   UNL     1      33.384 -20.587 -20.265  0.00  0.00    -0.005 C 
ATOM     16  C   UNL     1      35.500 -21.187 -19.266  0.00  0.00    -0.005 C 
ATOM     17  C   UNL     1      33.408 -22.244 -18.395  0.00  0.00    +0.031 C 
ENDBRANCH  10  11
ENDBRANCH   4  10
ENDBRANCH   2   7
ENDBRANCH   1   2
BRANCH   1  18
ATOM     18  C   UNL     1      33.827 -12.188 -24.399  0.00  0.00    +0.027 C 
BRANCH  18  19
ATOM     19  C   UNL     1      33.634 -10.832 -23.772  0.00  0.00    -0.022 C 
ATOM     20  C   UNL     1      34.497  -9.799 -24.105  0.00  0.00    -0.001 C 
ATOM     21  C   UNL     1      32.596 -10.638 -22.873  0.00  0.00    -0.001 C 
ATOM     22  C   UNL     1      33.278  -8.334 -22.620  0.00  0.00    +0.139 C 
ATOM     23  C   UNL     1      34.319  -8.542 -23.526  0.00  0.00    +0.037 C 
ATOM     24  C   UNL     1      32.417  -9.382 -22.293  0.00  0.00    +0.037 C 
BRANCH  22  25
ATOM     25  O   UNL     1      33.104  -7.109 -22.053  0.00  0.00    -0.472 OA
BRANCH  25  26
ATOM     26  C   UNL     1      32.282  -6.179 -22.757  0.00  0.00    +0.221 C 
ATOM     27  C   UNL     1      33.195  -5.214 -23.507  0.00  0.00    +0.055 C 
ATOM     28  C   UNL     1      31.375  -6.967 -23.698  0.00  0.00    +0.055 C 
BRANCH  26  30
ATOM     29  O   UNL     1      30.275  -5.215 -21.771  0.00  0.00    -0.246 OA
ATOM     30  C   UNL     1      31.473  -5.456 -21.688  0.00  0.00    +0.350 C 
BRANCH  30  31
ATOM     31  O   UNL     1      32.212  -5.092 -20.608  0.00  0.00    -0.478 OA
ATOM     32  H   UNL     1      32.724  -4.308 -20.634  0.00  0.00    +0.295 HD
ENDBRANCH  30  31
ENDBRANCH  26  30
ENDBRANCH  25  26
ENDBRANCH  22  25
ENDBRANCH  18  19
ENDBRANCH   1  18
TORSDOF 10
ENDMDL
MODEL 7
REMARK VINA RESULT:     -10.5      1.917      3.087
REMARK  Name = 9909438
REMARK  10 active torsions:
REMARK  status: ('A' for Active; 'I' for Inactive)
REMARK    1  A    between atoms: C_1  and  C_2
REMARK    2  A    between atoms: C_1  and  C_18
REMARK    3  A    between atoms: C_2  and  C_7
REMARK    4  A    between atoms: N_4  and  C_10
REMARK    5  A    between atoms: C_10  and  C_11
REMARK    6  A    between atoms: C_18  and  C_19
REMARK    7  A    between atoms: C_22  and  O_25
REMARK    8  A    between atoms: O_25  and  C_26
REMARK    9  A    between atoms: C_26  and  C_30
REMARK   10  A    between atoms: C_30  and  O_31
REMARK                            x       y       z     vdW  Elec       q    Type
REMARK                         _______ _______ _______ _____ _____    ______ ____
ROOT
ATOM      1  C   UNL     1      34.780 -20.458 -20.062  0.00  0.00    +0.014 C 
ENDROOT
BRANCH   1   2
ATOM      2  C   UNL     1      35.869 -19.533 -20.599  0.00  0.00    +0.078 C 
BRANCH   2   7
ATOM      3  O   UNL     1      33.804 -18.380 -24.686  0.00  0.00    -0.191 OA
ATOM      4  N   UNL     1      35.022 -17.136 -23.143  0.00  0.00    -0.151 N 
ATOM      5  N   UNL     1      35.633 -17.452 -21.968  0.00  0.00    -0.229 N 
ATOM      6  N   UNL     1      34.683 -19.331 -22.752  0.00  0.00    -0.308 NA
ATOM      7  C   UNL     1      35.393 -18.781 -21.794  0.00  0.00    +0.187 C 
ATOM      8  C   UNL     1      34.436 -18.286 -23.642  0.00  0.00    +0.286 C 
ATOM      9  H   UNL     1      36.138 -16.851 -21.374  0.00  0.00    +0.173 HD
BRANCH   4  10
ATOM     10  C   UNL     1      35.071 -15.799 -23.665  0.00  0.00    +0.152 C 
BRANCH  10  11
ATOM     11  C   UNL     1      34.240 -14.848 -22.855  0.00  0.00    +0.000 C 
ATOM     12  C   UNL     1      34.379 -14.822 -21.472  0.00  0.00    -0.003 C 
ATOM     13  C   UNL     1      33.339 -14.005 -23.494  0.00  0.00    -0.003 C 
ATOM     14  C   UNL     1      32.701 -13.088 -21.352  0.00  0.00    -0.022 C 
ATOM     15  C   UNL     1      33.606 -13.937 -20.718  0.00  0.00    -0.005 C 
ATOM     16  C   UNL     1      32.567 -13.121 -22.740  0.00  0.00    -0.005 C 
ATOM     17  C   UNL     1      31.875 -12.143 -20.546  0.00  0.00    +0.031 C 
ENDBRANCH  10  11
ENDBRANCH   4  10
ENDBRANCH   2   7
ENDBRANCH   1   2
BRANCH   1  18
ATOM     18  C   UNL     1      35.298 -21.873 -19.785  0.00  0.00    +0.027 C 
BRANCH  18  19
ATOM     19  C   UNL     1      35.484 -22.118 -18.309  0.00  0.00    -0.022 C 
ATOM     20  C   UNL     1      34.435 -22.645 -17.570  0.00  0.00    -0.001 C 
ATOM     21  C   UNL     1      36.698 -21.813 -17.715  0.00  0.00    -0.001 C 
ATOM     22  C   UNL     1      35.824 -22.571 -15.594  0.00  0.00    +0.139 C 
ATOM     23  C   UNL     1      34.606 -22.873 -16.205  0.00  0.00    +0.037 C 
ATOM     24  C   UNL     1      36.869 -22.040 -16.349  0.00  0.00    +0.037 C 
BRANCH  22  25
ATOM     25  O   UNL     1      35.991 -22.791 -14.262  0.00  0.00    -0.472 OA
BRANCH  25  26
ATOM     26  C   UNL     1      36.124 -24.148 -13.840  0.00  0.00    +0.221 C 
ATOM     27  C   UNL     1      36.095 -24.173 -12.315  0.00  0.00    +0.055 C 
ATOM     28  C   UNL     1      34.979 -24.948 -14.454  0.00  0.00    +0.055 C 
BRANCH  26  30
ATOM     29  O   UNL     1      38.544 -24.090 -14.097  0.00  0.00    -0.246 OA
ATOM     30  C   UNL     1      37.471 -24.613 -14.374  0.00  0.00    +0.350 C 
BRANCH  30  31
ATOM     31  O   UNL     1      37.381 -25.684 -15.205  0.00  0.00    -0.478 OA
ATOM     32  H   UNL     1      37.929 -25.737 -15.962  0.00  0.00    +0.295 HD
ENDBRANCH  30  31
ENDBRANCH  26  30
ENDBRANCH  25  26
ENDBRANCH  22  25
ENDBRANCH  18  19
ENDBRANCH   1  18
TORSDOF 10
ENDMDL
MODEL 8
REMARK VINA RESULT:     -10.4      5.950     13.744
REMARK  Name = 9909438
REMARK  10 active torsions:
REMARK  status: ('A' for Active; 'I' for Inactive)
REMARK    1  A    between atoms: C_1  and  C_2
REMARK    2  A    between atoms: C_1  and  C_18
REMARK    3  A    between atoms: C_2  and  C_7
REMARK    4  A    between atoms: N_4  and  C_10
REMARK    5  A    between atoms: C_10  and  C_11
REMARK    6  A    between atoms: C_18  and  C_19
REMARK    7  A    between atoms: C_22  and  O_25
REMARK    8  A    between atoms: O_25  and  C_26
REMARK    9  A    between atoms: C_26  and  C_30
REMARK   10  A    between atoms: C_30  and  O_31
REMARK                            x       y       z     vdW  Elec       q    Type
REMARK                         _______ _______ _______ _____ _____    ______ ____
ROOT
ATOM      1  C   UNL     1      33.109 -13.498 -22.688  0.00  0.00    +0.014 C 
ENDROOT
BRANCH   1   2
ATOM      2  C   UNL     1      34.195 -14.209 -21.885  0.00  0.00    +0.078 C 
BRANCH   2   7
ATOM      3  O   UNL     1      34.483 -17.903 -24.812  0.00  0.00    -0.191 OA
ATOM      4  N   UNL     1      35.369 -17.510 -22.696  0.00  0.00    -0.151 N 
ATOM      5  N   UNL     1      35.288 -16.460 -21.835  0.00  0.00    -0.229 N 
ATOM      6  N   UNL     1      34.103 -15.914 -23.664  0.00  0.00    -0.308 NA
ATOM      7  C   UNL     1      34.514 -15.540 -22.476  0.00  0.00    +0.187 C 
ATOM      8  C   UNL     1      34.638 -17.192 -23.828  0.00  0.00    +0.286 C 
ATOM      9  H   UNL     1      35.699 -16.381 -20.944  0.00  0.00    +0.173 HD
BRANCH   4  10
ATOM     10  C   UNL     1      36.108 -18.692 -22.353  0.00  0.00    +0.152 C 
BRANCH  10  11
ATOM     11  C   UNL     1      35.378 -19.543 -21.355  0.00  0.00    +0.000 C 
ATOM     12  C   UNL     1      33.995 -19.654 -21.430  0.00  0.00    -0.003 C 
ATOM     13  C   UNL     1      36.092 -20.208 -20.366  0.00  0.00    -0.003 C 
ATOM     14  C   UNL     1      34.025 -21.116 -19.507  0.00  0.00    -0.022 C 
ATOM     15  C   UNL     1      33.316 -20.445 -20.501  0.00  0.00    -0.005 C 
ATOM     16  C   UNL     1      35.413 -20.999 -19.439  0.00  0.00    -0.005 C 
ATOM     17  C   UNL     1      33.299 -21.961 -18.514  0.00  0.00    +0.031 C 
ENDBRANCH  10  11
ENDBRANCH   4  10
ENDBRANCH   2   7
ENDBRANCH   1   2
BRANCH   1  18
ATOM     18  C   UNL     1      32.298 -12.517 -21.834  0.00  0.00    +0.027 C 
BRANCH  18  19
ATOM     19  C   UNL     1      32.386 -11.111 -22.370  0.00  0.00    -0.022 C 
ATOM     20  C   UNL     1      33.252 -10.834 -23.418  0.00  0.00    -0.001 C 
ATOM     21  C   UNL     1      31.598 -10.118 -21.808  0.00  0.00    -0.001 C 
ATOM     22  C   UNL     1      32.545  -8.525 -23.360  0.00  0.00    +0.139 C 
ATOM     23  C   UNL     1      33.332  -9.534 -23.916  0.00  0.00    +0.037 C 
ATOM     24  C   UNL     1      31.679  -8.816 -22.306  0.00  0.00    +0.037 C 
BRANCH  22  25
ATOM     25  O   UNL     1      32.624  -7.255 -23.843  0.00  0.00    -0.472 OA
BRANCH  25  26
ATOM     26  C   UNL     1      33.460  -6.342 -23.135  0.00  0.00    +0.221 C 
ATOM     27  C   UNL     1      32.636  -5.720 -22.012  0.00  0.00    +0.055 C 
ATOM     28  C   UNL     1      34.666  -7.115 -22.610  0.00  0.00    +0.055 C 
BRANCH  26  30
ATOM     29  O   UNL     1      33.202  -4.323 -24.471  0.00  0.00    -0.246 OA
ATOM     30  C   UNL     1      33.880  -5.294 -24.157  0.00  0.00    +0.350 C 
BRANCH  30  31
ATOM     31  O   UNL     1      35.099  -5.533 -24.705  0.00  0.00    -0.478 OA
ATOM     32  H   UNL     1      35.231  -6.288 -25.243  0.00  0.00    +0.295 HD
ENDBRANCH  30  31
ENDBRANCH  26  30
ENDBRANCH  25  26
ENDBRANCH  22  25
ENDBRANCH  18  19
ENDBRANCH   1  18
TORSDOF 10
ENDMDL
MODEL 9
REMARK VINA RESULT:     -10.2      2.728      4.055
REMARK  Name = 9909438
REMARK  10 active torsions:
REMARK  status: ('A' for Active; 'I' for Inactive)
REMARK    1  A    between atoms: C_1  and  C_2
REMARK    2  A    between atoms: C_1  and  C_18
REMARK    3  A    between atoms: C_2  and  C_7
REMARK    4  A    between atoms: N_4  and  C_10
REMARK    5  A    between atoms: C_10  and  C_11
REMARK    6  A    between atoms: C_18  and  C_19
REMARK    7  A    between atoms: C_22  and  O_25
REMARK    8  A    between atoms: O_25  and  C_26
REMARK    9  A    between atoms: C_26  and  C_30
REMARK   10  A    between atoms: C_30  and  O_31
REMARK                            x       y       z     vdW  Elec       q    Type
REMARK                         _______ _______ _______ _____ _____    ______ ____
ROOT
ATOM      1  C   UNL     1      35.626 -20.681 -19.952  0.00  0.00    +0.014 C 
ENDROOT
BRANCH   1   2
ATOM      2  C   UNL     1      36.518 -19.664 -20.659  0.00  0.00    +0.078 C 
BRANCH   2   7
ATOM      3  O   UNL     1      33.512 -18.682 -24.165  0.00  0.00    -0.191 OA
ATOM      4  N   UNL     1      35.144 -17.410 -23.100  0.00  0.00    -0.151 N 
ATOM      5  N   UNL     1      36.025 -17.678 -22.099  0.00  0.00    -0.229 N 
ATOM      6  N   UNL     1      34.822 -19.544 -22.445  0.00  0.00    -0.308 NA
ATOM      7  C   UNL     1      35.780 -18.972 -21.754  0.00  0.00    +0.187 C 
ATOM      8  C   UNL     1      34.398 -18.553 -23.330  0.00  0.00    +0.286 C 
ATOM      9  H   UNL     1      36.693 -17.069 -21.708  0.00  0.00    +0.173 HD
BRANCH   4  10
ATOM     10  C   UNL     1      35.113 -16.121 -23.733  0.00  0.00    +0.152 C 
BRANCH  10  11
ATOM     11  C   UNL     1      34.328 -15.121 -22.933  0.00  0.00    +0.000 C 
ATOM     12  C   UNL     1      34.480 -15.075 -21.553  0.00  0.00    -0.003 C 
ATOM     13  C   UNL     1      33.458 -14.253 -23.582  0.00  0.00    -0.003 C 
ATOM     14  C   UNL     1      32.876 -13.271 -21.452  0.00  0.00    -0.022 C 
ATOM     15  C   UNL     1      33.751 -14.145 -20.810  0.00  0.00    -0.005 C 
ATOM     16  C   UNL     1      32.730 -13.324 -22.839  0.00  0.00    -0.005 C 
ATOM     17  C   UNL     1      32.097 -12.278 -20.657  0.00  0.00    +0.031 C 
ENDBRANCH  10  11
ENDBRANCH   4  10
ENDBRANCH   2   7
ENDBRANCH   1   2
BRANCH   1  18
ATOM     18  C   UNL     1      36.319 -21.332 -18.750  0.00  0.00    +0.027 C 
BRANCH  18  19
ATOM     19  C   UNL     1      35.346 -22.112 -17.903  0.00  0.00    -0.022 C 
ATOM     20  C   UNL     1      34.114 -22.466 -18.433  0.00  0.00    -0.001 C 
ATOM     21  C   UNL     1      35.699 -22.463 -16.609  0.00  0.00    -0.001 C 
ATOM     22  C   UNL     1      33.557 -23.549 -16.347  0.00  0.00    +0.139 C 
ATOM     23  C   UNL     1      33.214 -23.189 -17.651  0.00  0.00    +0.037 C 
ATOM     24  C   UNL     1      34.798 -23.186 -15.826  0.00  0.00    +0.037 C 
BRANCH  22  25
ATOM     25  O   UNL     1      32.678 -24.253 -15.582  0.00  0.00    -0.472 OA
BRANCH  25  26
ATOM     26  C   UNL     1      31.533 -23.553 -15.098  0.00  0.00    +0.221 C 
ATOM     27  C   UNL     1      31.987 -22.618 -13.982  0.00  0.00    +0.055 C 
ATOM     28  C   UNL     1      30.911 -22.798 -16.269  0.00  0.00    +0.055 C 
BRANCH  26  30
ATOM     29  O   UNL     1      30.791 -25.289 -13.561  0.00  0.00    -0.246 OA
ATOM     30  C   UNL     1      30.590 -24.626 -14.571  0.00  0.00    +0.350 C 
BRANCH  30  31
ATOM     31  O   UNL     1      29.478 -24.788 -15.334  0.00  0.00    -0.478 OA
ATOM     32  H   UNL     1      28.738 -25.248 -14.992  0.00  0.00    +0.295 HD
ENDBRANCH  30  31
ENDBRANCH  26  30
ENDBRANCH  25  26
ENDBRANCH  22  25
ENDBRANCH  18  19
ENDBRANCH   1  18
TORSDOF 10
ENDMDL
