MODEL 1
REMARK VINA RESULT:     -12.1      0.000      0.000
REMARK  Name = 10430360
REMARK  6 active torsions:
REMARK  status: ('A' for Active; 'I' for Inactive)
REMARK    1  A    between atoms: C_4  and  C_18
REMARK    2  A    between atoms: C_7  and  C_14
REMARK    3  A    between atoms: C_17  and  O_23
REMARK    4  A    between atoms: O_23  and  C_24
REMARK    5  A    between atoms: C_24  and  C_25
REMARK    6  A    between atoms: C_25  and  N_26
REMARK                            x       y       z     vdW  Elec       q    Type
REMARK                         _______ _______ _______ _____ _____    ______ ____
ROOT
ATOM      1  N   UNL     1      33.735 -24.928 -13.315  0.00  0.00    -0.276 N 
ATOM      2  N   UNL     1      34.702 -24.418 -14.097  0.00  0.00    -0.173 NA
ATOM      3  C   UNL     1      32.624 -23.872 -14.883  0.00  0.00    +0.036 A 
ATOM      4  C   UNL     1      34.024 -23.774 -15.054  0.00  0.00    +0.102 A 
ATOM      5  C   UNL     1      32.464 -24.636 -13.733  0.00  0.00    +0.075 A 
ATOM      6  C   UNL     1      31.485 -23.407 -15.564  0.00  0.00    +0.006 C 
ATOM      7  C   UNL     1      30.222 -23.733 -15.054  0.00  0.00    +0.033 C 
ATOM      8  C   UNL     1      31.215 -24.972 -13.209  0.00  0.00    +0.019 C 
ATOM      9  C   UNL     1      30.091 -24.503 -13.897  0.00  0.00    +0.004 C 
ATOM     10  H   UNL     1      33.924 -25.465 -12.512  0.00  0.00    +0.189 HD
ENDROOT
BRANCH   7  14
ATOM     11  N   UNL     1      28.624 -23.778 -16.926  0.00  0.00    -0.218 N 
ATOM     12  N   UNL     1      28.218 -22.324 -15.346  0.00  0.00    -0.206 NA
ATOM     13  N   UNL     1      27.502 -23.172 -17.346  0.00  0.00    -0.157 NA
ATOM     14  C   UNL     1      29.039 -23.267 -15.738  0.00  0.00    +0.149 C 
ATOM     15  C   UNL     1      27.299 -22.301 -16.356  0.00  0.00    +0.218 C 
ATOM     16  H   UNL     1      29.083 -24.498 -17.414  0.00  0.00    +0.176 HD
ENDBRANCH   7  14
BRANCH   4  18
ATOM     17  C   UNL     1      34.779 -22.163 -18.323  0.00  0.00    +0.138 C 
ATOM     18  C   UNL     1      34.726 -23.084 -16.099  0.00  0.00    +0.022 C 
ATOM     19  C   UNL     1      34.093 -22.833 -17.317  0.00  0.00    +0.038 C 
ATOM     20  C   UNL     1      36.090 -21.741 -18.128  0.00  0.00    +0.037 C 
ATOM     21  C   UNL     1      36.040 -22.664 -15.896  0.00  0.00    +0.002 C 
ATOM     22  C   UNL     1      36.723 -21.993 -16.911  0.00  0.00    +0.003 C 
BRANCH  17  23
ATOM     23  O   UNL     1      34.158 -21.915 -19.519  0.00  0.00    -0.478 OA
BRANCH  23  24
ATOM     24  C   UNL     1      33.970 -20.550 -19.873  0.00  0.00    +0.183 C 
BRANCH  24  25
ATOM     25  C   UNL     1      35.118 -20.117 -20.771  0.00  0.00    -0.029 C 
BRANCH  25  26
ATOM     26  N   UNL     1      34.693 -19.043 -21.669  0.00  0.00    +0.389 N 
ATOM     27  C   UNL     1      35.577 -17.877 -21.531  0.00  0.00    -0.077 C 
ATOM     28  C   UNL     1      34.654 -19.520 -23.058  0.00  0.00    -0.077 C 
ATOM     29  C   UNL     1      35.117 -16.727 -22.428  0.00  0.00    -0.023 C 
ATOM     30  C   UNL     1      34.164 -18.423 -24.005  0.00  0.00    -0.023 C 
ATOM     31  C   UNL     1      35.017 -17.165 -23.885  0.00  0.00    -0.004 C 
ATOM     32  H   UNL     1      33.749 -18.754 -21.410  0.00  0.00    -0.080 HD
ENDBRANCH  25  26
ENDBRANCH  24  25
ENDBRANCH  23  24
ENDBRANCH  17  23
ENDBRANCH   4  18
TORSDOF 6
ENDMDL
MODEL 2
REMARK VINA RESULT:     -11.8      1.466      2.616
REMARK  Name = 10430360
REMARK  6 active torsions:
REMARK  status: ('A' for Active; 'I' for Inactive)
REMARK    1  A    between atoms: C_4  and  C_18
REMARK    2  A    between atoms: C_7  and  C_14
REMARK    3  A    between atoms: C_17  and  O_23
REMARK    4  A    between atoms: O_23  and  C_24
REMARK    5  A    between atoms: C_24  and  C_25
REMARK    6  A    between atoms: C_25  and  N_26
REMARK                            x       y       z     vdW  Elec       q    Type
REMARK                         _______ _______ _______ _____ _____    ______ ____
ROOT
ATOM      1  N   UNL     1      34.664 -23.826 -15.709  0.00  0.00    -0.276 N 
ATOM      2  N   UNL     1      35.105 -23.130 -16.771  0.00  0.00    -0.173 NA
ATOM      3  C   UNL     1      32.833 -22.962 -16.553  0.00  0.00    +0.036 A 
ATOM      4  C   UNL     1      33.988 -22.603 -17.286  0.00  0.00    +0.102 A 
ATOM      5  C   UNL     1      33.309 -23.766 -15.523  0.00  0.00    +0.075 A 
ATOM      6  C   UNL     1      31.455 -22.703 -16.643  0.00  0.00    +0.006 C 
ATOM      7  C   UNL     1      30.605 -23.267 -15.684  0.00  0.00    +0.033 C 
ATOM      8  C   UNL     1      32.479 -24.339 -14.558  0.00  0.00    +0.019 C 
ATOM      9  C   UNL     1      31.110 -24.071 -14.660  0.00  0.00    +0.004 C 
ATOM     10  H   UNL     1      35.264 -24.334 -15.117  0.00  0.00    +0.189 HD
ENDROOT
BRANCH   7  14
ATOM     11  N   UNL     1      28.414 -23.434 -16.794  0.00  0.00    -0.218 N 
ATOM     12  N   UNL     1      28.449 -22.372 -14.885  0.00  0.00    -0.206 NA
ATOM     13  N   UNL     1      27.134 -23.071 -16.620  0.00  0.00    -0.157 NA
ATOM     14  C   UNL     1      29.185 -23.015 -15.758  0.00  0.00    +0.149 C 
ATOM     15  C   UNL     1      27.208 -22.431 -15.452  0.00  0.00    +0.218 C 
ATOM     16  H   UNL     1      28.748 -23.940 -17.569  0.00  0.00    +0.176 HD
ENDBRANCH   7  14
BRANCH   4  18
ATOM     17  C   UNL     1      35.331 -20.474 -20.027  0.00  0.00    +0.138 C 
ATOM     18  C   UNL     1      34.051 -21.774 -18.456  0.00  0.00    +0.022 C 
ATOM     19  C   UNL     1      35.279 -21.276 -18.893  0.00  0.00    +0.038 C 
ATOM     20  C   UNL     1      34.172 -20.162 -20.730  0.00  0.00    +0.037 C 
ATOM     21  C   UNL     1      32.885 -21.466 -19.156  0.00  0.00    +0.002 C 
ATOM     22  C   UNL     1      32.945 -20.661 -20.293  0.00  0.00    +0.003 C 
BRANCH  17  23
ATOM     23  O   UNL     1      36.537 -19.985 -20.458  0.00  0.00    -0.478 OA
BRANCH  23  24
ATOM     24  C   UNL     1      36.542 -18.663 -20.983  0.00  0.00    +0.183 C 
BRANCH  24  25
ATOM     25  C   UNL     1      36.189 -18.723 -22.460  0.00  0.00    -0.029 C 
BRANCH  25  26
ATOM     26  N   UNL     1      35.761 -17.409 -22.941  0.00  0.00    +0.389 N 
ATOM     27  C   UNL     1      34.799 -17.553 -24.043  0.00  0.00    -0.077 C 
ATOM     28  C   UNL     1      35.195 -16.617 -21.840  0.00  0.00    -0.077 C 
ATOM     29  C   UNL     1      34.380 -16.188 -24.590  0.00  0.00    -0.023 C 
ATOM     30  C   UNL     1      34.788 -15.222 -22.316  0.00  0.00    -0.023 C 
ATOM     31  C   UNL     1      33.816 -15.297 -23.489  0.00  0.00    -0.004 C 
ATOM     32  H   UNL     1      36.577 -16.911 -23.299  0.00  0.00    -0.080 HD
ENDBRANCH  25  26
ENDBRANCH  24  25
ENDBRANCH  23  24
ENDBRANCH  17  23
ENDBRANCH   4  18
TORSDOF 6
ENDMDL
MODEL 3
REMARK VINA RESULT:     -11.8      1.970      4.621
REMARK  Name = 10430360
REMARK  6 active torsions:
REMARK  status: ('A' for Active; 'I' for Inactive)
REMARK    1  A    between atoms: C_4  and  C_18
REMARK    2  A    between atoms: C_7  and  C_14
REMARK    3  A    between atoms: C_17  and  O_23
REMARK    4  A    between atoms: O_23  and  C_24
REMARK    5  A    between atoms: C_24  and  C_25
REMARK    6  A    between atoms: C_25  and  N_26
REMARK                            x       y       z     vdW  Elec       q    Type
REMARK                         _______ _______ _______ _____ _____    ______ ____
ROOT
ATOM      1  N   UNL     1      31.248 -23.028 -16.660  0.00  0.00    -0.276 N 
ATOM      2  N   UNL     1      31.945 -22.415 -17.633  0.00  0.00    -0.173 NA
ATOM      3  C   UNL     1      33.334 -23.261 -16.023  0.00  0.00    +0.036 A 
ATOM      4  C   UNL     1      33.217 -22.557 -17.243  0.00  0.00    +0.102 A 
ATOM      5  C   UNL     1      32.023 -23.557 -15.664  0.00  0.00    +0.075 A 
ATOM      6  C   UNL     1      34.385 -23.677 -15.189  0.00  0.00    +0.006 C 
ATOM      7  C   UNL     1      34.074 -24.380 -14.019  0.00  0.00    +0.033 C 
ATOM      8  C   UNL     1      31.691 -24.256 -14.502  0.00  0.00    +0.019 C 
ATOM      9  C   UNL     1      32.749 -24.663 -13.682  0.00  0.00    +0.004 C 
ATOM     10  H   UNL     1      30.266 -23.090 -16.665  0.00  0.00    +0.189 HD
ENDROOT
BRANCH   7  14
ATOM     11  N   UNL     1      34.999 -24.908 -11.799  0.00  0.00    -0.218 N 
ATOM     12  N   UNL     1      36.351 -25.173 -13.495  0.00  0.00    -0.206 NA
ATOM     13  N   UNL     1      36.135 -25.335 -11.225  0.00  0.00    -0.157 NA
ATOM     14  C   UNL     1      35.139 -24.816 -13.147  0.00  0.00    +0.149 C 
ATOM     15  C   UNL     1      36.920 -25.480 -12.293  0.00  0.00    +0.218 C 
ATOM     16  H   UNL     1      34.174 -24.692 -11.308  0.00  0.00    +0.176 HD
ENDBRANCH   7  14
BRANCH   4  18
ATOM     17  C   UNL     1      35.031 -20.773 -19.959  0.00  0.00    +0.138 C 
ATOM     18  C   UNL     1      34.284 -22.023 -18.043  0.00  0.00    +0.022 C 
ATOM     19  C   UNL     1      33.993 -21.287 -19.192  0.00  0.00    +0.038 C 
ATOM     20  C   UNL     1      36.356 -20.985 -19.595  0.00  0.00    +0.037 C 
ATOM     21  C   UNL     1      35.610 -22.239 -17.670  0.00  0.00    +0.002 C 
ATOM     22  C   UNL     1      36.646 -21.720 -18.445  0.00  0.00    +0.003 C 
BRANCH  17  23
ATOM     23  O   UNL     1      34.746 -20.049 -21.088  0.00  0.00    -0.478 OA
BRANCH  23  24
ATOM     24  C   UNL     1      35.297 -18.740 -21.166  0.00  0.00    +0.183 C 
BRANCH  24  25
ATOM     25  C   UNL     1      35.862 -18.530 -22.562  0.00  0.00    -0.029 C 
BRANCH  25  26
ATOM     26  N   UNL     1      35.508 -17.204 -23.067  0.00  0.00    +0.389 N 
ATOM     27  C   UNL     1      34.523 -17.312 -24.152  0.00  0.00    -0.077 C 
ATOM     28  C   UNL     1      35.008 -16.355 -21.977  0.00  0.00    -0.077 C 
ATOM     29  C   UNL     1      34.179 -15.936 -24.724  0.00  0.00    -0.023 C 
ATOM     30  C   UNL     1      34.680 -14.948 -22.479  0.00  0.00    -0.023 C 
ATOM     31  C   UNL     1      33.688 -14.988 -23.636  0.00  0.00    -0.004 C 
ATOM     32  H   UNL     1      36.347 -16.764 -23.447  0.00  0.00    -0.080 HD
ENDBRANCH  25  26
ENDBRANCH  24  25
ENDBRANCH  23  24
ENDBRANCH  17  23
ENDBRANCH   4  18
TORSDOF 6
ENDMDL
MODEL 4
REMARK VINA RESULT:     -11.5      2.343      4.032
REMARK  Name = 10430360
REMARK  6 active torsions:
REMARK  status: ('A' for Active; 'I' for Inactive)
REMARK    1  A    between atoms: C_4  and  C_18
REMARK    2  A    between atoms: C_7  and  C_14
REMARK    3  A    between atoms: C_17  and  O_23
REMARK    4  A    between atoms: O_23  and  C_24
REMARK    5  A    between atoms: C_24  and  C_25
REMARK    6  A    between atoms: C_25  and  N_26
REMARK                            x       y       z     vdW  Elec       q    Type
REMARK                         _______ _______ _______ _____ _____    ______ ____
ROOT
ATOM      1  N   UNL     1      37.733 -22.952 -16.017  0.00  0.00    -0.276 N 
ATOM      2  N   UNL     1      37.425 -22.333 -17.170  0.00  0.00    -0.173 NA
ATOM      3  C   UNL     1      35.541 -22.898 -16.001  0.00  0.00    +0.036 A 
ATOM      4  C   UNL     1      36.088 -22.300 -17.160  0.00  0.00    +0.102 A 
ATOM      5  C   UNL     1      36.646 -23.318 -15.270  0.00  0.00    +0.075 A 
ATOM      6  C   UNL     1      34.252 -23.132 -15.494  0.00  0.00    +0.006 C 
ATOM      7  C   UNL     1      34.126 -23.782 -14.260  0.00  0.00    +0.033 C 
ATOM      8  C   UNL     1      36.543 -23.967 -14.038  0.00  0.00    +0.019 C 
ATOM      9  C   UNL     1      35.253 -24.192 -13.546  0.00  0.00    +0.004 C 
ATOM     10  H   UNL     1      38.660 -23.127 -15.737  0.00  0.00    +0.189 HD
ENDROOT
BRANCH   7  14
ATOM     11  N   UNL     1      32.497 -25.162 -13.034  0.00  0.00    -0.218 N 
ATOM     12  N   UNL     1      31.760 -23.253 -13.801  0.00  0.00    -0.206 NA
ATOM     13  N   UNL     1      31.213 -25.148 -12.643  0.00  0.00    -0.157 NA
ATOM     14  C   UNL     1      32.810 -24.033 -13.720  0.00  0.00    +0.149 C 
ATOM     15  C   UNL     1      30.812 -23.974 -13.132  0.00  0.00    +0.218 C 
ATOM     16  H   UNL     1      33.128 -25.894 -12.847  0.00  0.00    +0.176 HD
ENDBRANCH   7  14
BRANCH   4  18
ATOM     17  C   UNL     1      35.341 -20.328 -20.227  0.00  0.00    +0.138 C 
ATOM     18  C   UNL     1      35.369 -21.701 -18.250  0.00  0.00    +0.022 C 
ATOM     19  C   UNL     1      36.043 -20.904 -19.175  0.00  0.00    +0.038 C 
ATOM     20  C   UNL     1      33.973 -20.537 -20.365  0.00  0.00    +0.037 C 
ATOM     21  C   UNL     1      33.998 -21.915 -18.382  0.00  0.00    +0.002 C 
ATOM     22  C   UNL     1      33.299 -21.334 -19.440  0.00  0.00    +0.003 C 
BRANCH  17  23
ATOM     23  O   UNL     1      36.002 -19.546 -21.137  0.00  0.00    -0.478 OA
BRANCH  23  24
ATOM     24  C   UNL     1      35.378 -18.323 -21.507  0.00  0.00    +0.183 C 
BRANCH  24  25
ATOM     25  C   UNL     1      35.682 -18.042 -22.969  0.00  0.00    -0.029 C 
BRANCH  25  26
ATOM     26  N   UNL     1      35.293 -16.677 -23.324  0.00  0.00    +0.389 N 
ATOM     27  C   UNL     1      34.222 -16.692 -24.330  0.00  0.00    -0.077 C 
ATOM     28  C   UNL     1      34.886 -15.931 -22.125  0.00  0.00    -0.077 C 
ATOM     29  C   UNL     1      33.837 -15.272 -24.747  0.00  0.00    -0.023 C 
ATOM     30  C   UNL     1      34.523 -14.486 -22.471  0.00  0.00    -0.023 C 
ATOM     31  C   UNL     1      33.439 -14.427 -23.542  0.00  0.00    -0.004 C 
ATOM     32  H   UNL     1      36.099 -16.202 -23.730  0.00  0.00    -0.080 HD
ENDBRANCH  25  26
ENDBRANCH  24  25
ENDBRANCH  23  24
ENDBRANCH  17  23
ENDBRANCH   4  18
TORSDOF 6
ENDMDL
MODEL 5
REMARK VINA RESULT:     -11.5      3.213      6.231
REMARK  Name = 10430360
REMARK  6 active torsions:
REMARK  status: ('A' for Active; 'I' for Inactive)
REMARK    1  A    between atoms: C_4  and  C_18
REMARK    2  A    between atoms: C_7  and  C_14
REMARK    3  A    between atoms: C_17  and  O_23
REMARK    4  A    between atoms: O_23  and  C_24
REMARK    5  A    between atoms: C_24  and  C_25
REMARK    6  A    between atoms: C_25  and  N_26
REMARK                            x       y       z     vdW  Elec       q    Type
REMARK                         _______ _______ _______ _____ _____    ______ ____
ROOT
ATOM      1  N   UNL     1      34.768 -24.227 -11.414  0.00  0.00    -0.276 N 
ATOM      2  N   UNL     1      33.901 -23.742 -12.319  0.00  0.00    -0.173 NA
ATOM      3  C   UNL     1      35.706 -24.714 -13.335  0.00  0.00    +0.036 A 
ATOM      4  C   UNL     1      34.473 -24.039 -13.491  0.00  0.00    +0.102 A 
ATOM      5  C   UNL     1      35.874 -24.822 -11.960  0.00  0.00    +0.075 A 
ATOM      6  C   UNL     1      36.689 -25.238 -14.192  0.00  0.00    +0.006 C 
ATOM      7  C   UNL     1      37.810 -25.856 -13.623  0.00  0.00    +0.033 C 
ATOM      8  C   UNL     1      36.983 -25.434 -11.373  0.00  0.00    +0.019 C 
ATOM      9  C   UNL     1      37.953 -25.951 -12.238  0.00  0.00    +0.004 C 
ATOM     10  H   UNL     1      34.621 -24.159 -10.443  0.00  0.00    +0.189 HD
ENDROOT
BRANCH   7  14
ATOM     11  N   UNL     1      39.799 -25.638 -15.057  0.00  0.00    -0.218 N 
ATOM     12  N   UNL     1      38.986 -27.654 -14.837  0.00  0.00    -0.206 NA
ATOM     13  N   UNL     1      40.621 -26.386 -15.810  0.00  0.00    -0.157 NA
ATOM     14  C   UNL     1      38.833 -26.402 -14.485  0.00  0.00    +0.149 C 
ATOM     15  C   UNL     1      40.087 -27.596 -15.644  0.00  0.00    +0.218 C 
ATOM     16  H   UNL     1      39.886 -24.665 -14.936  0.00  0.00    +0.176 HD
ENDBRANCH   7  14
BRANCH   4  18
ATOM     17  C   UNL     1      33.961 -23.144 -17.067  0.00  0.00    +0.138 C 
ATOM     18  C   UNL     1      33.831 -23.676 -14.723  0.00  0.00    +0.022 C 
ATOM     19  C   UNL     1      34.591 -23.495 -15.879  0.00  0.00    +0.038 C 
ATOM     20  C   UNL     1      32.583 -22.970 -17.116  0.00  0.00    +0.037 C 
ATOM     21  C   UNL     1      32.448 -23.504 -14.764  0.00  0.00    +0.002 C 
ATOM     22  C   UNL     1      31.823 -23.151 -15.960  0.00  0.00    +0.003 C 
BRANCH  17  23
ATOM     23  O   UNL     1      34.707 -22.967 -18.203  0.00  0.00    -0.478 OA
BRANCH  23  24
ATOM     24  C   UNL     1      34.598 -21.707 -18.853  0.00  0.00    +0.183 C 
BRANCH  24  25
ATOM     25  C   UNL     1      35.995 -21.160 -19.097  0.00  0.00    -0.029 C 
BRANCH  25  26
ATOM     26  N   UNL     1      36.060 -20.464 -20.381  0.00  0.00    +0.389 N 
ATOM     27  C   UNL     1      34.723 -20.008 -20.788  0.00  0.00    -0.077 C 
ATOM     28  C   UNL     1      37.005 -19.342 -20.311  0.00  0.00    -0.077 C 
ATOM     29  C   UNL     1      34.766 -19.320 -22.153  0.00  0.00    -0.023 C 
ATOM     30  C   UNL     1      37.122 -18.632 -21.661  0.00  0.00    -0.023 C 
ATOM     31  C   UNL     1      35.760 -18.165 -22.162  0.00  0.00    -0.004 C 
ATOM     32  H   UNL     1      36.398 -21.115 -21.090  0.00  0.00    -0.080 HD
ENDBRANCH  25  26
ENDBRANCH  24  25
ENDBRANCH  23  24
ENDBRANCH  17  23
ENDBRANCH   4  18
TORSDOF 6
ENDMDL
MODEL 6
REMARK VINA RESULT:     -11.3      3.092      6.139
REMARK  Name = 10430360
REMARK  6 active torsions:
REMARK  status: ('A' for Active; 'I' for Inactive)
REMARK    1  A    between atoms: C_4  and  C_18
REMARK    2  A    between atoms: C_7  and  C_14
REMARK    3  A    between atoms: C_17  and  O_23
REMARK    4  A    between atoms: O_23  and  C_24
REMARK    5  A    between atoms: C_24  and  C_25
REMARK    6  A    between atoms: C_25  and  N_26
REMARK                            x       y       z     vdW  Elec       q    Type
REMARK                         _______ _______ _______ _____ _____    ______ ____
ROOT
ATOM      1  N   UNL     1      32.296 -21.836 -19.177  0.00  0.00    -0.276 N 
ATOM      2  N   UNL     1      32.846 -21.034 -20.104  0.00  0.00    -0.173 NA
ATOM      3  C   UNL     1      34.386 -21.670 -18.535  0.00  0.00    +0.036 A 
ATOM      4  C   UNL     1      34.122 -20.932 -19.712  0.00  0.00    +0.102 A 
ATOM      5  C   UNL     1      33.167 -22.253 -18.207  0.00  0.00    +0.075 A 
ATOM      6  C   UNL     1      35.505 -21.909 -17.718  0.00  0.00    +0.006 C 
ATOM      7  C   UNL     1      35.350 -22.731 -16.596  0.00  0.00    +0.033 C 
ATOM      8  C   UNL     1      32.991 -23.075 -17.092  0.00  0.00    +0.019 C 
ATOM      9  C   UNL     1      34.114 -23.303 -16.289  0.00  0.00    +0.004 C 
ATOM     10  H   UNL     1      31.348 -22.100 -19.194  0.00  0.00    +0.189 HD
ENDROOT
BRANCH   7  14
ATOM     11  N   UNL     1      36.363 -23.409 -14.457  0.00  0.00    -0.218 N 
ATOM     12  N   UNL     1      37.753 -22.864 -16.052  0.00  0.00    -0.206 NA
ATOM     13  N   UNL     1      37.567 -23.572 -13.886  0.00  0.00    -0.157 NA
ATOM     14  C   UNL     1      36.486 -22.989 -15.742  0.00  0.00    +0.149 C 
ATOM     15  C   UNL     1      38.373 -23.230 -14.892  0.00  0.00    +0.218 C 
ATOM     16  H   UNL     1      35.505 -23.573 -14.003  0.00  0.00    +0.176 HD
ENDBRANCH   7  14
BRANCH   4  18
ATOM     17  C   UNL     1      35.587 -18.865 -22.438  0.00  0.00    +0.138 C 
ATOM     18  C   UNL     1      35.051 -20.141 -20.468  0.00  0.00    +0.022 C 
ATOM     19  C   UNL     1      34.682 -19.630 -21.713  0.00  0.00    +0.038 C 
ATOM     20  C   UNL     1      36.857 -18.603 -21.936  0.00  0.00    +0.037 C 
ATOM     21  C   UNL     1      36.323 -19.883 -19.958  0.00  0.00    +0.002 C 
ATOM     22  C   UNL     1      37.227 -19.114 -20.692  0.00  0.00    +0.003 C 
BRANCH  17  23
ATOM     23  O   UNL     1      35.224 -18.361 -23.660  0.00  0.00    -0.478 OA
BRANCH  23  24
ATOM     24  C   UNL     1      34.315 -17.268 -23.659  0.00  0.00    +0.183 C 
BRANCH  24  25
ATOM     25  C   UNL     1      35.086 -15.991 -23.949  0.00  0.00    -0.029 C 
BRANCH  25  26
ATOM     26  N   UNL     1      34.719 -14.940 -23.000  0.00  0.00    +0.389 N 
ATOM     27  C   UNL     1      33.458 -14.301 -23.401  0.00  0.00    -0.077 C 
ATOM     28  C   UNL     1      34.629 -15.486 -21.638  0.00  0.00    -0.077 C 
ATOM     29  C   UNL     1      33.086 -13.167 -22.445  0.00  0.00    -0.023 C 
ATOM     30  C   UNL     1      34.294 -14.390 -20.625  0.00  0.00    -0.023 C 
ATOM     31  C   UNL     1      33.012 -13.657 -21.004  0.00  0.00    -0.004 C 
ATOM     32  H   UNL     1      35.449 -14.226 -23.004  0.00  0.00    -0.080 HD
ENDBRANCH  25  26
ENDBRANCH  24  25
ENDBRANCH  23  24
ENDBRANCH  17  23
ENDBRANCH   4  18
TORSDOF 6
ENDMDL
MODEL 7
REMARK VINA RESULT:     -11.0      3.370      6.148
REMARK  Name = 10430360
REMARK  6 active torsions:
REMARK  status: ('A' for Active; 'I' for Inactive)
REMARK    1  A    between atoms: C_4  and  C_18
REMARK    2  A    between atoms: C_7  and  C_14
REMARK    3  A    between atoms: C_17  and  O_23
REMARK    4  A    between atoms: O_23  and  C_24
REMARK    5  A    between atoms: C_24  and  C_25
REMARK    6  A    between atoms: C_25  and  N_26
REMARK                            x       y       z     vdW  Elec       q    Type
REMARK                         _______ _______ _______ _____ _____    ______ ____
ROOT
ATOM      1  N   UNL     1      32.650 -25.046 -13.514  0.00  0.00    -0.276 N 
ATOM      2  N   UNL     1      33.664 -24.590 -14.268  0.00  0.00    -0.173 NA
ATOM      3  C   UNL     1      31.643 -23.886 -15.079  0.00  0.00    +0.036 A 
ATOM      4  C   UNL     1      33.050 -23.882 -15.224  0.00  0.00    +0.102 A 
ATOM      5  C   UNL     1      31.410 -24.660 -13.948  0.00  0.00    +0.075 A 
ATOM      6  C   UNL     1      30.552 -23.331 -15.769  0.00  0.00    +0.006 C 
ATOM      7  C   UNL     1      29.260 -23.578 -15.288  0.00  0.00    +0.033 C 
ATOM      8  C   UNL     1      30.131 -24.918 -13.452  0.00  0.00    +0.019 C 
ATOM      9  C   UNL     1      29.055 -24.359 -14.150  0.00  0.00    +0.004 C 
ATOM     10  H   UNL     1      32.787 -25.610 -12.719  0.00  0.00    +0.189 HD
ENDROOT
BRANCH   7  14
ATOM     11  N   UNL     1      27.082 -22.432 -15.340  0.00  0.00    -0.218 N 
ATOM     12  N   UNL     1      27.926 -22.986 -17.278  0.00  0.00    -0.206 NA
ATOM     13  N   UNL     1      26.161 -21.996 -16.213  0.00  0.00    -0.157 NA
ATOM     14  C   UNL     1      28.125 -23.018 -15.983  0.00  0.00    +0.149 C 
ATOM     15  C   UNL     1      26.718 -22.355 -17.370  0.00  0.00    +0.218 C 
ATOM     16  H   UNL     1      27.011 -22.339 -14.362  0.00  0.00    +0.176 HD
ENDBRANCH   7  14
BRANCH   4  18
ATOM     17  C   UNL     1      35.891 -22.267 -17.004  0.00  0.00    +0.138 C 
ATOM     18  C   UNL     1      33.817 -23.222 -16.242  0.00  0.00    +0.022 C 
ATOM     19  C   UNL     1      35.156 -22.906 -16.013  0.00  0.00    +0.038 C 
ATOM     20  C   UNL     1      35.305 -21.939 -18.222  0.00  0.00    +0.037 C 
ATOM     21  C   UNL     1      33.222 -22.896 -17.461  0.00  0.00    +0.002 C 
ATOM     22  C   UNL     1      33.966 -22.255 -18.451  0.00  0.00    +0.003 C 
BRANCH  17  23
ATOM     23  O   UNL     1      37.207 -21.958 -16.780  0.00  0.00    -0.478 OA
BRANCH  23  24
ATOM     24  C   UNL     1      37.925 -22.811 -15.897  0.00  0.00    +0.183 C 
BRANCH  24  25
ATOM     25  C   UNL     1      37.377 -22.628 -14.491  0.00  0.00    -0.029 C 
BRANCH  25  26
ATOM     26  N   UNL     1      37.797 -23.732 -13.627  0.00  0.00    +0.389 N 
ATOM     27  C   UNL     1      37.003 -23.748 -12.390  0.00  0.00    -0.077 C 
ATOM     28  C   UNL     1      37.693 -25.012 -14.341  0.00  0.00    -0.077 C 
ATOM     29  C   UNL     1      37.462 -24.867 -11.454  0.00  0.00    -0.023 C 
ATOM     30  C   UNL     1      38.175 -26.172 -13.469  0.00  0.00    -0.023 C 
ATOM     31  C   UNL     1      37.417 -26.224 -12.147  0.00  0.00    -0.004 C 
ATOM     32  H   UNL     1      38.775 -23.594 -13.371  0.00  0.00    -0.080 HD
ENDBRANCH  25  26
ENDBRANCH  24  25
ENDBRANCH  23  24
ENDBRANCH  17  23
ENDBRANCH   4  18
TORSDOF 6
ENDMDL
MODEL 8
REMARK VINA RESULT:     -11.0      3.601      7.726
REMARK  Name = 10430360
REMARK  6 active torsions:
REMARK  status: ('A' for Active; 'I' for Inactive)
REMARK    1  A    between atoms: C_4  and  C_18
REMARK    2  A    between atoms: C_7  and  C_14
REMARK    3  A    between atoms: C_17  and  O_23
REMARK    4  A    between atoms: O_23  and  C_24
REMARK    5  A    between atoms: C_24  and  C_25
REMARK    6  A    between atoms: C_25  and  N_26
REMARK                            x       y       z     vdW  Elec       q    Type
REMARK                         _______ _______ _______ _____ _____    ______ ____
ROOT
ATOM      1  N   UNL     1      37.956 -18.881 -21.025  0.00  0.00    -0.276 N 
ATOM      2  N   UNL     1      37.324 -18.357 -22.089  0.00  0.00    -0.173 NA
ATOM      3  C   UNL     1      35.920 -19.678 -20.856  0.00  0.00    +0.036 A 
ATOM      4  C   UNL     1      36.082 -18.844 -21.986  0.00  0.00    +0.102 A 
ATOM      5  C   UNL     1      37.169 -19.684 -20.245  0.00  0.00    +0.075 A 
ATOM      6  C   UNL     1      34.872 -20.422 -20.287  0.00  0.00    +0.006 C 
ATOM      7  C   UNL     1      35.126 -21.147 -19.116  0.00  0.00    +0.033 C 
ATOM      8  C   UNL     1      37.443 -20.400 -19.078  0.00  0.00    +0.019 C 
ATOM      9  C   UNL     1      36.390 -21.135 -18.523  0.00  0.00    +0.004 C 
ATOM     10  H   UNL     1      38.903 -18.703 -20.826  0.00  0.00    +0.189 HD
ENDROOT
BRANCH   7  14
ATOM     11  N   UNL     1      32.761 -21.537 -18.555  0.00  0.00    -0.218 N 
ATOM     12  N   UNL     1      34.177 -23.052 -17.866  0.00  0.00    -0.206 NA
ATOM     13  N   UNL     1      31.979 -22.426 -17.924  0.00  0.00    -0.157 NA
ATOM     14  C   UNL     1      34.064 -21.919 -18.515  0.00  0.00    +0.149 C 
ATOM     15  C   UNL     1      32.883 -23.322 -17.525  0.00  0.00    +0.218 C 
ATOM     16  H   UNL     1      32.433 -20.718 -18.990  0.00  0.00    +0.176 HD
ENDBRANCH   7  14
BRANCH   4  18
ATOM     17  C   UNL     1      33.912 -16.839 -24.250  0.00  0.00    +0.138 C 
ATOM     18  C   UNL     1      35.086 -18.500 -22.961  0.00  0.00    +0.022 C 
ATOM     19  C   UNL     1      34.878 -17.164 -23.305  0.00  0.00    +0.038 C 
ATOM     20  C   UNL     1      33.150 -17.832 -24.855  0.00  0.00    +0.037 C 
ATOM     21  C   UNL     1      34.325 -19.501 -23.564  0.00  0.00    +0.002 C 
ATOM     22  C   UNL     1      33.358 -19.168 -24.511  0.00  0.00    +0.003 C 
BRANCH  17  23
ATOM     23  O   UNL     1      33.708 -15.527 -24.589  0.00  0.00    -0.478 OA
BRANCH  23  24
ATOM     24  C   UNL     1      34.193 -14.547 -23.680  0.00  0.00    +0.183 C 
BRANCH  24  25
ATOM     25  C   UNL     1      33.355 -13.288 -23.828  0.00  0.00    -0.029 C 
BRANCH  25  26
ATOM     26  N   UNL     1      32.569 -13.047 -22.617  0.00  0.00    +0.389 N 
ATOM     27  C   UNL     1      33.201 -13.690 -21.457  0.00  0.00    -0.077 C 
ATOM     28  C   UNL     1      32.394 -11.605 -22.396  0.00  0.00    -0.077 C 
ATOM     29  C   UNL     1      32.366 -13.488 -20.192  0.00  0.00    -0.023 C 
ATOM     30  C   UNL     1      31.533 -11.336 -21.161  0.00  0.00    -0.023 C 
ATOM     31  C   UNL     1      32.113 -12.010 -19.923  0.00  0.00    -0.004 C 
ATOM     32  H   UNL     1      31.644 -13.460 -22.740  0.00  0.00    -0.080 HD
ENDBRANCH  25  26
ENDBRANCH  24  25
ENDBRANCH  23  24
ENDBRANCH  17  23
ENDBRANCH   4  18
TORSDOF 6
ENDMDL
MODEL 9
REMARK VINA RESULT:     -10.8      2.976      5.947
REMARK  Name = 10430360
REMARK  6 active torsions:
REMARK  status: ('A' for Active; 'I' for Inactive)
REMARK    1  A    between atoms: C_4  and  C_18
REMARK    2  A    between atoms: C_7  and  C_14
REMARK    3  A    between atoms: C_17  and  O_23
REMARK    4  A    between atoms: O_23  and  C_24
REMARK    5  A    between atoms: C_24  and  C_25
REMARK    6  A    between atoms: C_25  and  N_26
REMARK                            x       y       z     vdW  Elec       q    Type
REMARK                         _______ _______ _______ _____ _____    ______ ____
ROOT
ATOM      1  N   UNL     1      33.709 -23.644 -13.132  0.00  0.00    -0.276 N 
ATOM      2  N   UNL     1      33.356 -23.160 -14.335  0.00  0.00    -0.173 NA
ATOM      3  C   UNL     1      35.482 -24.006 -14.373  0.00  0.00    +0.036 A 
ATOM      4  C   UNL     1      34.437 -23.380 -15.092  0.00  0.00    +0.102 A 
ATOM      5  C   UNL     1      34.974 -24.166 -13.088  0.00  0.00    +0.075 A 
ATOM      6  C   UNL     1      36.784 -24.449 -14.658  0.00  0.00    +0.006 C 
ATOM      7  C   UNL     1      37.529 -25.041 -13.630  0.00  0.00    +0.033 C 
ATOM      8  C   UNL     1      35.700 -24.753 -12.050  0.00  0.00    +0.019 C 
ATOM      9  C   UNL     1      36.995 -25.189 -12.349  0.00  0.00    +0.004 C 
ATOM     10  H   UNL     1      33.110 -23.625 -12.352  0.00  0.00    +0.189 HD
ENDROOT
BRANCH   7  14
ATOM     11  N   UNL     1      39.625 -25.019 -14.921  0.00  0.00    -0.218 N 
ATOM     12  N   UNL     1      39.541 -26.417 -13.244  0.00  0.00    -0.206 NA
ATOM     13  N   UNL     1      40.828 -25.614 -14.955  0.00  0.00    -0.157 NA
ATOM     14  C   UNL     1      38.870 -25.503 -13.901  0.00  0.00    +0.149 C 
ATOM     15  C   UNL     1      40.726 -26.450 -13.921  0.00  0.00    +0.218 C 
ATOM     16  H   UNL     1      39.331 -24.323 -15.552  0.00  0.00    +0.176 HD
ENDBRANCH   7  14
BRANCH   4  18
ATOM     17  C   UNL     1      35.472 -21.817 -18.307  0.00  0.00    +0.138 C 
ATOM     18  C   UNL     1      34.445 -22.993 -16.474  0.00  0.00    +0.022 C 
ATOM     19  C   UNL     1      35.471 -22.187 -16.967  0.00  0.00    +0.038 C 
ATOM     20  C   UNL     1      34.460 -22.242 -19.161  0.00  0.00    +0.037 C 
ATOM     21  C   UNL     1      33.427 -23.423 -17.324  0.00  0.00    +0.002 C 
ATOM     22  C   UNL     1      33.434 -23.048 -18.668  0.00  0.00    +0.003 C 
BRANCH  17  23
ATOM     23  O   UNL     1      36.480 -21.026 -18.792  0.00  0.00    -0.478 OA
BRANCH  23  24
ATOM     24  C   UNL     1      36.410 -20.669 -20.167  0.00  0.00    +0.183 C 
BRANCH  24  25
ATOM     25  C   UNL     1      35.770 -19.295 -20.282  0.00  0.00    -0.029 C 
BRANCH  25  26
ATOM     26  N   UNL     1      35.656 -18.895 -21.684  0.00  0.00    +0.389 N 
ATOM     27  C   UNL     1      34.556 -19.617 -22.338  0.00  0.00    -0.077 C 
ATOM     28  C   UNL     1      35.474 -17.440 -21.791  0.00  0.00    -0.077 C 
ATOM     29  C   UNL     1      34.454 -19.246 -23.818  0.00  0.00    -0.023 C 
ATOM     30  C   UNL     1      35.403 -16.999 -23.253  0.00  0.00    -0.023 C 
ATOM     31  C   UNL     1      34.302 -17.741 -24.004  0.00  0.00    -0.004 C 
ATOM     32  H   UNL     1      36.522 -19.138 -22.166  0.00  0.00    -0.080 HD
ENDBRANCH  25  26
ENDBRANCH  24  25
ENDBRANCH  23  24
ENDBRANCH  17  23
ENDBRANCH   4  18
TORSDOF 6
ENDMDL
