MODEL 1
REMARK VINA RESULT:     -11.7      0.000      0.000
REMARK  Name = 9889200
REMARK  5 active torsions:
REMARK  status: ('A' for Active; 'I' for Inactive)
REMARK    1  A    between atoms: C_1  and  C_21
REMARK    2  A    between atoms: C_4  and  O_7
REMARK    3  A    between atoms: O_7  and  C_8
REMARK    4  A    between atoms: C_8  and  C_12
REMARK    5  A    between atoms: C_21  and  C_26
REMARK                            x       y       z     vdW  Elec       q    Type
REMARK                         _______ _______ _______ _____ _____    ______ ____
ROOT
ATOM      1  C   UNL     1      35.684 -20.025 -20.288  0.00  0.00    -0.021 C 
ATOM      2  C   UNL     1      34.345 -20.404 -20.196  0.00  0.00    -0.001 C 
ATOM      3  C   UNL     1      36.647 -20.669 -19.511  0.00  0.00    -0.001 C 
ATOM      4  C   UNL     1      34.934 -22.061 -18.556  0.00  0.00    +0.139 C 
ATOM      5  C   UNL     1      33.968 -21.428 -19.325  0.00  0.00    +0.037 C 
ATOM      6  C   UNL     1      36.270 -21.692 -18.641  0.00  0.00    +0.037 C 
ENDROOT
BRANCH   4   7
ATOM      7  O   UNL     1      34.563 -23.070 -17.699  0.00  0.00    -0.466 OA
BRANCH   7   8
ATOM      8  C   UNL     1      34.748 -22.845 -16.319  0.00  0.00    +0.279 C 
BRANCH   8  12
ATOM      9  O   UNL     1      32.846 -25.010 -12.440  0.00  0.00    -0.274 OA
ATOM     10  N   UNL     1      33.789 -23.964 -14.310  0.00  0.00    -0.232 N 
ATOM     11  N   UNL     1      32.395 -23.298 -16.118  0.00  0.00    -0.391 NA
ATOM     12  C   UNL     1      33.562 -23.392 -15.560  0.00  0.00    +0.210 C 
ATOM     13  C   UNL     1      31.398 -24.393 -14.167  0.00  0.00    +0.151 C 
ATOM     14  C   UNL     1      31.285 -23.800 -15.427  0.00  0.00    +0.123 C 
ATOM     15  C   UNL     1      32.736 -24.491 -13.547  0.00  0.00    +0.241 C 
ATOM     16  C   UNL     1      35.138 -24.031 -13.749  0.00  0.00    +0.122 C 
ATOM     17  C   UNL     1      30.268 -24.884 -13.504  0.00  0.00    -0.010 C 
ATOM     18  C   UNL     1      30.020 -23.705 -16.018  0.00  0.00    +0.028 C 
ATOM     19  C   UNL     1      29.015 -24.782 -14.105  0.00  0.00    -0.004 C 
ATOM     20  C   UNL     1      28.890 -24.193 -15.361  0.00  0.00    +0.002 C 
ENDBRANCH   8  12
ENDBRANCH   7   8
ENDBRANCH   4   7
BRANCH   1  21
ATOM     21  C   UNL     1      36.086 -18.931 -21.218  0.00  0.00    +0.047 C 
BRANCH  21  26
ATOM     22  S   UNL     1      34.728 -18.410 -23.565  0.00  0.00    -0.048 S 
ATOM     23  O   UNL     1      35.203 -16.157 -20.468  0.00  0.00    -0.274 OA
ATOM     24  O   UNL     1      34.694 -16.246 -25.058  0.00  0.00    -0.263 OA
ATOM     25  N   UNL     1      34.948 -15.995 -22.761  0.00  0.00    -0.246 N 
ATOM     26  C   UNL     1      34.883 -18.169 -21.769  0.00  0.00    +0.137 C 
ATOM     27  C   UNL     1      35.032 -16.677 -21.565  0.00  0.00    +0.239 C 
ATOM     28  C   UNL     1      34.785 -16.698 -23.926  0.00  0.00    +0.279 C 
ATOM     29  H   UNL     1      35.002 -15.013 -22.777  0.00  0.00    +0.158 HD
ENDBRANCH  21  26
ENDBRANCH   1  21
TORSDOF 5
ENDMDL
MODEL 2
REMARK VINA RESULT:     -11.6      1.214      3.229
REMARK  Name = 9889200
REMARK  5 active torsions:
REMARK  status: ('A' for Active; 'I' for Inactive)
REMARK    1  A    between atoms: C_1  and  C_21
REMARK    2  A    between atoms: C_4  and  O_7
REMARK    3  A    between atoms: O_7  and  C_8
REMARK    4  A    between atoms: C_8  and  C_12
REMARK    5  A    between atoms: C_21  and  C_26
REMARK                            x       y       z     vdW  Elec       q    Type
REMARK                         _______ _______ _______ _____ _____    ______ ____
ROOT
ATOM      1  C   UNL     1      35.388 -20.094 -20.263  0.00  0.00    -0.021 C 
ATOM      2  C   UNL     1      36.276 -20.905 -19.558  0.00  0.00    -0.001 C 
ATOM      3  C   UNL     1      34.021 -20.369 -20.239  0.00  0.00    -0.001 C 
ATOM      4  C   UNL     1      34.435 -22.260 -18.812  0.00  0.00    +0.139 C 
ATOM      5  C   UNL     1      35.797 -21.995 -18.829  0.00  0.00    +0.037 C 
ATOM      6  C   UNL     1      33.542 -21.457 -19.510  0.00  0.00    +0.037 C 
ENDROOT
BRANCH   4   7
ATOM      7  O   UNL     1      33.962 -23.332 -18.092  0.00  0.00    -0.466 OA
BRANCH   7   8
ATOM      8  C   UNL     1      33.007 -23.065 -17.089  0.00  0.00    +0.279 C 
BRANCH   8  12
ATOM      9  O   UNL     1      32.477 -23.800 -12.342  0.00  0.00    -0.274 OA
ATOM     10  N   UNL     1      32.712 -23.435 -14.643  0.00  0.00    -0.232 N 
ATOM     11  N   UNL     1      34.797 -23.871 -15.700  0.00  0.00    -0.391 NA
ATOM     12  C   UNL     1      33.559 -23.486 -15.748  0.00  0.00    +0.210 C 
ATOM     13  C   UNL     1      34.563 -24.255 -13.293  0.00  0.00    +0.151 C 
ATOM     14  C   UNL     1      35.325 -24.265 -14.464  0.00  0.00    +0.123 C 
ATOM     15  C   UNL     1      33.155 -23.812 -13.366  0.00  0.00    +0.241 C 
ATOM     16  C   UNL     1      31.326 -22.987 -14.780  0.00  0.00    +0.122 C 
ATOM     17  C   UNL     1      35.121 -24.655 -12.074  0.00  0.00    -0.010 C 
ATOM     18  C   UNL     1      36.658 -24.683 -14.400  0.00  0.00    +0.028 C 
ATOM     19  C   UNL     1      36.451 -25.069 -12.024  0.00  0.00    -0.004 C 
ATOM     20  C   UNL     1      37.219 -25.084 -13.187  0.00  0.00    +0.002 C 
ENDBRANCH   8  12
ENDBRANCH   7   8
ENDBRANCH   4   7
BRANCH   1  21
ATOM     21  C   UNL     1      35.900 -18.931 -21.044  0.00  0.00    +0.047 C 
BRANCH  21  26
ATOM     22  S   UNL     1      34.686 -18.439 -23.475  0.00  0.00    -0.048 S 
ATOM     23  O   UNL     1      35.158 -16.076 -20.460  0.00  0.00    -0.274 OA
ATOM     24  O   UNL     1      34.856 -16.348 -25.061  0.00  0.00    -0.263 OA
ATOM     25  N   UNL     1      35.019 -16.007 -22.767  0.00  0.00    -0.246 N 
ATOM     26  C   UNL     1      34.773 -18.124 -21.685  0.00  0.00    +0.137 C 
ATOM     27  C   UNL     1      35.006 -16.636 -21.540  0.00  0.00    +0.239 C 
ATOM     28  C   UNL     1      34.866 -16.752 -23.907  0.00  0.00    +0.279 C 
ATOM     29  H   UNL     1      35.135 -15.031 -22.823  0.00  0.00    +0.158 HD
ENDBRANCH  21  26
ENDBRANCH   1  21
TORSDOF 5
ENDMDL
MODEL 3
REMARK VINA RESULT:     -11.4      2.025      4.227
REMARK  Name = 9889200
REMARK  5 active torsions:
REMARK  status: ('A' for Active; 'I' for Inactive)
REMARK    1  A    between atoms: C_1  and  C_21
REMARK    2  A    between atoms: C_4  and  O_7
REMARK    3  A    between atoms: O_7  and  C_8
REMARK    4  A    between atoms: C_8  and  C_12
REMARK    5  A    between atoms: C_21  and  C_26
REMARK                            x       y       z     vdW  Elec       q    Type
REMARK                         _______ _______ _______ _____ _____    ______ ____
ROOT
ATOM      1  C   UNL     1      34.158 -20.479 -20.372  0.00  0.00    -0.021 C 
ATOM      2  C   UNL     1      35.516 -20.660 -20.112  0.00  0.00    -0.001 C 
ATOM      3  C   UNL     1      33.204 -21.095 -19.563  0.00  0.00    -0.001 C 
ATOM      4  C   UNL     1      34.963 -22.068 -18.243  0.00  0.00    +0.139 C 
ATOM      5  C   UNL     1      35.921 -21.459 -19.042  0.00  0.00    +0.037 C 
ATOM      6  C   UNL     1      33.608 -21.894 -18.493  0.00  0.00    +0.037 C 
ENDROOT
BRANCH   4   7
ATOM      7  O   UNL     1      35.362 -22.854 -17.188  0.00  0.00    -0.466 OA
BRANCH   7   8
ATOM      8  C   UNL     1      34.373 -23.233 -16.256  0.00  0.00    +0.279 C 
BRANCH   8  12
ATOM      9  O   UNL     1      34.252 -24.659 -11.641  0.00  0.00    -0.274 OA
ATOM     10  N   UNL     1      34.289 -23.960 -13.874  0.00  0.00    -0.232 N 
ATOM     11  N   UNL     1      36.268 -24.233 -15.164  0.00  0.00    -0.391 NA
ATOM     12  C   UNL     1      35.035 -23.846 -15.045  0.00  0.00    +0.210 C 
ATOM     13  C   UNL     1      36.242 -24.966 -12.828  0.00  0.00    +0.151 C 
ATOM     14  C   UNL     1      36.898 -24.803 -14.051  0.00  0.00    +0.123 C 
ATOM     15  C   UNL     1      34.838 -24.520 -12.711  0.00  0.00    +0.241 C 
ATOM     16  C   UNL     1      32.902 -23.498 -13.822  0.00  0.00    +0.122 C 
ATOM     17  C   UNL     1      36.899 -25.541 -11.735  0.00  0.00    -0.010 C 
ATOM     18  C   UNL     1      38.227 -25.225 -14.166  0.00  0.00    +0.028 C 
ATOM     19  C   UNL     1      38.224 -25.956 -11.865  0.00  0.00    -0.004 C 
ATOM     20  C   UNL     1      38.887 -25.798 -13.080  0.00  0.00    +0.002 C 
ENDBRANCH   8  12
ENDBRANCH   7   8
ENDBRANCH   4   7
BRANCH   1  21
ATOM     21  C   UNL     1      33.725 -19.626 -21.516  0.00  0.00    +0.047 C 
BRANCH  21  26
ATOM     22  S   UNL     1      35.298 -17.358 -21.446  0.00  0.00    -0.048 S 
ATOM     23  O   UNL     1      34.236 -19.498 -24.477  0.00  0.00    -0.274 OA
ATOM     24  O   UNL     1      35.300 -15.247 -23.014  0.00  0.00    -0.263 OA
ATOM     25  N   UNL     1      34.749 -17.307 -23.940  0.00  0.00    -0.246 N 
ATOM     26  C   UNL     1      34.906 -18.957 -22.218  0.00  0.00    +0.137 C 
ATOM     27  C   UNL     1      34.587 -18.649 -23.664  0.00  0.00    +0.239 C 
ATOM     28  C   UNL     1      35.119 -16.454 -22.934  0.00  0.00    +0.279 C 
ATOM     29  H   UNL     1      34.600 -16.967 -24.852  0.00  0.00    +0.158 HD
ENDBRANCH  21  26
ENDBRANCH   1  21
TORSDOF 5
ENDMDL
MODEL 4
REMARK VINA RESULT:     -11.0      2.708     10.190
REMARK  Name = 9889200
REMARK  5 active torsions:
REMARK  status: ('A' for Active; 'I' for Inactive)
REMARK    1  A    between atoms: C_1  and  C_21
REMARK    2  A    between atoms: C_4  and  O_7
REMARK    3  A    between atoms: O_7  and  C_8
REMARK    4  A    between atoms: C_8  and  C_12
REMARK    5  A    between atoms: C_21  and  C_26
REMARK                            x       y       z     vdW  Elec       q    Type
REMARK                         _______ _______ _______ _____ _____    ______ ____
ROOT
ATOM      1  C   UNL     1      33.993 -22.376 -18.329  0.00  0.00    -0.021 C 
ATOM      2  C   UNL     1      33.184 -21.539 -19.096  0.00  0.00    -0.001 C 
ATOM      3  C   UNL     1      35.379 -22.224 -18.355  0.00  0.00    -0.001 C 
ATOM      4  C   UNL     1      35.142 -20.404 -19.910  0.00  0.00    +0.139 C 
ATOM      5  C   UNL     1      33.762 -20.548 -19.891  0.00  0.00    +0.037 C 
ATOM      6  C   UNL     1      35.957 -21.233 -19.149  0.00  0.00    +0.037 C 
ENDROOT
BRANCH   4   7
ATOM      7  O   UNL     1      35.711 -19.427 -20.692  0.00  0.00    -0.466 OA
BRANCH   7   8
ATOM      8  C   UNL     1      35.377 -19.422 -22.063  0.00  0.00    +0.279 C 
BRANCH   8  12
ATOM      9  O   UNL     1      33.833 -16.277 -25.391  0.00  0.00    -0.274 OA
ATOM     10  N   UNL     1      34.581 -17.818 -23.795  0.00  0.00    -0.232 N 
ATOM     11  N   UNL     1      35.031 -17.093 -21.575  0.00  0.00    -0.391 NA
ATOM     12  C   UNL     1      34.979 -18.025 -22.476  0.00  0.00    +0.210 C 
ATOM     13  C   UNL     1      34.250 -15.472 -23.236  0.00  0.00    +0.151 C 
ATOM     14  C   UNL     1      34.665 -15.792 -21.941  0.00  0.00    +0.123 C 
ATOM     15  C   UNL     1      34.197 -16.547 -24.250  0.00  0.00    +0.241 C 
ATOM     16  C   UNL     1      34.550 -18.924 -24.751  0.00  0.00    +0.122 C 
ATOM     17  C   UNL     1      33.891 -14.162 -23.570  0.00  0.00    -0.010 C 
ATOM     18  C   UNL     1      34.717 -14.778 -20.979  0.00  0.00    +0.028 C 
ATOM     19  C   UNL     1      33.947 -13.162 -22.600  0.00  0.00    -0.004 C 
ATOM     20  C   UNL     1      34.360 -13.469 -21.305  0.00  0.00    +0.002 C 
ENDBRANCH   8  12
ENDBRANCH   7   8
ENDBRANCH   4   7
BRANCH   1  21
ATOM     21  C   UNL     1      33.376 -23.436 -17.481  0.00  0.00    +0.047 C 
BRANCH  21  26
ATOM     22  S   UNL     1      33.738 -23.770 -14.764  0.00  0.00    -0.048 S 
ATOM     23  O   UNL     1      30.569 -22.705 -16.691  0.00  0.00    -0.274 OA
ATOM     24  O   UNL     1      32.191 -24.922 -12.977  0.00  0.00    -0.263 OA
ATOM     25  N   UNL     1      31.185 -23.842 -14.773  0.00  0.00    -0.246 N 
ATOM     26  C   UNL     1      32.912 -22.898 -16.129  0.00  0.00    +0.137 C 
ATOM     27  C   UNL     1      31.430 -23.121 -15.924  0.00  0.00    +0.239 C 
ATOM     28  C   UNL     1      32.240 -24.276 -14.014  0.00  0.00    +0.279 C 
ATOM     29  H   UNL     1      30.260 -24.040 -14.500  0.00  0.00    +0.158 HD
ENDBRANCH  21  26
ENDBRANCH   1  21
TORSDOF 5
ENDMDL
MODEL 5
REMARK VINA RESULT:     -10.9      4.159     11.184
REMARK  Name = 9889200
REMARK  5 active torsions:
REMARK  status: ('A' for Active; 'I' for Inactive)
REMARK    1  A    between atoms: C_1  and  C_21
REMARK    2  A    between atoms: C_4  and  O_7
REMARK    3  A    between atoms: O_7  and  C_8
REMARK    4  A    between atoms: C_8  and  C_12
REMARK    5  A    between atoms: C_21  and  C_26
REMARK                            x       y       z     vdW  Elec       q    Type
REMARK                         _______ _______ _______ _____ _____    ______ ____
ROOT
ATOM      1  C   UNL     1      35.048 -19.037 -21.851  0.00  0.00    -0.021 C 
ATOM      2  C   UNL     1      34.690 -18.825 -23.182  0.00  0.00    -0.001 C 
ATOM      3  C   UNL     1      35.383 -17.955 -21.038  0.00  0.00    -0.001 C 
ATOM      4  C   UNL     1      35.003 -16.460 -22.883  0.00  0.00    +0.139 C 
ATOM      5  C   UNL     1      34.668 -17.530 -23.701  0.00  0.00    +0.037 C 
ATOM      6  C   UNL     1      35.360 -16.660 -21.556  0.00  0.00    +0.037 C 
ENDROOT
BRANCH   4   7
ATOM      7  O   UNL     1      34.980 -15.184 -23.394  0.00  0.00    -0.466 OA
BRANCH   7   8
ATOM      8  C   UNL     1      33.797 -14.770 -24.042  0.00  0.00    +0.279 C 
BRANCH   8  12
ATOM      9  O   UNL     1      33.024 -10.017 -24.445  0.00  0.00    -0.274 OA
ATOM     10  N   UNL     1      33.407 -12.320 -24.272  0.00  0.00    -0.232 N 
ATOM     11  N   UNL     1      32.917 -13.449 -22.237  0.00  0.00    -0.391 NA
ATOM     12  C   UNL     1      33.343 -13.452 -23.462  0.00  0.00    +0.210 C 
ATOM     13  C   UNL     1      32.513 -11.039 -22.406  0.00  0.00    +0.151 C 
ATOM     14  C   UNL     1      32.492 -12.235 -21.683  0.00  0.00    +0.123 C 
ATOM     15  C   UNL     1      33.001 -11.062 -23.801  0.00  0.00    +0.241 C 
ATOM     16  C   UNL     1      33.901 -12.408 -25.646  0.00  0.00    +0.122 C 
ATOM     17  C   UNL     1      32.081  -9.843 -21.823  0.00  0.00    -0.010 C 
ATOM     18  C   UNL     1      32.031 -12.218 -20.362  0.00  0.00    +0.028 C 
ATOM     19  C   UNL     1      31.623  -9.841 -20.506  0.00  0.00    -0.004 C 
ATOM     20  C   UNL     1      31.598 -11.028 -19.776  0.00  0.00    +0.002 C 
ENDBRANCH   8  12
ENDBRANCH   7   8
ENDBRANCH   4   7
BRANCH   1  21
ATOM     21  C   UNL     1      35.073 -20.421 -21.297  0.00  0.00    +0.047 C 
BRANCH  21  26
ATOM     22  S   UNL     1      35.329 -21.718 -18.873  0.00  0.00    -0.048 S 
ATOM     23  O   UNL     1      32.148 -20.383 -20.604  0.00  0.00    -0.274 OA
ATOM     24  O   UNL     1      33.874 -23.637 -17.817  0.00  0.00    -0.263 OA
ATOM     25  N   UNL     1      32.819 -22.082 -19.186  0.00  0.00    -0.246 N 
ATOM     26  C   UNL     1      34.458 -20.496 -19.901  0.00  0.00    +0.137 C 
ATOM     27  C   UNL     1      33.018 -20.955 -19.955  0.00  0.00    +0.239 C 
ATOM     28  C   UNL     1      33.884 -22.645 -18.531  0.00  0.00    +0.279 C 
ATOM     29  H   UNL     1      31.921 -22.478 -19.107  0.00  0.00    +0.158 HD
ENDBRANCH  21  26
ENDBRANCH   1  21
TORSDOF 5
ENDMDL
MODEL 6
REMARK VINA RESULT:     -10.9      2.109      3.380
REMARK  Name = 9889200
REMARK  5 active torsions:
REMARK  status: ('A' for Active; 'I' for Inactive)
REMARK    1  A    between atoms: C_1  and  C_21
REMARK    2  A    between atoms: C_4  and  O_7
REMARK    3  A    between atoms: O_7  and  C_8
REMARK    4  A    between atoms: C_8  and  C_12
REMARK    5  A    between atoms: C_21  and  C_26
REMARK                            x       y       z     vdW  Elec       q    Type
REMARK                         _______ _______ _______ _____ _____    ______ ____
ROOT
ATOM      1  C   UNL     1      35.165 -18.545 -22.374  0.00  0.00    -0.021 C 
ATOM      2  C   UNL     1      36.465 -18.351 -21.908  0.00  0.00    -0.001 C 
ATOM      3  C   UNL     1      34.302 -19.405 -21.696  0.00  0.00    -0.001 C 
ATOM      4  C   UNL     1      36.036 -19.873 -20.096  0.00  0.00    +0.139 C 
ATOM      5  C   UNL     1      36.903 -19.019 -20.763  0.00  0.00    +0.037 C 
ATOM      6  C   UNL     1      34.739 -20.072 -20.551  0.00  0.00    +0.037 C 
ENDROOT
BRANCH   4   7
ATOM      7  O   UNL     1      36.466 -20.529 -18.968  0.00  0.00    -0.466 OA
BRANCH   7   8
ATOM      8  C   UNL     1      36.327 -21.933 -18.945  0.00  0.00    +0.279 C 
BRANCH   8  12
ATOM      9  O   UNL     1      36.161 -22.926 -14.219  0.00  0.00    -0.274 OA
ATOM     10  N   UNL     1      36.265 -22.441 -16.507  0.00  0.00    -0.232 N 
ATOM     11  N   UNL     1      34.295 -22.576 -17.833  0.00  0.00    -0.391 NA
ATOM     12  C   UNL     1      35.565 -22.341 -17.707  0.00  0.00    +0.210 C 
ATOM     13  C   UNL     1      34.174 -23.087 -15.441  0.00  0.00    +0.151 C 
ATOM     14  C   UNL     1      33.572 -22.956 -16.695  0.00  0.00    +0.123 C 
ATOM     15  C   UNL     1      35.622 -22.814 -15.316  0.00  0.00    +0.241 C 
ATOM     16  C   UNL     1      37.698 -22.159 -16.449  0.00  0.00    +0.122 C 
ATOM     17  C   UNL     1      33.424 -23.468 -14.323  0.00  0.00    -0.010 C 
ATOM     18  C   UNL     1      32.203 -23.213 -16.817  0.00  0.00    +0.028 C 
ATOM     19  C   UNL     1      32.060 -23.720 -14.460  0.00  0.00    -0.004 C 
ATOM     20  C   UNL     1      31.449 -23.593 -15.706  0.00  0.00    +0.002 C 
ENDBRANCH   8  12
ENDBRANCH   7   8
ENDBRANCH   4   7
BRANCH   1  21
ATOM     21  C   UNL     1      34.698 -17.832 -23.597  0.00  0.00    +0.047 C 
BRANCH  21  26
ATOM     22  S   UNL     1      34.846 -15.687 -21.866  0.00  0.00    -0.048 S 
ATOM     23  O   UNL     1      33.873 -15.747 -25.600  0.00  0.00    -0.274 OA
ATOM     24  O   UNL     1      33.202 -13.661 -21.534  0.00  0.00    -0.263 OA
ATOM     25  N   UNL     1      33.414 -14.569 -23.663  0.00  0.00    -0.246 N 
ATOM     26  C   UNL     1      35.017 -16.340 -23.555  0.00  0.00    +0.137 C 
ATOM     27  C   UNL     1      34.052 -15.543 -24.404  0.00  0.00    +0.239 C 
ATOM     28  C   UNL     1      33.681 -14.462 -22.323  0.00  0.00    +0.279 C 
ATOM     29  H   UNL     1      32.775 -13.957 -24.094  0.00  0.00    +0.158 HD
ENDBRANCH  21  26
ENDBRANCH   1  21
TORSDOF 5
ENDMDL
MODEL 7
REMARK VINA RESULT:     -10.5      7.536     11.743
REMARK  Name = 9889200
REMARK  5 active torsions:
REMARK  status: ('A' for Active; 'I' for Inactive)
REMARK    1  A    between atoms: C_1  and  C_21
REMARK    2  A    between atoms: C_4  and  O_7
REMARK    3  A    between atoms: O_7  and  C_8
REMARK    4  A    between atoms: C_8  and  C_12
REMARK    5  A    between atoms: C_21  and  C_26
REMARK                            x       y       z     vdW  Elec       q    Type
REMARK                         _______ _______ _______ _____ _____    ______ ____
ROOT
ATOM      1  C   UNL     1      31.661  -9.225 -22.767  0.00  0.00    -0.021 C 
ATOM      2  C   UNL     1      31.062 -10.012 -21.784  0.00  0.00    -0.001 C 
ATOM      3  C   UNL     1      32.713  -9.737 -23.526  0.00  0.00    -0.001 C 
ATOM      4  C   UNL     1      32.565 -11.811 -22.319  0.00  0.00    +0.139 C 
ATOM      5  C   UNL     1      31.517 -11.312 -21.558  0.00  0.00    +0.037 C 
ATOM      6  C   UNL     1      33.168 -11.036 -23.301  0.00  0.00    +0.037 C 
ENDROOT
BRANCH   4   7
ATOM      7  O   UNL     1      33.012 -13.092 -22.098  0.00  0.00    -0.466 OA
BRANCH   7   8
ATOM      8  C   UNL     1      34.335 -13.391 -22.488  0.00  0.00    +0.279 C 
BRANCH   8  12
ATOM      9  O   UNL     1      33.869 -17.317 -25.266  0.00  0.00    -0.274 OA
ATOM     10  N   UNL     1      34.085 -15.402 -23.937  0.00  0.00    -0.232 N 
ATOM     11  N   UNL     1      34.937 -15.590 -21.725  0.00  0.00    -0.391 NA
ATOM     12  C   UNL     1      34.470 -14.879 -22.704  0.00  0.00    +0.210 C 
ATOM     13  C   UNL     1      34.714 -17.600 -23.105  0.00  0.00    +0.151 C 
ATOM     14  C   UNL     1      35.069 -16.972 -21.908  0.00  0.00    +0.123 C 
ATOM     15  C   UNL     1      34.183 -16.775 -24.210  0.00  0.00    +0.241 C 
ATOM     16  C   UNL     1      33.566 -14.531 -24.992  0.00  0.00    +0.122 C 
ATOM     17  C   UNL     1      34.858 -18.983 -23.256  0.00  0.00    -0.010 C 
ATOM     18  C   UNL     1      35.572 -17.750 -20.860  0.00  0.00    +0.028 C 
ATOM     19  C   UNL     1      35.361 -19.746 -22.203  0.00  0.00    -0.004 C 
ATOM     20  C   UNL     1      35.718 -19.129 -21.006  0.00  0.00    +0.002 C 
ENDBRANCH   8  12
ENDBRANCH   7   8
ENDBRANCH   4   7
BRANCH   1  21
ATOM     21  C   UNL     1      31.175  -7.836 -23.007  0.00  0.00    +0.047 C 
BRANCH  21  26
ATOM     22  S   UNL     1      33.116  -7.515 -21.069  0.00  0.00    -0.048 S 
ATOM     23  O   UNL     1      30.475  -4.994 -22.319  0.00  0.00    -0.274 OA
ATOM     24  O   UNL     1      32.970  -6.397 -18.694  0.00  0.00    -0.263 OA
ATOM     25  N   UNL     1      31.643  -5.540 -20.398  0.00  0.00    -0.246 N 
ATOM     26  C   UNL     1      32.095  -6.787 -22.386  0.00  0.00    +0.137 C 
ATOM     27  C   UNL     1      31.305  -5.678 -21.728  0.00  0.00    +0.239 C 
ATOM     28  C   UNL     1      32.567  -6.388 -19.848  0.00  0.00    +0.279 C 
ATOM     29  H   UNL     1      31.224  -4.837 -19.850  0.00  0.00    +0.158 HD
ENDBRANCH  21  26
ENDBRANCH   1  21
TORSDOF 5
ENDMDL
MODEL 8
REMARK VINA RESULT:     -10.5      4.594     11.937
REMARK  Name = 9889200
REMARK  5 active torsions:
REMARK  status: ('A' for Active; 'I' for Inactive)
REMARK    1  A    between atoms: C_1  and  C_21
REMARK    2  A    between atoms: C_4  and  O_7
REMARK    3  A    between atoms: O_7  and  C_8
REMARK    4  A    between atoms: C_8  and  C_12
REMARK    5  A    between atoms: C_21  and  C_26
REMARK                            x       y       z     vdW  Elec       q    Type
REMARK                         _______ _______ _______ _____ _____    ______ ____
ROOT
ATOM      1  C   UNL     1      35.032 -18.756 -21.779  0.00  0.00    -0.021 C 
ATOM      2  C   UNL     1      35.333 -17.729 -20.886  0.00  0.00    -0.001 C 
ATOM      3  C   UNL     1      34.675 -18.456 -23.094  0.00  0.00    -0.001 C 
ATOM      4  C   UNL     1      34.918 -16.112 -22.617  0.00  0.00    +0.139 C 
ATOM      5  C   UNL     1      35.275 -16.399 -21.307  0.00  0.00    +0.037 C 
ATOM      6  C   UNL     1      34.618 -17.128 -23.515  0.00  0.00    +0.037 C 
ENDROOT
BRANCH   4   7
ATOM      7  O   UNL     1      34.863 -14.803 -23.032  0.00  0.00    -0.466 OA
BRANCH   7   8
ATOM      8  C   UNL     1      33.630 -14.335 -23.532  0.00  0.00    +0.279 C 
BRANCH   8  12
ATOM      9  O   UNL     1      31.931 -10.363 -21.368  0.00  0.00    -0.274 OA
ATOM     10  N   UNL     1      32.740 -12.301 -22.403  0.00  0.00    -0.232 N 
ATOM     11  N   UNL     1      34.291 -12.122 -24.197  0.00  0.00    -0.391 NA
ATOM     12  C   UNL     1      33.568 -12.834 -23.389  0.00  0.00    +0.210 C 
ATOM     13  C   UNL     1      33.451 -10.087 -23.123  0.00  0.00    +0.151 C 
ATOM     14  C   UNL     1      34.245 -10.727 -24.078  0.00  0.00    +0.123 C 
ATOM     15  C   UNL     1      32.633 -10.915 -22.211  0.00  0.00    +0.241 C 
ATOM     16  C   UNL     1      31.954 -13.173 -21.531  0.00  0.00    +0.122 C 
ATOM     17  C   UNL     1      33.428  -8.692 -23.030  0.00  0.00    -0.010 C 
ATOM     18  C   UNL     1      35.021  -9.948 -24.943  0.00  0.00    +0.028 C 
ATOM     19  C   UNL     1      34.206  -7.928 -23.899  0.00  0.00    -0.004 C 
ATOM     20  C   UNL     1      35.002  -8.555 -24.855  0.00  0.00    +0.002 C 
ENDBRANCH   8  12
ENDBRANCH   7   8
ENDBRANCH   4   7
BRANCH   1  21
ATOM     21  C   UNL     1      35.092 -20.177 -21.329  0.00  0.00    +0.047 C 
BRANCH  21  26
ATOM     22  S   UNL     1      35.316 -21.661 -19.012  0.00  0.00    -0.048 S 
ATOM     23  O   UNL     1      32.151 -20.253 -20.712  0.00  0.00    -0.274 OA
ATOM     24  O   UNL     1      33.878 -23.688 -18.153  0.00  0.00    -0.263 OA
ATOM     25  N   UNL     1      32.824 -22.048 -19.419  0.00  0.00    -0.246 N 
ATOM     26  C   UNL     1      34.445 -20.377 -19.961  0.00  0.00    +0.137 C 
ATOM     27  C   UNL     1      33.016 -20.858 -20.089  0.00  0.00    +0.239 C 
ATOM     28  C   UNL     1      33.883 -22.641 -18.784  0.00  0.00    +0.279 C 
ATOM     29  H   UNL     1      31.933 -22.466 -19.396  0.00  0.00    +0.158 HD
ENDBRANCH  21  26
ENDBRANCH   1  21
TORSDOF 5
ENDMDL
MODEL 9
REMARK VINA RESULT:     -10.4      3.293     10.240
REMARK  Name = 9889200
REMARK  5 active torsions:
REMARK  status: ('A' for Active; 'I' for Inactive)
REMARK    1  A    between atoms: C_1  and  C_21
REMARK    2  A    between atoms: C_4  and  O_7
REMARK    3  A    between atoms: O_7  and  C_8
REMARK    4  A    between atoms: C_8  and  C_12
REMARK    5  A    between atoms: C_21  and  C_26
REMARK                            x       y       z     vdW  Elec       q    Type
REMARK                         _______ _______ _______ _____ _____    ______ ____
ROOT
ATOM      1  C   UNL     1      34.567 -22.430 -17.779  0.00  0.00    -0.021 C 
ATOM      2  C   UNL     1      35.773 -21.977 -18.311  0.00  0.00    -0.001 C 
ATOM      3  C   UNL     1      33.358 -22.015 -18.337  0.00  0.00    -0.001 C 
ATOM      4  C   UNL     1      34.563 -20.699 -19.949  0.00  0.00    +0.139 C 
ATOM      5  C   UNL     1      35.771 -21.106 -19.402  0.00  0.00    +0.037 C 
ATOM      6  C   UNL     1      33.356 -21.146 -19.428  0.00  0.00    +0.037 C 
ENDROOT
BRANCH   4   7
ATOM      7  O   UNL     1      34.561 -19.843 -21.025  0.00  0.00    -0.466 OA
BRANCH   7   8
ATOM      8  C   UNL     1      35.573 -18.861 -21.070  0.00  0.00    +0.279 C 
BRANCH   8  12
ATOM      9  O   UNL     1      33.959 -16.984 -25.220  0.00  0.00    -0.274 OA
ATOM     10  N   UNL     1      34.743 -17.914 -23.220  0.00  0.00    -0.232 N 
ATOM     11  N   UNL     1      35.042 -16.529 -21.310  0.00  0.00    -0.391 NA
ATOM     12  C   UNL     1      35.096 -17.687 -21.891  0.00  0.00    +0.210 C 
ATOM     13  C   UNL     1      34.223 -15.544 -23.397  0.00  0.00    +0.151 C 
ATOM     14  C   UNL     1      34.602 -15.429 -22.058  0.00  0.00    +0.123 C 
ATOM     15  C   UNL     1      34.290 -16.872 -24.043  0.00  0.00    +0.241 C 
ATOM     16  C   UNL     1      34.833 -19.253 -23.801  0.00  0.00    +0.122 C 
ATOM     17  C   UNL     1      33.787 -14.425 -24.116  0.00  0.00    -0.010 C 
ATOM     18  C   UNL     1      34.539 -14.174 -21.443  0.00  0.00    +0.028 C 
ATOM     19  C   UNL     1      33.729 -13.181 -23.490  0.00  0.00    -0.004 C 
ATOM     20  C   UNL     1      34.105 -13.055 -22.154  0.00  0.00    +0.002 C 
ENDBRANCH   8  12
ENDBRANCH   7   8
ENDBRANCH   4   7
BRANCH   1  21
ATOM     21  C   UNL     1      34.569 -23.359 -16.612  0.00  0.00    +0.047 C 
BRANCH  21  26
ATOM     22  S   UNL     1      36.972 -22.768 -15.386  0.00  0.00    -0.048 S 
ATOM     23  O   UNL     1      33.569 -23.647 -13.792  0.00  0.00    -0.274 OA
ATOM     24  O   UNL     1      38.158 -23.918 -13.340  0.00  0.00    -0.263 OA
ATOM     25  N   UNL     1      35.834 -23.870 -13.382  0.00  0.00    -0.246 N 
ATOM     26  C   UNL     1      35.154 -22.712 -15.359  0.00  0.00    +0.137 C 
ATOM     27  C   UNL     1      34.738 -23.453 -14.108  0.00  0.00    +0.239 C 
ATOM     28  C   UNL     1      37.093 -23.616 -13.859  0.00  0.00    +0.279 C 
ATOM     29  H   UNL     1      35.712 -24.345 -12.528  0.00  0.00    +0.158 HD
ENDBRANCH  21  26
ENDBRANCH   1  21
TORSDOF 5
ENDMDL
