MODEL 1
REMARK VINA RESULT:     -11.3      0.000      0.000
REMARK  Name = 11691242
REMARK  5 active torsions:
REMARK  status: ('A' for Active; 'I' for Inactive)
REMARK    1  A    between atoms: N_1  and  C_25
REMARK    2  A    between atoms: C_5  and  N_11
REMARK    3  A    between atoms: N_12  and  C_17
REMARK    4  A    between atoms: C_18  and  O_23
REMARK    5  A    between atoms: C_25  and  C_28
REMARK                            x       y       z     vdW  Elec       q    Type
REMARK                         _______ _______ _______ _____ _____    ______ ____
ROOT
ATOM      1  N   UNL     1      35.087 -16.395 -22.380  0.00  0.00    -0.282 N 
ATOM      2  C   UNL     1      34.442 -15.535 -23.239  0.00  0.00    +0.053 C 
ATOM      3  C   UNL     1      33.931 -14.489 -22.467  0.00  0.00    +0.028 C 
ATOM      4  C   UNL     1      35.002 -15.931 -21.095  0.00  0.00    +0.066 C 
ATOM      5  C   UNL     1      33.216 -13.459 -23.109  0.00  0.00    +0.053 C 
ATOM      6  C   UNL     1      34.292 -14.753 -21.116  0.00  0.00    +0.019 C 
ATOM      7  C   UNL     1      34.273 -15.601 -24.627  0.00  0.00    +0.015 C 
ATOM      8  C   UNL     1      33.039 -13.512 -24.496  0.00  0.00    +0.015 C 
ATOM      9  C   UNL     1      33.561 -14.567 -25.242  0.00  0.00    +0.003 C 
ENDROOT
BRANCH   5  11
ATOM     10  O   UNL     1      33.606 -10.517 -23.447  0.00  0.00    -0.252 OA
ATOM     11  N   UNL     1      32.684 -12.391 -22.385  0.00  0.00    -0.268 N 
ATOM     12  N   UNL     1      32.165 -10.274 -21.622  0.00  0.00    -0.266 N 
ATOM     13  C   UNL     1      32.892 -11.003 -22.575  0.00  0.00    +0.308 C 
ATOM     14  H   UNL     1      32.084 -12.634 -21.643  0.00  0.00    +0.156 HD
ATOM     15  H   UNL     1      31.635 -10.805 -20.984  0.00  0.00    +0.157 HD
BRANCH  12  17
ATOM     16 BR   UNL     1      31.382  -5.617 -23.939  0.00  0.00    -0.049 Br
ATOM     17  C   UNL     1      32.098  -8.869 -21.465  0.00  0.00    +0.086 C 
ATOM     18  C   UNL     1      32.308  -8.300 -20.219  0.00  0.00    +0.152 C 
ATOM     19  C   UNL     1      31.820  -8.088 -22.576  0.00  0.00    +0.024 C 
ATOM     20  C   UNL     1      32.238  -6.915 -20.080  0.00  0.00    +0.039 C 
ATOM     21  C   UNL     1      31.752  -6.701 -22.436  0.00  0.00    +0.036 C 
ATOM     22  C   UNL     1      31.960  -6.115 -21.188  0.00  0.00    +0.010 C 
BRANCH  18  23
ATOM     23  O   UNL     1      32.582  -9.065 -19.124  0.00  0.00    -0.470 OA
ATOM     24  C   UNL     1      31.565  -9.968 -18.693  0.00  0.00    +0.253 C 
ENDBRANCH  18  23
ENDBRANCH  12  17
ENDBRANCH   5  11
BRANCH   1  25
ATOM     25  C   UNL     1      35.759 -17.619 -22.762  0.00  0.00    +0.122 C 
BRANCH  25  28
ATOM     26  N   UNL     1      35.744 -20.479 -19.571  0.00  0.00    -0.230 NA
ATOM     27  N   UNL     1      33.421 -20.859 -19.941  0.00  0.00    -0.343 N 
ATOM     28  C   UNL     1      35.753 -18.622 -21.641  0.00  0.00    +0.002 C 
ATOM     29  C   UNL     1      34.578 -19.275 -21.313  0.00  0.00    +0.031 C 
ATOM     30  C   UNL     1      36.923 -18.883 -20.951  0.00  0.00    +0.018 C 
ATOM     31  C   UNL     1      34.626 -20.191 -20.275  0.00  0.00    +0.125 C 
ATOM     32  C   UNL     1      36.866 -19.816 -19.929  0.00  0.00    +0.100 C 
ATOM     33  H   UNL     1      33.410 -21.518 -19.211  0.00  0.00    +0.144 HD
ATOM     34  H   UNL     1      32.596 -20.664 -20.443  0.00  0.00    +0.144 HD
ENDBRANCH  25  28
ENDBRANCH   1  25
TORSDOF 5
ENDMDL
MODEL 2
REMARK VINA RESULT:     -10.9      6.993     12.142
REMARK  Name = 11691242
REMARK  5 active torsions:
REMARK  status: ('A' for Active; 'I' for Inactive)
REMARK    1  A    between atoms: N_1  and  C_25
REMARK    2  A    between atoms: C_5  and  N_11
REMARK    3  A    between atoms: N_12  and  C_17
REMARK    4  A    between atoms: C_18  and  O_23
REMARK    5  A    between atoms: C_25  and  C_28
REMARK                            x       y       z     vdW  Elec       q    Type
REMARK                         _______ _______ _______ _____ _____    ______ ____
ROOT
ATOM      1  N   UNL     1      35.823 -18.735 -22.179  0.00  0.00    -0.282 N 
ATOM      2  C   UNL     1      35.082 -19.513 -21.320  0.00  0.00    +0.053 C 
ATOM      3  C   UNL     1      35.931 -19.904 -20.282  0.00  0.00    +0.028 C 
ATOM      4  C   UNL     1      37.109 -18.621 -21.723  0.00  0.00    +0.066 C 
ATOM      5  C   UNL     1      35.417 -20.718 -19.254  0.00  0.00    +0.053 C 
ATOM      6  C   UNL     1      37.208 -19.334 -20.550  0.00  0.00    +0.019 C 
ATOM      7  C   UNL     1      33.738 -19.897 -21.379  0.00  0.00    +0.015 C 
ATOM      8  C   UNL     1      34.074 -21.110 -19.301  0.00  0.00    +0.015 C 
ATOM      9  C   UNL     1      33.249 -20.705 -20.348  0.00  0.00    +0.003 C 
ENDROOT
BRANCH   5  11
ATOM     10  O   UNL     1      35.070 -22.996 -17.354  0.00  0.00    -0.252 OA
ATOM     11  N   UNL     1      36.222 -21.137 -18.194  0.00  0.00    -0.268 N 
ATOM     12  N   UNL     1      37.079 -22.291 -16.386  0.00  0.00    -0.266 N 
ATOM     13  C   UNL     1      36.025 -22.226 -17.311  0.00  0.00    +0.308 C 
ATOM     14  H   UNL     1      37.036 -20.605 -18.039  0.00  0.00    +0.156 HD
ATOM     15  H   UNL     1      37.776 -21.602 -16.477  0.00  0.00    +0.157 HD
BRANCH  12  17
ATOM     16 BR   UNL     1      40.259 -25.844 -14.164  0.00  0.00    -0.049 Br
ATOM     17  C   UNL     1      37.264 -23.226 -15.340  0.00  0.00    +0.086 C 
ATOM     18  C   UNL     1      36.265 -23.417 -14.398  0.00  0.00    +0.152 C 
ATOM     19  C   UNL     1      38.452 -23.936 -15.283  0.00  0.00    +0.024 C 
ATOM     20  C   UNL     1      36.461 -24.341 -13.373  0.00  0.00    +0.039 C 
ATOM     21  C   UNL     1      38.648 -24.861 -14.257  0.00  0.00    +0.036 C 
ATOM     22  C   UNL     1      37.652 -25.063 -13.302  0.00  0.00    +0.010 C 
BRANCH  18  23
ATOM     23  O   UNL     1      35.093 -22.722 -14.451  0.00  0.00    -0.470 OA
ATOM     24  C   UNL     1      33.889 -23.468 -14.282  0.00  0.00    +0.253 C 
ENDBRANCH  18  23
ENDBRANCH  12  17
ENDBRANCH   5  11
BRANCH   1  25
ATOM     25  C   UNL     1      35.332 -18.123 -23.395  0.00  0.00    +0.122 C 
BRANCH  25  28
ATOM     26  N   UNL     1      33.891 -14.151 -22.675  0.00  0.00    -0.230 NA
ATOM     27  N   UNL     1      33.166 -14.019 -24.940  0.00  0.00    -0.343 N 
ATOM     28  C   UNL     1      34.827 -16.728 -23.143  0.00  0.00    +0.002 C 
ATOM     29  C   UNL     1      34.229 -16.020 -24.170  0.00  0.00    +0.031 C 
ATOM     30  C   UNL     1      34.965 -16.168 -21.886  0.00  0.00    +0.018 C 
ATOM     31  C   UNL     1      33.779 -14.741 -23.886  0.00  0.00    +0.125 C 
ATOM     32  C   UNL     1      34.483 -14.882 -21.704  0.00  0.00    +0.100 C 
ATOM     33  H   UNL     1      32.831 -13.107 -24.782  0.00  0.00    +0.144 HD
ATOM     34  H   UNL     1      33.073 -14.431 -25.830  0.00  0.00    +0.144 HD
ENDBRANCH  25  28
ENDBRANCH   1  25
TORSDOF 5
ENDMDL
MODEL 3
REMARK VINA RESULT:     -10.8      2.625      4.233
REMARK  Name = 11691242
REMARK  5 active torsions:
REMARK  status: ('A' for Active; 'I' for Inactive)
REMARK    1  A    between atoms: N_1  and  C_25
REMARK    2  A    between atoms: C_5  and  N_11
REMARK    3  A    between atoms: N_12  and  C_17
REMARK    4  A    between atoms: C_18  and  O_23
REMARK    5  A    between atoms: C_25  and  C_28
REMARK                            x       y       z     vdW  Elec       q    Type
REMARK                         _______ _______ _______ _____ _____    ______ ____
ROOT
ATOM      1  N   UNL     1      35.764 -18.945 -21.190  0.00  0.00    -0.282 N 
ATOM      2  C   UNL     1      35.176 -18.736 -22.417  0.00  0.00    +0.053 C 
ATOM      3  C   UNL     1      35.122 -17.354 -22.616  0.00  0.00    +0.028 C 
ATOM      4  C   UNL     1      36.083 -17.748 -20.608  0.00  0.00    +0.066 C 
ATOM      5  C   UNL     1      34.558 -16.862 -23.809  0.00  0.00    +0.053 C 
ATOM      6  C   UNL     1      35.697 -16.744 -21.466  0.00  0.00    +0.019 C 
ATOM      7  C   UNL     1      34.693 -19.653 -23.356  0.00  0.00    +0.015 C 
ATOM      8  C   UNL     1      34.070 -17.768 -24.758  0.00  0.00    +0.015 C 
ATOM      9  C   UNL     1      34.138 -19.142 -24.534  0.00  0.00    +0.003 C 
ENDROOT
BRANCH   5  11
ATOM     10  O   UNL     1      33.154 -14.705 -22.294  0.00  0.00    -0.252 OA
ATOM     11  N   UNL     1      34.479 -15.491 -24.059  0.00  0.00    -0.268 N 
ATOM     12  N   UNL     1      33.981 -13.241 -23.919  0.00  0.00    -0.266 N 
ATOM     13  C   UNL     1      33.801 -14.495 -23.315  0.00  0.00    +0.308 C 
ATOM     14  H   UNL     1      34.959 -15.174 -24.858  0.00  0.00    +0.156 HD
ATOM     15  H   UNL     1      34.528 -13.229 -24.737  0.00  0.00    +0.157 HD
BRANCH  12  17
ATOM     16 BR   UNL     1      31.325 -10.584 -20.237  0.00  0.00    -0.049 Br
ATOM     17  C   UNL     1      33.472 -11.990 -23.496  0.00  0.00    +0.086 C 
ATOM     18  C   UNL     1      33.668 -10.862 -24.278  0.00  0.00    +0.152 C 
ATOM     19  C   UNL     1      32.782 -11.922 -22.296  0.00  0.00    +0.024 C 
ATOM     20  C   UNL     1      33.162  -9.636 -23.848  0.00  0.00    +0.039 C 
ATOM     21  C   UNL     1      32.275 -10.696 -21.866  0.00  0.00    +0.036 C 
ATOM     22  C   UNL     1      32.465  -9.553 -22.642  0.00  0.00    +0.010 C 
BRANCH  18  23
ATOM     23  O   UNL     1      34.345 -10.923 -25.459  0.00  0.00    -0.470 OA
ATOM     24  C   UNL     1      35.483 -10.074 -25.599  0.00  0.00    +0.253 C 
ENDBRANCH  18  23
ENDBRANCH  12  17
ENDBRANCH   5  11
BRANCH   1  25
ATOM     25  C   UNL     1      36.013 -20.237 -20.587  0.00  0.00    +0.122 C 
BRANCH  25  28
ATOM     26  N   UNL     1      32.512 -21.750 -18.633  0.00  0.00    -0.230 NA
ATOM     27  N   UNL     1      33.890 -23.124 -17.258  0.00  0.00    -0.343 N 
ATOM     28  C   UNL     1      34.784 -20.769 -19.901  0.00  0.00    +0.002 C 
ATOM     29  C   UNL     1      34.915 -21.707 -18.892  0.00  0.00    +0.031 C 
ATOM     30  C   UNL     1      33.536 -20.314 -20.286  0.00  0.00    +0.018 C 
ATOM     31  C   UNL     1      33.753 -22.164 -18.292  0.00  0.00    +0.125 C 
ATOM     32  C   UNL     1      32.436 -20.833 -19.623  0.00  0.00    +0.100 C 
ATOM     33  H   UNL     1      33.091 -23.475 -16.804  0.00  0.00    +0.144 HD
ATOM     34  H   UNL     1      34.785 -23.438 -16.994  0.00  0.00    +0.144 HD
ENDBRANCH  25  28
ENDBRANCH   1  25
TORSDOF 5
ENDMDL
MODEL 4
REMARK VINA RESULT:     -10.6      7.121     12.528
REMARK  Name = 11691242
REMARK  5 active torsions:
REMARK  status: ('A' for Active; 'I' for Inactive)
REMARK    1  A    between atoms: N_1  and  C_25
REMARK    2  A    between atoms: C_5  and  N_11
REMARK    3  A    between atoms: N_12  and  C_17
REMARK    4  A    between atoms: C_18  and  O_23
REMARK    5  A    between atoms: C_25  and  C_28
REMARK                            x       y       z     vdW  Elec       q    Type
REMARK                         _______ _______ _______ _____ _____    ______ ____
ROOT
ATOM      1  N   UNL     1      35.923 -18.877 -21.503  0.00  0.00    -0.282 N 
ATOM      2  C   UNL     1      35.183 -19.767 -20.759  0.00  0.00    +0.053 C 
ATOM      3  C   UNL     1      36.036 -20.304 -19.792  0.00  0.00    +0.028 C 
ATOM      4  C   UNL     1      37.212 -18.833 -21.042  0.00  0.00    +0.066 C 
ATOM      5  C   UNL     1      35.523 -21.255 -18.888  0.00  0.00    +0.053 C 
ATOM      6  C   UNL     1      37.313 -19.706 -19.984  0.00  0.00    +0.019 C 
ATOM      7  C   UNL     1      33.837 -20.134 -20.866  0.00  0.00    +0.015 C 
ATOM      8  C   UNL     1      34.178 -21.632 -18.983  0.00  0.00    +0.015 C 
ATOM      9  C   UNL     1      33.350 -21.079 -19.957  0.00  0.00    +0.003 C 
ENDROOT
BRANCH   5  11
ATOM     10  O   UNL     1      34.781 -22.707 -16.385  0.00  0.00    -0.252 OA
ATOM     11  N   UNL     1      36.332 -21.823 -17.903  0.00  0.00    -0.268 N 
ATOM     12  N   UNL     1      37.080 -22.917 -16.011  0.00  0.00    -0.266 N 
ATOM     13  C   UNL     1      35.943 -22.507 -16.726  0.00  0.00    +0.308 C 
ATOM     14  H   UNL     1      37.303 -21.738 -18.045  0.00  0.00    +0.156 HD
ATOM     15  H   UNL     1      37.948 -22.683 -16.410  0.00  0.00    +0.157 HD
BRANCH  12  17
ATOM     16 BR   UNL     1      34.518 -24.367 -11.652  0.00  0.00    -0.049 Br
ATOM     17  C   UNL     1      37.130 -23.626 -14.787  0.00  0.00    +0.086 C 
ATOM     18  C   UNL     1      38.292 -24.287 -14.417  0.00  0.00    +0.152 C 
ATOM     19  C   UNL     1      36.004 -23.643 -13.980  0.00  0.00    +0.024 C 
ATOM     20  C   UNL     1      38.327 -24.982 -13.210  0.00  0.00    +0.039 C 
ATOM     21  C   UNL     1      36.040 -24.338 -12.771  0.00  0.00    +0.036 C 
ATOM     22  C   UNL     1      37.201 -25.008 -12.386  0.00  0.00    +0.010 C 
BRANCH  18  23
ATOM     23  O   UNL     1      39.402 -24.272 -15.208  0.00  0.00    -0.470 OA
ATOM     24  C   UNL     1      40.422 -25.224 -14.910  0.00  0.00    +0.253 C 
ENDBRANCH  18  23
ENDBRANCH  12  17
ENDBRANCH   5  11
BRANCH   1  25
ATOM     25  C   UNL     1      35.429 -18.096 -22.617  0.00  0.00    +0.122 C 
BRANCH  25  28
ATOM     26  N   UNL     1      34.246 -14.169 -21.371  0.00  0.00    -0.230 NA
ATOM     27  N   UNL     1      34.037 -13.524 -23.655  0.00  0.00    -0.343 N 
ATOM     28  C   UNL     1      35.014 -16.717 -22.180  0.00  0.00    +0.002 C 
ATOM     29  C   UNL     1      34.718 -15.757 -23.132  0.00  0.00    +0.031 C 
ATOM     30  C   UNL     1      34.932 -16.424 -20.831  0.00  0.00    +0.018 C 
ATOM     31  C   UNL     1      34.340 -14.504 -22.678  0.00  0.00    +0.125 C 
ATOM     32  C   UNL     1      34.545 -15.141 -20.480  0.00  0.00    +0.100 C 
ATOM     33  H   UNL     1      33.763 -12.620 -23.377  0.00  0.00    +0.144 HD
ATOM     34  H   UNL     1      34.098 -13.748 -24.612  0.00  0.00    +0.144 HD
ENDBRANCH  25  28
ENDBRANCH   1  25
TORSDOF 5
ENDMDL
MODEL 5
REMARK VINA RESULT:     -10.6      3.856     10.282
REMARK  Name = 11691242
REMARK  5 active torsions:
REMARK  status: ('A' for Active; 'I' for Inactive)
REMARK    1  A    between atoms: N_1  and  C_25
REMARK    2  A    between atoms: C_5  and  N_11
REMARK    3  A    between atoms: N_12  and  C_17
REMARK    4  A    between atoms: C_18  and  O_23
REMARK    5  A    between atoms: C_25  and  C_28
REMARK                            x       y       z     vdW  Elec       q    Type
REMARK                         _______ _______ _______ _____ _____    ______ ____
ROOT
ATOM      1  N   UNL     1      32.143  -9.732 -21.615  0.00  0.00    -0.282 N 
ATOM      2  C   UNL     1      33.005 -10.031 -22.646  0.00  0.00    +0.053 C 
ATOM      3  C   UNL     1      32.898 -11.403 -22.886  0.00  0.00    +0.028 C 
ATOM      4  C   UNL     1      31.498 -10.863 -21.196  0.00  0.00    +0.066 C 
ATOM      5  C   UNL     1      33.684 -11.978 -23.904  0.00  0.00    +0.053 C 
ATOM      6  C   UNL     1      31.943 -11.915 -21.962  0.00  0.00    +0.019 C 
ATOM      7  C   UNL     1      33.861  -9.202 -23.378  0.00  0.00    +0.015 C 
ATOM      8  C   UNL     1      34.546 -11.160 -24.645  0.00  0.00    +0.015 C 
ATOM      9  C   UNL     1      34.632  -9.794 -24.384  0.00  0.00    +0.003 C 
ENDROOT
BRANCH   5  11
ATOM     10  O   UNL     1      34.938 -14.298 -22.503  0.00  0.00    -0.252 OA
ATOM     11  N   UNL     1      33.616 -13.343 -24.185  0.00  0.00    -0.268 N 
ATOM     12  N   UNL     1      33.897 -15.634 -24.115  0.00  0.00    -0.266 N 
ATOM     13  C   UNL     1      34.226 -14.419 -23.495  0.00  0.00    +0.308 C 
ATOM     14  H   UNL     1      33.071 -13.592 -24.967  0.00  0.00    +0.156 HD
ATOM     15  H   UNL     1      33.314 -15.572 -24.906  0.00  0.00    +0.157 HD
BRANCH  12  17
ATOM     16 BR   UNL     1      37.143 -18.580 -21.208  0.00  0.00    -0.049 Br
ATOM     17  C   UNL     1      34.299 -16.939 -23.742  0.00  0.00    +0.086 C 
ATOM     18  C   UNL     1      33.665 -18.043 -24.292  0.00  0.00    +0.152 C 
ATOM     19  C   UNL     1      35.329 -17.083 -22.826  0.00  0.00    +0.024 C 
ATOM     20  C   UNL     1      34.072 -19.322 -23.915  0.00  0.00    +0.039 C 
ATOM     21  C   UNL     1      35.736 -18.363 -22.450  0.00  0.00    +0.036 C 
ATOM     22  C   UNL     1      35.107 -19.482 -22.994  0.00  0.00    +0.010 C 
BRANCH  18  23
ATOM     23  O   UNL     1      32.653 -17.907 -25.194  0.00  0.00    -0.470 OA
ATOM     24  C   UNL     1      31.807 -19.038 -25.395  0.00  0.00    +0.253 C 
ENDBRANCH  18  23
ENDBRANCH  12  17
ENDBRANCH   5  11
BRANCH   1  25
ATOM     25  C   UNL     1      31.941  -8.418 -21.043  0.00  0.00    +0.122 C 
BRANCH  25  28
ATOM     26  N   UNL     1      31.148  -5.497 -24.078  0.00  0.00    -0.230 NA
ATOM     27  N   UNL     1      32.014  -3.799 -22.649  0.00  0.00    -0.343 N 
ATOM     28  C   UNL     1      31.662  -7.392 -22.108  0.00  0.00    +0.002 C 
ATOM     29  C   UNL     1      31.971  -6.063 -21.877  0.00  0.00    +0.031 C 
ATOM     30  C   UNL     1      31.101  -7.789 -23.308  0.00  0.00    +0.018 C 
ATOM     31  C   UNL     1      31.696  -5.159 -22.889  0.00  0.00    +0.125 C 
ATOM     32  C   UNL     1      30.864  -6.807 -24.257  0.00  0.00    +0.100 C 
ATOM     33  H   UNL     1      31.836  -3.123 -23.342  0.00  0.00    +0.144 HD
ATOM     34  H   UNL     1      32.415  -3.532 -21.790  0.00  0.00    +0.144 HD
ENDBRANCH  25  28
ENDBRANCH   1  25
TORSDOF 5
ENDMDL
MODEL 6
REMARK VINA RESULT:     -10.6      4.257     10.598
REMARK  Name = 11691242
REMARK  5 active torsions:
REMARK  status: ('A' for Active; 'I' for Inactive)
REMARK    1  A    between atoms: N_1  and  C_25
REMARK    2  A    between atoms: C_5  and  N_11
REMARK    3  A    between atoms: N_12  and  C_17
REMARK    4  A    between atoms: C_18  and  O_23
REMARK    5  A    between atoms: C_25  and  C_28
REMARK                            x       y       z     vdW  Elec       q    Type
REMARK                         _______ _______ _______ _____ _____    ______ ____
ROOT
ATOM      1  N   UNL     1      33.994  -8.608 -23.138  0.00  0.00    -0.282 N 
ATOM      2  C   UNL     1      33.179  -9.607 -22.655  0.00  0.00    +0.053 C 
ATOM      3  C   UNL     1      33.594 -10.800 -23.251  0.00  0.00    +0.028 C 
ATOM      4  C   UNL     1      34.907  -9.126 -24.017  0.00  0.00    +0.066 C 
ATOM      5  C   UNL     1      32.918 -11.992 -22.926  0.00  0.00    +0.053 C 
ATOM      6  C   UNL     1      34.685 -10.481 -24.109  0.00  0.00    +0.019 C 
ATOM      7  C   UNL     1      32.118  -9.547 -21.745  0.00  0.00    +0.015 C 
ATOM      8  C   UNL     1      31.853 -11.947 -22.018  0.00  0.00    +0.015 C 
ATOM      9  C   UNL     1      31.462 -10.742 -21.437  0.00  0.00    +0.003 C 
ENDROOT
BRANCH   5  11
ATOM     10  O   UNL     1      33.766 -14.543 -21.625  0.00  0.00    -0.252 OA
ATOM     11  N   UNL     1      33.291 -13.211 -23.493  0.00  0.00    -0.268 N 
ATOM     12  N   UNL     1      33.979 -15.395 -23.792  0.00  0.00    -0.266 N 
ATOM     13  C   UNL     1      33.688 -14.404 -22.842  0.00  0.00    +0.308 C 
ATOM     14  H   UNL     1      33.275 -13.248 -24.477  0.00  0.00    +0.156 HD
ATOM     15  H   UNL     1      33.870 -15.135 -24.735  0.00  0.00    +0.157 HD
BRANCH  12  17
ATOM     16 BR   UNL     1      37.298 -18.568 -21.226  0.00  0.00    -0.049 Br
ATOM     17  C   UNL     1      34.409 -16.724 -23.562  0.00  0.00    +0.086 C 
ATOM     18  C   UNL     1      33.793 -17.775 -24.223  0.00  0.00    +0.152 C 
ATOM     19  C   UNL     1      35.446 -16.943 -22.670  0.00  0.00    +0.024 C 
ATOM     20  C   UNL     1      34.226 -19.079 -23.985  0.00  0.00    +0.039 C 
ATOM     21  C   UNL     1      35.880 -18.248 -22.433  0.00  0.00    +0.036 C 
ATOM     22  C   UNL     1      35.270 -19.315 -23.090  0.00  0.00    +0.010 C 
BRANCH  18  23
ATOM     23  O   UNL     1      32.773 -17.565 -25.102  0.00  0.00    -0.470 OA
ATOM     24  C   UNL     1      31.877 -18.652 -25.328  0.00  0.00    +0.253 C 
ENDBRANCH  18  23
ENDBRANCH  12  17
ENDBRANCH   5  11
BRANCH   1  25
ATOM     25  C   UNL     1      33.909  -7.208 -22.782  0.00  0.00    +0.122 C 
BRANCH  25  28
ATOM     26  N   UNL     1      33.370  -4.744 -26.248  0.00  0.00    -0.230 NA
ATOM     27  N   UNL     1      35.734  -4.618 -26.508  0.00  0.00    -0.343 N 
ATOM     28  C   UNL     1      33.721  -6.342 -23.998  0.00  0.00    +0.002 C 
ATOM     29  C   UNL     1      34.827  -5.880 -24.689  0.00  0.00    +0.031 C 
ATOM     30  C   UNL     1      32.442  -6.018 -24.414  0.00  0.00    +0.018 C 
ATOM     31  C   UNL     1      34.599  -5.088 -25.803  0.00  0.00    +0.125 C 
ATOM     32  C   UNL     1      32.320  -5.219 -25.540  0.00  0.00    +0.100 C 
ATOM     33  H   UNL     1      35.619  -4.053 -27.305  0.00  0.00    +0.144 HD
ATOM     34  H   UNL     1      36.639  -4.858 -26.201  0.00  0.00    +0.144 HD
ENDBRANCH  25  28
ENDBRANCH   1  25
TORSDOF 5
ENDMDL
MODEL 7
REMARK VINA RESULT:     -10.4      6.827     10.442
REMARK  Name = 11691242
REMARK  5 active torsions:
REMARK  status: ('A' for Active; 'I' for Inactive)
REMARK    1  A    between atoms: N_1  and  C_25
REMARK    2  A    between atoms: C_5  and  N_11
REMARK    3  A    between atoms: N_12  and  C_17
REMARK    4  A    between atoms: C_18  and  O_23
REMARK    5  A    between atoms: C_25  and  C_28
REMARK                            x       y       z     vdW  Elec       q    Type
REMARK                         _______ _______ _______ _____ _____    ______ ____
ROOT
ATOM      1  N   UNL     1      36.562 -22.514 -15.199  0.00  0.00    -0.282 N 
ATOM      2  C   UNL     1      35.532 -22.714 -16.090  0.00  0.00    +0.053 C 
ATOM      3  C   UNL     1      35.891 -22.080 -17.282  0.00  0.00    +0.028 C 
ATOM      4  C   UNL     1      37.556 -21.778 -15.784  0.00  0.00    +0.066 C 
ATOM      5  C   UNL     1      35.001 -22.132 -18.373  0.00  0.00    +0.053 C 
ATOM      6  C   UNL     1      37.171 -21.492 -17.073  0.00  0.00    +0.019 C 
ATOM      7  C   UNL     1      34.323 -23.401 -15.935  0.00  0.00    +0.015 C 
ATOM      8  C   UNL     1      33.788 -22.815 -18.232  0.00  0.00    +0.015 C 
ATOM      9  C   UNL     1      33.456 -23.440 -17.032  0.00  0.00    +0.003 C 
ENDROOT
BRANCH   5  11
ATOM     10  O   UNL     1      33.540 -20.009 -19.883  0.00  0.00    -0.252 OA
ATOM     11  N   UNL     1      35.310 -21.515 -19.586  0.00  0.00    -0.268 N 
ATOM     12  N   UNL     1      35.256 -20.171 -21.463  0.00  0.00    -0.266 N 
ATOM     13  C   UNL     1      34.591 -20.509 -20.274  0.00  0.00    +0.308 C 
ATOM     14  H   UNL     1      36.139 -21.820 -20.022  0.00  0.00    +0.156 HD
ATOM     15  H   UNL     1      36.092 -20.659 -21.644  0.00  0.00    +0.157 HD
BRANCH  12  17
ATOM     16 BR   UNL     1      32.031 -18.987 -25.446  0.00  0.00    -0.049 Br
ATOM     17  C   UNL     1      34.874 -19.215 -22.434  0.00  0.00    +0.086 C 
ATOM     18  C   UNL     1      35.539 -18.001 -22.511  0.00  0.00    +0.152 C 
ATOM     19  C   UNL     1      33.832 -19.520 -23.295  0.00  0.00    +0.024 C 
ATOM     20  C   UNL     1      35.151 -17.069 -23.472  0.00  0.00    +0.039 C 
ATOM     21  C   UNL     1      33.445 -18.588 -24.258  0.00  0.00    +0.036 C 
ATOM     22  C   UNL     1      34.104 -17.362 -24.346  0.00  0.00    +0.010 C 
BRANCH  18  23
ATOM     23  O   UNL     1      36.565 -17.697 -21.667  0.00  0.00    -0.470 OA
ATOM     24  C   UNL     1      37.668 -18.601 -21.635  0.00  0.00    +0.253 C 
ENDBRANCH  18  23
ENDBRANCH  12  17
ENDBRANCH   5  11
BRANCH   1  25
ATOM     25  C   UNL     1      36.601 -23.002 -13.837  0.00  0.00    +0.122 C 
BRANCH  25  28
ATOM     26  N   UNL     1      38.457 -26.857 -13.602  0.00  0.00    -0.230 NA
ATOM     27  N   UNL     1      40.088 -26.153 -15.190  0.00  0.00    -0.343 N 
ATOM     28  C   UNL     1      37.253 -24.355 -13.756  0.00  0.00    +0.002 C 
ATOM     29  C   UNL     1      38.375 -24.622 -14.519  0.00  0.00    +0.031 C 
ATOM     30  C   UNL     1      36.723 -25.319 -12.917  0.00  0.00    +0.018 C 
ATOM     31  C   UNL     1      38.938 -25.883 -14.407  0.00  0.00    +0.125 C 
ATOM     32  C   UNL     1      37.359 -26.549 -12.876  0.00  0.00    +0.100 C 
ATOM     33  H   UNL     1      40.520 -27.036 -15.141  0.00  0.00    +0.144 HD
ATOM     34  H   UNL     1      40.455 -25.457 -15.782  0.00  0.00    +0.144 HD
ENDBRANCH  25  28
ENDBRANCH   1  25
TORSDOF 5
ENDMDL
MODEL 8
REMARK VINA RESULT:     -10.4      1.875      2.598
REMARK  Name = 11691242
REMARK  5 active torsions:
REMARK  status: ('A' for Active; 'I' for Inactive)
REMARK    1  A    between atoms: N_1  and  C_25
REMARK    2  A    between atoms: C_5  and  N_11
REMARK    3  A    between atoms: N_12  and  C_17
REMARK    4  A    between atoms: C_18  and  O_23
REMARK    5  A    between atoms: C_25  and  C_28
REMARK                            x       y       z     vdW  Elec       q    Type
REMARK                         _______ _______ _______ _____ _____    ______ ____
ROOT
ATOM      1  N   UNL     1      35.332 -18.182 -21.725  0.00  0.00    -0.282 N 
ATOM      2  C   UNL     1      34.918 -17.395 -22.775  0.00  0.00    +0.053 C 
ATOM      3  C   UNL     1      34.874 -16.078 -22.309  0.00  0.00    +0.028 C 
ATOM      4  C   UNL     1      35.550 -17.412 -20.614  0.00  0.00    +0.066 C 
ATOM      5  C   UNL     1      34.475 -15.058 -23.195  0.00  0.00    +0.053 C 
ATOM      6  C   UNL     1      35.275 -16.105 -20.944  0.00  0.00    +0.019 C 
ATOM      7  C   UNL     1      34.583 -17.742 -24.088  0.00  0.00    +0.015 C 
ATOM      8  C   UNL     1      34.137 -15.391 -24.512  0.00  0.00    +0.015 C 
ATOM      9  C   UNL     1      34.191 -16.713 -24.950  0.00  0.00    +0.003 C 
ENDROOT
BRANCH   5  11
ATOM     10  O   UNL     1      32.921 -12.764 -24.310  0.00  0.00    -0.252 OA
ATOM     11  N   UNL     1      34.414 -13.727 -22.782  0.00  0.00    -0.268 N 
ATOM     12  N   UNL     1      33.893 -11.483 -22.611  0.00  0.00    -0.266 N 
ATOM     13  C   UNL     1      33.662 -12.663 -23.337  0.00  0.00    +0.308 C 
ATOM     14  H   UNL     1      34.966 -13.496 -22.000  0.00  0.00    +0.156 HD
ATOM     15  H   UNL     1      34.516 -11.557 -21.853  0.00  0.00    +0.157 HD
BRANCH  12  17
ATOM     16 BR   UNL     1      34.676  -6.603 -24.411  0.00  0.00    -0.049 Br
ATOM     17  C   UNL     1      33.340 -10.200 -22.836  0.00  0.00    +0.086 C 
ATOM     18  C   UNL     1      32.024  -9.942 -22.484  0.00  0.00    +0.152 C 
ATOM     19  C   UNL     1      34.136  -9.222 -23.410  0.00  0.00    +0.024 C 
ATOM     20  C   UNL     1      31.492  -8.674 -22.712  0.00  0.00    +0.039 C 
ATOM     21  C   UNL     1      33.604  -7.953 -23.637  0.00  0.00    +0.036 C 
ATOM     22  C   UNL     1      32.282  -7.679 -23.288  0.00  0.00    +0.010 C 
BRANCH  18  23
ATOM     23  O   UNL     1      31.237 -10.900 -21.919  0.00  0.00    -0.470 OA
ATOM     24  C   UNL     1      31.087 -10.863 -20.500  0.00  0.00    +0.253 C 
ENDBRANCH  18  23
ENDBRANCH  12  17
ENDBRANCH   5  11
BRANCH   1  25
ATOM     25  C   UNL     1      35.511 -19.617 -21.770  0.00  0.00    +0.122 C 
BRANCH  25  28
ATOM     26  N   UNL     1      33.310 -21.566 -18.652  0.00  0.00    -0.230 NA
ATOM     27  N   UNL     1      35.354 -22.369 -17.729  0.00  0.00    -0.343 N 
ATOM     28  C   UNL     1      34.739 -20.302 -20.675  0.00  0.00    +0.002 C 
ATOM     29  C   UNL     1      35.415 -21.022 -19.707  0.00  0.00    +0.031 C 
ATOM     30  C   UNL     1      33.360 -20.204 -20.648  0.00  0.00    +0.018 C 
ATOM     31  C   UNL     1      34.658 -21.633 -18.720  0.00  0.00    +0.125 C 
ATOM     32  C   UNL     1      32.694 -20.851 -19.620  0.00  0.00    +0.100 C 
ATOM     33  H   UNL     1      34.856 -22.818 -17.010  0.00  0.00    +0.144 HD
ATOM     34  H   UNL     1      36.337 -22.429 -17.761  0.00  0.00    +0.144 HD
ENDBRANCH  25  28
ENDBRANCH   1  25
TORSDOF 5
ENDMDL
MODEL 9
REMARK VINA RESULT:     -10.3      6.155     10.251
REMARK  Name = 11691242
REMARK  5 active torsions:
REMARK  status: ('A' for Active; 'I' for Inactive)
REMARK    1  A    between atoms: N_1  and  C_25
REMARK    2  A    between atoms: C_5  and  N_11
REMARK    3  A    between atoms: N_12  and  C_17
REMARK    4  A    between atoms: C_18  and  O_23
REMARK    5  A    between atoms: C_25  and  C_28
REMARK                            x       y       z     vdW  Elec       q    Type
REMARK                         _______ _______ _______ _____ _____    ______ ____
ROOT
ATOM      1  N   UNL     1      36.115 -23.133 -15.276  0.00  0.00    -0.282 N 
ATOM      2  C   UNL     1      35.174 -23.003 -16.272  0.00  0.00    +0.053 C 
ATOM      3  C   UNL     1      35.690 -22.105 -17.210  0.00  0.00    +0.028 C 
ATOM      4  C   UNL     1      37.205 -22.351 -15.550  0.00  0.00    +0.066 C 
ATOM      5  C   UNL     1      34.918 -21.791 -18.345  0.00  0.00    +0.053 C 
ATOM      6  C   UNL     1      36.972 -21.702 -16.740  0.00  0.00    +0.019 C 
ATOM      7  C   UNL     1      33.919 -23.604 -16.414  0.00  0.00    +0.015 C 
ATOM      8  C   UNL     1      33.659 -22.385 -18.500  0.00  0.00    +0.015 C 
ATOM      9  C   UNL     1      33.170 -23.277 -17.549  0.00  0.00    +0.003 C 
ENDROOT
BRANCH   5  11
ATOM     10  O   UNL     1      33.414 -20.054 -20.254  0.00  0.00    -0.252 OA
ATOM     11  N   UNL     1      35.385 -20.901 -19.312  0.00  0.00    -0.268 N 
ATOM     12  N   UNL     1      35.508 -19.343 -21.013  0.00  0.00    -0.266 N 
ATOM     13  C   UNL     1      34.639 -20.091 -20.203  0.00  0.00    +0.308 C 
ATOM     14  H   UNL     1      36.364 -20.825 -19.386  0.00  0.00    +0.156 HD
ATOM     15  H   UNL     1      36.470 -19.479 -20.855  0.00  0.00    +0.157 HD
BRANCH  12  17
ATOM     16 BR   UNL     1      34.538 -14.322 -22.246  0.00  0.00    -0.049 Br
ATOM     17  C   UNL     1      35.171 -18.416 -22.028  0.00  0.00    +0.086 C 
ATOM     18  C   UNL     1      34.970 -18.854 -23.327  0.00  0.00    +0.152 C 
ATOM     19  C   UNL     1      35.049 -17.077 -21.693  0.00  0.00    +0.024 C 
ATOM     20  C   UNL     1      34.638 -17.930 -24.316  0.00  0.00    +0.039 C 
ATOM     21  C   UNL     1      34.717 -16.152 -22.683  0.00  0.00    +0.036 C 
ATOM     22  C   UNL     1      34.512 -16.578 -23.995  0.00  0.00    +0.010 C 
BRANCH  18  23
ATOM     23  O   UNL     1      35.087 -20.170 -23.661  0.00  0.00    -0.470 OA
ATOM     24  C   UNL     1      34.705 -20.540 -24.985  0.00  0.00    +0.253 C 
ENDBRANCH  18  23
ENDBRANCH  12  17
ENDBRANCH   5  11
BRANCH   1  25
ATOM     25  C   UNL     1      35.985 -23.967 -14.100  0.00  0.00    +0.122 C 
BRANCH  25  28
ATOM     26  N   UNL     1      39.483 -26.367 -13.490  0.00  0.00    -0.230 NA
ATOM     27  N   UNL     1      39.044 -27.501 -15.539  0.00  0.00    -0.343 N 
ATOM     28  C   UNL     1      37.212 -24.810 -13.886  0.00  0.00    +0.002 C 
ATOM     29  C   UNL     1      37.555 -25.771 -14.821  0.00  0.00    +0.031 C 
ATOM     30  C   UNL     1      37.986 -24.616 -12.756  0.00  0.00    +0.018 C 
ATOM     31  C   UNL     1      38.695 -26.519 -14.579  0.00  0.00    +0.125 C 
ATOM     32  C   UNL     1      39.107 -25.417 -12.605  0.00  0.00    +0.100 C 
ATOM     33  H   UNL     1      39.846 -28.056 -15.406  0.00  0.00    +0.144 HD
ATOM     34  H   UNL     1      38.484 -27.628 -16.339  0.00  0.00    +0.144 HD
ENDBRANCH  25  28
ENDBRANCH   1  25
TORSDOF 5
ENDMDL
