MODEL 1
REMARK VINA RESULT:     -12.3      0.000      0.000
REMARK  Name = 25184541
REMARK  4 active torsions:
REMARK  status: ('A' for Active; 'I' for Inactive)
REMARK    1  A    between atoms: C_4  and  N_19
REMARK    2  A    between atoms: C_5  and  N_11
REMARK    3  A    between atoms: C_20  and  C_23
REMARK    4  A    between atoms: C_23  and  N_25
REMARK                            x       y       z     vdW  Elec       q    Type
REMARK                         _______ _______ _______ _____ _____    ______ ____
ROOT
ATOM      1  F   UNL     1      32.391 -21.754 -18.743  0.00  0.00    -0.200 F 
ATOM      2  F   UNL     1      32.446 -20.070 -20.874  0.00  0.00    -0.200 F 
ATOM      3  F   UNL     1      37.185 -19.879 -20.598  0.00  0.00    -0.203 F 
ATOM      4  C   UNL     1      34.759 -21.681 -18.577  0.00  0.00    +0.089 C 
ATOM      5  C   UNL     1      34.816 -19.951 -20.764  0.00  0.00    +0.110 C 
ATOM      6  C   UNL     1      33.568 -21.297 -19.193  0.00  0.00    +0.182 C 
ATOM      7  C   UNL     1      35.978 -21.201 -19.055  0.00  0.00    +0.048 C 
ATOM      8  C   UNL     1      33.597 -20.431 -20.287  0.00  0.00    +0.184 C 
ATOM      9  C   UNL     1      36.006 -20.336 -20.148  0.00  0.00    +0.157 C 
ENDROOT
BRANCH   5  11
ATOM     10  O   UNL     1      34.877 -16.477 -25.020  0.00  0.00    -0.291 OA
ATOM     11  N   UNL     1      34.845 -19.068 -21.875  0.00  0.00    -0.282 N 
ATOM     12  C   UNL     1      35.605 -17.814 -21.728  0.00  0.00    +0.104 C 
ATOM     13  C   UNL     1      35.038 -16.722 -22.633  0.00  0.00    +0.091 C 
ATOM     14  C   UNL     1      34.355 -19.405 -23.128  0.00  0.00    +0.068 C 
ATOM     15  C   UNL     1      34.786 -17.216 -24.042  0.00  0.00    +0.176 C 
ATOM     16  C   UNL     1      34.326 -18.614 -24.206  0.00  0.00    +0.054 C 
ENDBRANCH   5  11
BRANCH   4  19
ATOM     17  O   UNL     1      35.285 -23.658 -15.566  0.00  0.00    -0.434 OA
ATOM     18  O   UNL     1      36.744 -22.089 -16.308  0.00  0.00    -0.226 OA
ATOM     19  N   UNL     1      34.733 -22.565 -17.461  0.00  0.00    -0.219 N 
ATOM     20  C   UNL     1      33.933 -24.034 -15.862  0.00  0.00    +0.210 C 
ATOM     21  C   UNL     1      33.718 -23.569 -17.286  0.00  0.00    +0.147 C 
ATOM     22  C   UNL     1      35.685 -22.684 -16.452  0.00  0.00    +0.409 C 
BRANCH  20  23
ATOM     23  C   UNL     1      33.004 -23.357 -14.863  0.00  0.00    +0.134 C 
BRANCH  23  25
ATOM     24  O   UNL     1      29.175 -22.676 -16.738  0.00  0.00    -0.349 OA
ATOM     25  N   UNL     1      31.755 -24.070 -14.792  0.00  0.00    -0.312 N 
ATOM     26  N   UNL     1      30.490 -22.640 -16.291  0.00  0.00    -0.062 NA
ATOM     27  C   UNL     1      30.610 -23.694 -15.479  0.00  0.00    +0.171 C 
ATOM     28  C   UNL     1      29.415 -24.425 -15.375  0.00  0.00    +0.081 C 
ATOM     29  C   UNL     1      28.545 -23.745 -16.185  0.00  0.00    +0.215 C 
ATOM     30  H   UNL     1      31.711 -24.872 -14.221  0.00  0.00    +0.148 HD
ENDBRANCH  23  25
ENDBRANCH  20  23
ENDBRANCH   4  19
TORSDOF 4
ENDMDL
MODEL 2
REMARK VINA RESULT:     -12.1      0.583      1.771
REMARK  Name = 25184541
REMARK  4 active torsions:
REMARK  status: ('A' for Active; 'I' for Inactive)
REMARK    1  A    between atoms: C_4  and  N_19
REMARK    2  A    between atoms: C_5  and  N_11
REMARK    3  A    between atoms: C_20  and  C_23
REMARK    4  A    between atoms: C_23  and  N_25
REMARK                            x       y       z     vdW  Elec       q    Type
REMARK                         _______ _______ _______ _____ _____    ______ ____
ROOT
ATOM      1  F   UNL     1      36.923 -21.639 -18.506  0.00  0.00    -0.200 F 
ATOM      2  F   UNL     1      37.050 -19.939 -20.621  0.00  0.00    -0.200 F 
ATOM      3  F   UNL     1      32.312 -20.008 -20.958  0.00  0.00    -0.203 F 
ATOM      4  C   UNL     1      34.553 -21.696 -18.646  0.00  0.00    +0.089 C 
ATOM      5  C   UNL     1      34.683 -19.951 -20.818  0.00  0.00    +0.110 C 
ATOM      6  C   UNL     1      35.790 -21.243 -19.104  0.00  0.00    +0.182 C 
ATOM      7  C   UNL     1      33.380 -21.275 -19.274  0.00  0.00    +0.048 C 
ATOM      8  C   UNL     1      35.855 -20.370 -20.190  0.00  0.00    +0.184 C 
ATOM      9  C   UNL     1      33.446 -20.404 -20.360  0.00  0.00    +0.157 C 
ENDROOT
BRANCH   5  11
ATOM     10  O   UNL     1      34.887 -16.467 -25.061  0.00  0.00    -0.291 OA
ATOM     11  N   UNL     1      34.749 -19.066 -21.926  0.00  0.00    -0.282 N 
ATOM     12  C   UNL     1      35.556 -17.843 -21.772  0.00  0.00    +0.104 C 
ATOM     13  C   UNL     1      35.034 -16.726 -22.674  0.00  0.00    +0.091 C 
ATOM     14  C   UNL     1      34.249 -19.379 -23.181  0.00  0.00    +0.068 C 
ATOM     15  C   UNL     1      34.765 -17.205 -24.086  0.00  0.00    +0.176 C 
ATOM     16  C   UNL     1      34.253 -18.584 -24.256  0.00  0.00    +0.054 C 
ENDBRANCH   5  11
BRANCH   4  19
ATOM     17  O   UNL     1      34.959 -23.689 -15.626  0.00  0.00    -0.434 OA
ATOM     18  O   UNL     1      36.446 -22.115 -16.302  0.00  0.00    -0.226 OA
ATOM     19  N   UNL     1      34.483 -22.586 -17.536  0.00  0.00    -0.219 N 
ATOM     20  C   UNL     1      33.621 -24.064 -15.978  0.00  0.00    +0.210 C 
ATOM     21  C   UNL     1      33.462 -23.591 -17.407  0.00  0.00    +0.147 C 
ATOM     22  C   UNL     1      35.394 -22.710 -16.491  0.00  0.00    +0.409 C 
BRANCH  20  23
ATOM     23  C   UNL     1      32.652 -23.391 -15.013  0.00  0.00    +0.134 C 
BRANCH  23  25
ATOM     24  O   UNL     1      28.789 -22.617 -16.777  0.00  0.00    -0.349 OA
ATOM     25  N   UNL     1      31.411 -24.122 -14.976  0.00  0.00    -0.312 N 
ATOM     26  N   UNL     1      30.110 -22.599 -16.348  0.00  0.00    -0.062 NA
ATOM     27  C   UNL     1      30.252 -23.708 -15.616  0.00  0.00    +0.171 C 
ATOM     28  C   UNL     1      29.066 -24.458 -15.549  0.00  0.00    +0.081 C 
ATOM     29  C   UNL     1      28.177 -23.729 -16.294  0.00  0.00    +0.215 C 
ATOM     30  H   UNL     1      31.384 -24.963 -14.464  0.00  0.00    +0.148 HD
ENDBRANCH  23  25
ENDBRANCH  20  23
ENDBRANCH   4  19
TORSDOF 4
ENDMDL
MODEL 3
REMARK VINA RESULT:     -11.3      9.099     14.236
REMARK  Name = 25184541
REMARK  4 active torsions:
REMARK  status: ('A' for Active; 'I' for Inactive)
REMARK    1  A    between atoms: C_4  and  N_19
REMARK    2  A    between atoms: C_5  and  N_11
REMARK    3  A    between atoms: C_20  and  C_23
REMARK    4  A    between atoms: C_23  and  N_25
REMARK                            x       y       z     vdW  Elec       q    Type
REMARK                         _______ _______ _______ _____ _____    ______ ____
ROOT
ATOM      1  F   UNL     1      30.904 -10.539 -20.518  0.00  0.00    -0.200 F 
ATOM      2  F   UNL     1      31.619 -13.026 -21.342  0.00  0.00    -0.200 F 
ATOM      3  F   UNL     1      34.605 -11.119 -24.506  0.00  0.00    -0.203 F 
ATOM      4  C   UNL     1      32.388  -9.552 -22.089  0.00  0.00    +0.089 C 
ATOM      5  C   UNL     1      33.121 -12.106 -22.936  0.00  0.00    +0.110 C 
ATOM      6  C   UNL     1      31.811 -10.675 -21.496  0.00  0.00    +0.182 C 
ATOM      7  C   UNL     1      33.331  -9.706 -23.104  0.00  0.00    +0.048 C 
ATOM      8  C   UNL     1      32.178 -11.953 -21.920  0.00  0.00    +0.184 C 
ATOM      9  C   UNL     1      33.697 -10.983 -23.528  0.00  0.00    +0.157 C 
ENDROOT
BRANCH   5  11
ATOM     10  O   UNL     1      34.644 -17.115 -24.600  0.00  0.00    -0.291 OA
ATOM     11  N   UNL     1      33.493 -13.406 -23.369  0.00  0.00    -0.282 N 
ATOM     12  C   UNL     1      34.008 -14.340 -22.353  0.00  0.00    +0.104 C 
ATOM     13  C   UNL     1      34.952 -15.364 -22.981  0.00  0.00    +0.091 C 
ATOM     14  C   UNL     1      33.228 -13.888 -24.642  0.00  0.00    +0.068 C 
ATOM     15  C   UNL     1      34.386 -15.966 -24.250  0.00  0.00    +0.176 C 
ATOM     16  C   UNL     1      33.574 -15.087 -25.122  0.00  0.00    +0.054 C 
ENDBRANCH   5  11
BRANCH   4  19
ATOM     17  O   UNL     1      31.715  -6.397 -20.401  0.00  0.00    -0.434 OA
ATOM     18  O   UNL     1      32.756  -8.153 -19.413  0.00  0.00    -0.226 OA
ATOM     19  N   UNL     1      32.016  -8.246 -21.658  0.00  0.00    -0.219 N 
ATOM     20  C   UNL     1      31.353  -6.030 -21.739  0.00  0.00    +0.210 C 
ATOM     21  C   UNL     1      31.238  -7.350 -22.471  0.00  0.00    +0.147 C 
ATOM     22  C   UNL     1      32.231  -7.673 -20.408  0.00  0.00    +0.409 C 
BRANCH  20  23
ATOM     23  C   UNL     1      32.435  -5.121 -22.309  0.00  0.00    +0.134 C 
BRANCH  23  25
ATOM     24  O   UNL     1      34.941  -5.189 -25.823  0.00  0.00    -0.349 OA
ATOM     25  N   UNL     1      32.160  -4.841 -23.695  0.00  0.00    -0.312 N 
ATOM     26  N   UNL     1      34.396  -5.253 -24.547  0.00  0.00    -0.062 NA
ATOM     27  C   UNL     1      33.112  -4.917 -24.701  0.00  0.00    +0.171 C 
ATOM     28  C   UNL     1      32.793  -4.633 -26.040  0.00  0.00    +0.081 C 
ATOM     29  C   UNL     1      33.976  -4.819 -26.704  0.00  0.00    +0.215 C 
ATOM     30  H   UNL     1      31.243  -4.580 -23.942  0.00  0.00    +0.148 HD
ENDBRANCH  23  25
ENDBRANCH  20  23
ENDBRANCH   4  19
TORSDOF 4
ENDMDL
MODEL 4
REMARK VINA RESULT:     -11.2      2.579      4.489
REMARK  Name = 25184541
REMARK  4 active torsions:
REMARK  status: ('A' for Active; 'I' for Inactive)
REMARK    1  A    between atoms: C_4  and  N_19
REMARK    2  A    between atoms: C_5  and  N_11
REMARK    3  A    between atoms: C_20  and  C_23
REMARK    4  A    between atoms: C_23  and  N_25
REMARK                            x       y       z     vdW  Elec       q    Type
REMARK                         _______ _______ _______ _____ _____    ______ ____
ROOT
ATOM      1  F   UNL     1      37.097 -21.641 -18.312  0.00  0.00    -0.200 F 
ATOM      2  F   UNL     1      37.174 -19.971 -20.453  0.00  0.00    -0.200 F 
ATOM      3  F   UNL     1      32.437 -20.147 -20.760  0.00  0.00    -0.203 F 
ATOM      4  C   UNL     1      34.728 -21.751 -18.436  0.00  0.00    +0.089 C 
ATOM      5  C   UNL     1      34.807 -20.037 -20.636  0.00  0.00    +0.110 C 
ATOM      6  C   UNL     1      35.952 -21.278 -18.909  0.00  0.00    +0.182 C 
ATOM      7  C   UNL     1      33.543 -21.366 -19.064  0.00  0.00    +0.048 C 
ATOM      8  C   UNL     1      35.991 -20.421 -20.009  0.00  0.00    +0.184 C 
ATOM      9  C   UNL     1      33.583 -20.510 -20.164  0.00  0.00    +0.157 C 
ENDROOT
BRANCH   5  11
ATOM     10  O   UNL     1      34.910 -16.614 -24.931  0.00  0.00    -0.291 OA
ATOM     11  N   UNL     1      34.847 -19.168 -21.757  0.00  0.00    -0.282 N 
ATOM     12  C   UNL     1      35.623 -17.922 -21.624  0.00  0.00    +0.104 C 
ATOM     13  C   UNL     1      35.069 -16.833 -22.542  0.00  0.00    +0.091 C 
ATOM     14  C   UNL     1      34.352 -19.513 -23.006  0.00  0.00    +0.068 C 
ATOM     15  C   UNL     1      34.810 -17.341 -23.945  0.00  0.00    +0.176 C 
ATOM     16  C   UNL     1      34.333 -18.734 -24.093  0.00  0.00    +0.054 C 
ENDBRANCH   5  11
BRANCH   4  19
ATOM     17  O   UNL     1      34.268 -24.394 -15.975  0.00  0.00    -0.434 OA
ATOM     18  O   UNL     1      33.467 -24.498 -18.094  0.00  0.00    -0.226 OA
ATOM     19  N   UNL     1      34.684 -22.625 -17.313  0.00  0.00    -0.219 N 
ATOM     20  C   UNL     1      35.194 -23.565 -15.261  0.00  0.00    +0.210 C 
ATOM     21  C   UNL     1      35.184 -22.253 -16.017  0.00  0.00    +0.147 C 
ATOM     22  C   UNL     1      34.090 -23.882 -17.240  0.00  0.00    +0.409 C 
BRANCH  20  23
ATOM     23  C   UNL     1      36.558 -24.243 -15.255  0.00  0.00    +0.134 C 
BRANCH  23  25
ATOM     24  O   UNL     1      38.088 -22.725 -11.515  0.00  0.00    -0.349 OA
ATOM     25  N   UNL     1      36.788 -24.873 -13.980  0.00  0.00    -0.312 N 
ATOM     26  N   UNL     1      37.641 -22.921 -12.815  0.00  0.00    -0.062 NA
ATOM     27  C   UNL     1      37.295 -24.211 -12.871  0.00  0.00    +0.171 C 
ATOM     28  C   UNL     1      37.501 -24.872 -11.649  0.00  0.00    +0.081 C 
ATOM     29  C   UNL     1      38.000 -23.894 -10.830  0.00  0.00    +0.215 C 
ATOM     30  H   UNL     1      36.572 -25.830 -13.890  0.00  0.00    +0.148 HD
ENDBRANCH  23  25
ENDBRANCH  20  23
ENDBRANCH   4  19
TORSDOF 4
ENDMDL
MODEL 5
REMARK VINA RESULT:     -11.2      9.439     14.604
REMARK  Name = 25184541
REMARK  4 active torsions:
REMARK  status: ('A' for Active; 'I' for Inactive)
REMARK    1  A    between atoms: C_4  and  N_19
REMARK    2  A    between atoms: C_5  and  N_11
REMARK    3  A    between atoms: C_20  and  C_23
REMARK    4  A    between atoms: C_23  and  N_25
REMARK                            x       y       z     vdW  Elec       q    Type
REMARK                         _______ _______ _______ _____ _____    ______ ____
ROOT
ATOM      1  F   UNL     1      33.972  -8.201 -23.590  0.00  0.00    -0.200 F 
ATOM      2  F   UNL     1      34.759 -10.647 -24.470  0.00  0.00    -0.200 F 
ATOM      3  F   UNL     1      31.611 -12.703 -21.567  0.00  0.00    -0.203 F 
ATOM      4  C   UNL     1      32.387  -9.196 -22.128  0.00  0.00    +0.089 C 
ATOM      5  C   UNL     1      33.196 -11.708 -23.030  0.00  0.00    +0.110 C 
ATOM      6  C   UNL     1      33.390  -9.301 -23.090  0.00  0.00    +0.182 C 
ATOM      7  C   UNL     1      31.788 -10.347 -21.616  0.00  0.00    +0.048 C 
ATOM      8  C   UNL     1      33.795 -10.558 -23.542  0.00  0.00    +0.184 C 
ATOM      9  C   UNL     1      32.193 -11.603 -22.067  0.00  0.00    +0.157 C 
ENDROOT
BRANCH   5  11
ATOM     10  O   UNL     1      34.711 -16.680 -24.809  0.00  0.00    -0.291 OA
ATOM     11  N   UNL     1      33.610 -12.987 -23.487  0.00  0.00    -0.282 N 
ATOM     12  C   UNL     1      33.443 -13.284 -24.920  0.00  0.00    +0.104 C 
ATOM     13  C   UNL     1      33.271 -14.785 -25.151  0.00  0.00    +0.091 C 
ATOM     14  C   UNL     1      34.316 -13.884 -22.700  0.00  0.00    +0.068 C 
ATOM     15  C   UNL     1      34.293 -15.603 -24.389  0.00  0.00    +0.176 C 
ATOM     16  C   UNL     1      34.710 -15.111 -23.057  0.00  0.00    +0.054 C 
ENDBRANCH   5  11
BRANCH   4  19
ATOM     17  O   UNL     1      31.630  -6.098 -20.371  0.00  0.00    -0.434 OA
ATOM     18  O   UNL     1      32.785  -7.816 -19.446  0.00  0.00    -0.226 OA
ATOM     19  N   UNL     1      31.971  -7.915 -21.665  0.00  0.00    -0.219 N 
ATOM     20  C   UNL     1      31.206  -5.731 -21.691  0.00  0.00    +0.210 C 
ATOM     21  C   UNL     1      31.125  -7.045 -22.438  0.00  0.00    +0.147 C 
ATOM     22  C   UNL     1      32.204  -7.348 -20.415  0.00  0.00    +0.409 C 
BRANCH  20  23
ATOM     23  C   UNL     1      32.223  -4.765 -22.284  0.00  0.00    +0.134 C 
BRANCH  23  25
ATOM     24  O   UNL     1      34.771  -5.119 -25.751  0.00  0.00    -0.349 OA
ATOM     25  N   UNL     1      31.968  -4.587 -23.691  0.00  0.00    -0.312 N 
ATOM     26  N   UNL     1      34.210  -5.082 -24.481  0.00  0.00    -0.062 NA
ATOM     27  C   UNL     1      32.931  -4.747 -24.677  0.00  0.00    +0.171 C 
ATOM     28  C   UNL     1      32.631  -4.561 -26.036  0.00  0.00    +0.081 C 
ATOM     29  C   UNL     1      33.821  -4.807 -26.670  0.00  0.00    +0.215 C 
ATOM     30  H   UNL     1      31.057  -4.336 -23.969  0.00  0.00    +0.148 HD
ENDBRANCH  23  25
ENDBRANCH  20  23
ENDBRANCH   4  19
TORSDOF 4
ENDMDL
MODEL 6
REMARK VINA RESULT:     -11.2      9.744     14.489
REMARK  Name = 25184541
REMARK  4 active torsions:
REMARK  status: ('A' for Active; 'I' for Inactive)
REMARK    1  A    between atoms: C_4  and  N_19
REMARK    2  A    between atoms: C_5  and  N_11
REMARK    3  A    between atoms: C_20  and  C_23
REMARK    4  A    between atoms: C_23  and  N_25
REMARK                            x       y       z     vdW  Elec       q    Type
REMARK                         _______ _______ _______ _____ _____    ______ ____
ROOT
ATOM      1  F   UNL     1      30.935 -10.572 -20.492  0.00  0.00    -0.200 F 
ATOM      2  F   UNL     1      31.638 -13.062 -21.320  0.00  0.00    -0.200 F 
ATOM      3  F   UNL     1      34.614 -11.163 -24.498  0.00  0.00    -0.203 F 
ATOM      4  C   UNL     1      32.414  -9.590 -22.069  0.00  0.00    +0.089 C 
ATOM      5  C   UNL     1      33.135 -12.146 -22.921  0.00  0.00    +0.110 C 
ATOM      6  C   UNL     1      31.837 -10.712 -21.474  0.00  0.00    +0.182 C 
ATOM      7  C   UNL     1      33.352  -9.746 -23.090  0.00  0.00    +0.048 C 
ATOM      8  C   UNL     1      32.198 -11.990 -21.900  0.00  0.00    +0.184 C 
ATOM      9  C   UNL     1      33.712 -11.024 -23.515  0.00  0.00    +0.157 C 
ENDROOT
BRANCH   5  11
ATOM     10  O   UNL     1      34.634 -17.159 -24.595  0.00  0.00    -0.291 OA
ATOM     11  N   UNL     1      33.500 -13.447 -23.356  0.00  0.00    -0.282 N 
ATOM     12  C   UNL     1      34.023 -14.381 -22.344  0.00  0.00    +0.104 C 
ATOM     13  C   UNL     1      34.959 -15.408 -22.980  0.00  0.00    +0.091 C 
ATOM     14  C   UNL     1      33.223 -13.930 -24.627  0.00  0.00    +0.068 C 
ATOM     15  C   UNL     1      34.380 -16.009 -24.243  0.00  0.00    +0.176 C 
ATOM     16  C   UNL     1      33.563 -15.129 -25.109  0.00  0.00    +0.054 C 
ENDBRANCH   5  11
BRANCH   4  19
ATOM     17  O   UNL     1      31.730  -6.445 -20.367  0.00  0.00    -0.434 OA
ATOM     18  O   UNL     1      32.698  -8.232 -19.362  0.00  0.00    -0.226 OA
ATOM     19  N   UNL     1      32.048  -8.283 -21.636  0.00  0.00    -0.219 N 
ATOM     20  C   UNL     1      31.430  -6.055 -21.714  0.00  0.00    +0.210 C 
ATOM     21  C   UNL     1      31.320  -7.363 -22.468  0.00  0.00    +0.147 C 
ATOM     22  C   UNL     1      32.223  -7.730 -20.371  0.00  0.00    +0.409 C 
BRANCH  20  23
ATOM     23  C   UNL     1      32.549  -5.158 -22.227  0.00  0.00    +0.134 C 
BRANCH  23  25
ATOM     24  O   UNL     1      30.159  -1.822 -23.566  0.00  0.00    -0.349 OA
ATOM     25  N   UNL     1      32.224  -4.671 -23.543  0.00  0.00    -0.312 N 
ATOM     26  N   UNL     1      30.849  -2.794 -22.852  0.00  0.00    -0.062 NA
ATOM     27  C   UNL     1      31.425  -3.563 -23.781  0.00  0.00    +0.171 C 
ATOM     28  C   UNL     1      31.137  -3.128 -25.086  0.00  0.00    +0.081 C 
ATOM     29  C   UNL     1      30.338  -2.032 -24.896  0.00  0.00    +0.215 C 
ATOM     30  H   UNL     1      32.590  -5.155 -24.320  0.00  0.00    +0.148 HD
ENDBRANCH  23  25
ENDBRANCH  20  23
ENDBRANCH   4  19
TORSDOF 4
ENDMDL
MODEL 7
REMARK VINA RESULT:     -11.2      3.328      9.061
REMARK  Name = 25184541
REMARK  4 active torsions:
REMARK  status: ('A' for Active; 'I' for Inactive)
REMARK    1  A    between atoms: C_4  and  N_19
REMARK    2  A    between atoms: C_5  and  N_11
REMARK    3  A    between atoms: C_20  and  C_23
REMARK    4  A    between atoms: C_23  and  N_25
REMARK                            x       y       z     vdW  Elec       q    Type
REMARK                         _______ _______ _______ _____ _____    ______ ____
ROOT
ATOM      1  F   UNL     1      37.369 -20.975 -18.032  0.00  0.00    -0.200 F 
ATOM      2  F   UNL     1      37.871 -22.365 -15.753  0.00  0.00    -0.200 F 
ATOM      3  F   UNL     1      33.458 -24.119 -15.853  0.00  0.00    -0.203 F 
ATOM      4  C   UNL     1      35.157 -21.834 -18.113  0.00  0.00    +0.089 C 
ATOM      5  C   UNL     1      35.672 -23.260 -15.771  0.00  0.00    +0.110 C 
ATOM      6  C   UNL     1      36.407 -21.743 -17.501  0.00  0.00    +0.182 C 
ATOM      7  C   UNL     1      34.164 -22.638 -17.553  0.00  0.00    +0.048 C 
ATOM      8  C   UNL     1      36.664 -22.457 -16.331  0.00  0.00    +0.184 C 
ATOM      9  C   UNL     1      34.421 -23.350 -16.382  0.00  0.00    +0.157 C 
ENDROOT
BRANCH   5  11
ATOM     10  O   UNL     1      36.733 -25.995 -11.127  0.00  0.00    -0.291 OA
ATOM     11  N   UNL     1      35.932 -23.984 -14.578  0.00  0.00    -0.282 N 
ATOM     12  C   UNL     1      35.349 -23.466 -13.328  0.00  0.00    +0.104 C 
ATOM     13  C   UNL     1      36.194 -23.873 -12.122  0.00  0.00    +0.091 C 
ATOM     14  C   UNL     1      36.544 -25.228 -14.561  0.00  0.00    +0.068 C 
ATOM     15  C   UNL     1      36.573 -25.339 -12.154  0.00  0.00    +0.176 C 
ATOM     16  C   UNL     1      36.843 -25.948 -13.476  0.00  0.00    +0.054 C 
ENDBRANCH   5  11
BRANCH   4  19
ATOM     17  O   UNL     1      33.831 -20.032 -20.985  0.00  0.00    -0.434 OA
ATOM     18  O   UNL     1      32.535 -20.900 -19.339  0.00  0.00    -0.226 OA
ATOM     19  N   UNL     1      34.891 -21.107 -19.308  0.00  0.00    -0.219 N 
ATOM     20  C   UNL     1      35.230 -19.778 -21.172  0.00  0.00    +0.210 C 
ATOM     21  C   UNL     1      35.917 -20.771 -20.259  0.00  0.00    +0.147 C 
ATOM     22  C   UNL     1      33.652 -20.707 -19.799  0.00  0.00    +0.409 C 
BRANCH  20  23
ATOM     23  C   UNL     1      35.520 -18.328 -20.807  0.00  0.00    +0.134 C 
BRANCH  23  25
ATOM     24  O   UNL     1      34.394 -14.172 -21.124  0.00  0.00    -0.349 OA
ATOM     25  N   UNL     1      35.279 -17.478 -21.945  0.00  0.00    -0.312 N 
ATOM     26  N   UNL     1      34.744 -15.453 -20.717  0.00  0.00    -0.062 NA
ATOM     27  C   UNL     1      34.918 -16.142 -21.849  0.00  0.00    +0.171 C 
ATOM     28  C   UNL     1      34.694 -15.355 -22.991  0.00  0.00    +0.081 C 
ATOM     29  C   UNL     1      34.368 -14.126 -22.481  0.00  0.00    +0.215 C 
ATOM     30  H   UNL     1      35.374 -17.869 -22.844  0.00  0.00    +0.148 HD
ENDBRANCH  23  25
ENDBRANCH  20  23
ENDBRANCH   4  19
TORSDOF 4
ENDMDL
MODEL 8
REMARK VINA RESULT:     -11.0      9.882     14.676
REMARK  Name = 25184541
REMARK  4 active torsions:
REMARK  status: ('A' for Active; 'I' for Inactive)
REMARK    1  A    between atoms: C_4  and  N_19
REMARK    2  A    between atoms: C_5  and  N_11
REMARK    3  A    between atoms: C_20  and  C_23
REMARK    4  A    between atoms: C_23  and  N_25
REMARK                            x       y       z     vdW  Elec       q    Type
REMARK                         _______ _______ _______ _____ _____    ______ ____
ROOT
ATOM      1  F   UNL     1      33.935  -8.598 -23.662  0.00  0.00    -0.200 F 
ATOM      2  F   UNL     1      34.638 -11.085 -24.497  0.00  0.00    -0.200 F 
ATOM      3  F   UNL     1      31.606 -12.988 -21.374  0.00  0.00    -0.203 F 
ATOM      4  C   UNL     1      32.410  -9.515 -22.090  0.00  0.00    +0.089 C 
ATOM      5  C   UNL     1      33.132 -12.070 -22.946  0.00  0.00    +0.110 C 
ATOM      6  C   UNL     1      33.362  -9.670 -23.098  0.00  0.00    +0.182 C 
ATOM      7  C   UNL     1      31.819 -10.638 -21.511  0.00  0.00    +0.048 C 
ATOM      8  C   UNL     1      33.723 -10.948 -23.526  0.00  0.00    +0.184 C 
ATOM      9  C   UNL     1      32.180 -11.915 -21.939  0.00  0.00    +0.157 C 
ENDROOT
BRANCH   5  11
ATOM     10  O   UNL     1      34.648 -17.082 -24.609  0.00  0.00    -0.291 OA
ATOM     11  N   UNL     1      33.502 -13.371 -23.379  0.00  0.00    -0.282 N 
ATOM     12  C   UNL     1      34.010 -14.307 -22.361  0.00  0.00    +0.104 C 
ATOM     13  C   UNL     1      34.954 -15.334 -22.986  0.00  0.00    +0.091 C 
ATOM     14  C   UNL     1      33.242 -13.850 -24.654  0.00  0.00    +0.068 C 
ATOM     15  C   UNL     1      34.391 -15.932 -24.259  0.00  0.00    +0.176 C 
ATOM     16  C   UNL     1      33.587 -15.049 -25.134  0.00  0.00    +0.054 C 
ENDBRANCH   5  11
BRANCH   4  19
ATOM     17  O   UNL     1      31.704  -6.384 -20.372  0.00  0.00    -0.434 OA
ATOM     18  O   UNL     1      32.663  -8.178 -19.370  0.00  0.00    -0.226 OA
ATOM     19  N   UNL     1      32.038  -8.213 -21.652  0.00  0.00    -0.219 N 
ATOM     20  C   UNL     1      31.418  -5.984 -21.719  0.00  0.00    +0.210 C 
ATOM     21  C   UNL     1      31.319  -7.286 -22.485  0.00  0.00    +0.147 C 
ATOM     22  C   UNL     1      32.199  -7.669 -20.380  0.00  0.00    +0.409 C 
BRANCH  20  23
ATOM     23  C   UNL     1      32.543  -5.083 -22.213  0.00  0.00    +0.134 C 
BRANCH  23  25
ATOM     24  O   UNL     1      30.125  -1.786 -23.600  0.00  0.00    -0.349 OA
ATOM     25  N   UNL     1      32.239  -4.598 -23.536  0.00  0.00    -0.312 N 
ATOM     26  N   UNL     1      30.816  -2.747 -22.872  0.00  0.00    -0.062 NA
ATOM     27  C   UNL     1      31.426  -3.503 -23.789  0.00  0.00    +0.171 C 
ATOM     28  C   UNL     1      31.160  -3.071 -25.099  0.00  0.00    +0.081 C 
ATOM     29  C   UNL     1      30.338  -1.989 -24.926  0.00  0.00    +0.215 C 
ATOM     30  H   UNL     1      32.630  -5.074 -24.305  0.00  0.00    +0.148 HD
ENDBRANCH  23  25
ENDBRANCH  20  23
ENDBRANCH   4  19
TORSDOF 4
ENDMDL
MODEL 9
REMARK VINA RESULT:     -10.7      7.771     11.694
REMARK  Name = 25184541
REMARK  4 active torsions:
REMARK  status: ('A' for Active; 'I' for Inactive)
REMARK    1  A    between atoms: C_4  and  N_19
REMARK    2  A    between atoms: C_5  and  N_11
REMARK    3  A    between atoms: C_20  and  C_23
REMARK    4  A    between atoms: C_23  and  N_25
REMARK                            x       y       z     vdW  Elec       q    Type
REMARK                         _______ _______ _______ _____ _____    ______ ____
ROOT
ATOM      1  F   UNL     1      34.928 -11.174 -24.868  0.00  0.00    -0.200 F 
ATOM      2  F   UNL     1      34.605  -8.507 -24.472  0.00  0.00    -0.200 F 
ATOM      3  F   UNL     1      30.916  -9.379 -21.610  0.00  0.00    -0.203 F 
ATOM      4  C   UNL     1      33.088 -11.646 -23.443  0.00  0.00    +0.089 C 
ATOM      5  C   UNL     1      32.756  -8.907 -23.037  0.00  0.00    +0.110 C 
ATOM      6  C   UNL     1      33.943 -10.740 -24.070  0.00  0.00    +0.182 C 
ATOM      7  C   UNL     1      32.068 -11.183 -22.612  0.00  0.00    +0.048 C 
ATOM      8  C   UNL     1      33.777  -9.369 -23.866  0.00  0.00    +0.184 C 
ATOM      9  C   UNL     1      31.902  -9.814 -22.410  0.00  0.00    +0.157 C 
ENDROOT
BRANCH   5  11
ATOM     10  O   UNL     1      32.036  -3.529 -22.178  0.00  0.00    -0.291 OA
ATOM     11  N   UNL     1      32.585  -7.512 -22.832  0.00  0.00    -0.282 N 
ATOM     12  C   UNL     1      33.172  -6.927 -21.614  0.00  0.00    +0.104 C 
ATOM     13  C   UNL     1      32.397  -5.685 -21.176  0.00  0.00    +0.091 C 
ATOM     14  C   UNL     1      32.059  -6.661 -23.793  0.00  0.00    +0.068 C 
ATOM     15  C   UNL     1      32.118  -4.745 -22.331  0.00  0.00    +0.176 C 
ATOM     16  C   UNL     1      31.846  -5.349 -23.655  0.00  0.00    +0.054 C 
ENDBRANCH   5  11
BRANCH   4  19
ATOM     17  O   UNL     1      33.430 -15.075 -24.619  0.00  0.00    -0.434 OA
ATOM     18  O   UNL     1      33.049 -13.309 -25.990  0.00  0.00    -0.226 OA
ATOM     19  N   UNL     1      33.256 -13.046 -23.647  0.00  0.00    -0.219 N 
ATOM     20  C   UNL     1      33.819 -15.255 -23.250  0.00  0.00    +0.210 C 
ATOM     21  C   UNL     1      33.370 -13.983 -22.562  0.00  0.00    +0.147 C 
ATOM     22  C   UNL     1      33.234 -13.734 -24.857  0.00  0.00    +0.409 C 
BRANCH  20  23
ATOM     23  C   UNL     1      35.326 -15.469 -23.191  0.00  0.00    +0.134 C 
BRANCH  23  25
ATOM     24  O   UNL     1      35.587 -18.560 -20.188  0.00  0.00    -0.349 OA
ATOM     25  N   UNL     1      35.626 -16.875 -23.278  0.00  0.00    -0.312 N 
ATOM     26  N   UNL     1      35.436 -17.383 -20.912  0.00  0.00    -0.062 NA
ATOM     27  C   UNL     1      35.664 -17.726 -22.183  0.00  0.00    +0.171 C 
ATOM     28  C   UNL     1      35.963 -19.092 -22.321  0.00  0.00    +0.081 C 
ATOM     29  C   UNL     1      35.901 -19.571 -21.040  0.00  0.00    +0.215 C 
ATOM     30  H   UNL     1      35.815 -17.255 -24.167  0.00  0.00    +0.148 HD
ENDBRANCH  23  25
ENDBRANCH  20  23
ENDBRANCH   4  19
TORSDOF 4
ENDMDL
