MODEL 1
REMARK VINA RESULT:     -12.0      0.000      0.000
REMARK  Name = 51049992
REMARK  10 active torsions:
REMARK  status: ('A' for Active; 'I' for Inactive)
REMARK    1  A    between atoms: C_1  and  C_7
REMARK    2  A    between atoms: C_6  and  C_23
REMARK    3  A    between atoms: C_7  and  N_8
REMARK    4  A    between atoms: C_23  and  O_24
REMARK    5  A    between atoms: O_24  and  C_25
REMARK    6  A    between atoms: C_26  and  C_31
REMARK    7  A    between atoms: C_31  and  C_32
REMARK    8  A    between atoms: C_31  and  C_35
REMARK    9  A    between atoms: C_35  and  C_37
REMARK   10  A    between atoms: C_37  and  O_38
REMARK                            x       y       z     vdW  Elec       q    Type
REMARK                         _______ _______ _______ _____ _____    ______ ____
ROOT
ATOM      1  C   UNL     1      34.051 -14.550 -23.182  0.00  0.00    -0.043 C 
ATOM      2  C   UNL     1      34.202 -14.448 -21.799  0.00  0.00    -0.007 C 
ATOM      3  C   UNL     1      34.424 -15.724 -23.838  0.00  0.00    -0.007 C 
ATOM      4  C   UNL     1      34.726 -15.517 -21.073  0.00  0.00    -0.001 C 
ATOM      5  C   UNL     1      34.948 -16.793 -23.112  0.00  0.00    -0.001 C 
ATOM      6  C   UNL     1      35.099 -16.690 -21.730  0.00  0.00    +0.021 C 
ENDROOT
BRANCH   1   7
ATOM      7  C   UNL     1      33.485 -13.396 -23.965  0.00  0.00    -0.050 C 
BRANCH   7   8
ATOM      8  N   UNL     1      33.355 -12.193 -23.143  0.00  0.00    +0.390 N 
ATOM      9  C   UNL     1      32.412  -9.479 -22.483  0.00  0.00    +0.033 C 
ATOM     10  C   UNL     1      31.803 -10.749 -21.862  0.00  0.00    -0.015 C 
ATOM     11  C   UNL     1      33.842  -9.770 -22.974  0.00  0.00    -0.015 C 
ATOM     12  C   UNL     1      33.912 -11.029 -23.845  0.00  0.00    -0.076 C 
ATOM     13  C   UNL     1      31.950 -11.971 -22.776  0.00  0.00    -0.076 C 
ATOM     14  C   UNL     1      32.374  -8.310 -21.521  0.00  0.00    -0.019 C 
ATOM     15  C   UNL     1      31.535  -8.925 -23.605  0.00  0.00    -0.023 C 
ATOM     16  C   UNL     1      31.588  -7.280 -22.060  0.00  0.00    -0.004 C 
ATOM     17  C   UNL     1      31.079  -7.688 -23.355  0.00  0.00    -0.005 C 
ATOM     18  C   UNL     1      32.978  -8.166 -20.282  0.00  0.00    -0.004 C 
ATOM     19  C   UNL     1      31.390  -6.092 -21.376  0.00  0.00    -0.000 C 
ATOM     20  C   UNL     1      32.785  -6.971 -19.584  0.00  0.00    -0.000 C 
ATOM     21  C   UNL     1      31.997  -5.943 -20.126  0.00  0.00    -0.000 C 
ATOM     22  H   UNL     1      33.886 -12.323 -22.283  0.00  0.00    -0.079 HD
ENDBRANCH   7   8
ENDBRANCH   1   7
BRANCH   6  23
ATOM     23  C   UNL     1      35.656 -17.834 -20.953  0.00  0.00    +0.232 C 
BRANCH  23  24
ATOM     24  O   UNL     1      35.115 -19.052 -21.452  0.00  0.00    -0.471 OA
BRANCH  24  25
ATOM     25  C   UNL     1      34.716 -19.976 -20.524  0.00  0.00    +0.139 C 
ATOM     26  C   UNL     1      33.902 -21.857 -18.630  0.00  0.00    -0.010 C 
ATOM     27  C   UNL     1      33.357 -20.200 -20.301  0.00  0.00    +0.037 C 
ATOM     28  C   UNL     1      35.668 -20.694 -19.799  0.00  0.00    +0.037 C 
ATOM     29  C   UNL     1      32.950 -21.140 -19.355  0.00  0.00    -0.000 C 
ATOM     30  C   UNL     1      35.261 -21.633 -18.852  0.00  0.00    -0.000 C 
BRANCH  26  31
ATOM     31  C   UNL     1      33.468 -22.863 -17.618  0.00  0.00    +0.097 C 
BRANCH  31  32
ATOM     32  C   UNL     1      34.466 -23.005 -16.522  0.00  0.00    -0.087 C 
ATOM     33  C   UNL     1      35.277 -23.103 -15.640  0.00  0.00    -0.090 C 
ATOM     34  C   UNL     1      36.265 -23.223 -14.570  0.00  0.00    +0.090 C 
ENDBRANCH  31  32
BRANCH  31  35
ATOM     35  C   UNL     1      32.070 -22.538 -17.025  0.00  0.00    +0.127 C 
BRANCH  35  37
ATOM     36  O   UNL     1      32.025 -22.784 -14.598  0.00  0.00    -0.250 OA
ATOM     37  C   UNL     1      31.778 -23.231 -15.709  0.00  0.00    +0.315 C 
BRANCH  37  38
ATOM     38  O   UNL     1      31.181 -24.436 -15.907  0.00  0.00    -0.480 OA
ATOM     39  H   UNL     1      31.298 -25.125 -15.284  0.00  0.00    +0.295 HD
ENDBRANCH  37  38
ENDBRANCH  35  37
ENDBRANCH  31  35
ENDBRANCH  26  31
ENDBRANCH  24  25
ENDBRANCH  23  24
ENDBRANCH   6  23
TORSDOF 10
ENDMDL
MODEL 2
REMARK VINA RESULT:     -11.8      1.988      2.950
REMARK  Name = 51049992
REMARK  10 active torsions:
REMARK  status: ('A' for Active; 'I' for Inactive)
REMARK    1  A    between atoms: C_1  and  C_7
REMARK    2  A    between atoms: C_6  and  C_23
REMARK    3  A    between atoms: C_7  and  N_8
REMARK    4  A    between atoms: C_23  and  O_24
REMARK    5  A    between atoms: O_24  and  C_25
REMARK    6  A    between atoms: C_26  and  C_31
REMARK    7  A    between atoms: C_31  and  C_32
REMARK    8  A    between atoms: C_31  and  C_35
REMARK    9  A    between atoms: C_35  and  C_37
REMARK   10  A    between atoms: C_37  and  O_38
REMARK                            x       y       z     vdW  Elec       q    Type
REMARK                         _______ _______ _______ _____ _____    ______ ____
ROOT
ATOM      1  C   UNL     1      33.072 -13.387 -21.896  0.00  0.00    -0.043 C 
ATOM      2  C   UNL     1      32.974 -13.719 -23.248  0.00  0.00    -0.007 C 
ATOM      3  C   UNL     1      33.856 -14.164 -21.043  0.00  0.00    -0.007 C 
ATOM      4  C   UNL     1      33.659 -14.828 -23.745  0.00  0.00    -0.001 C 
ATOM      5  C   UNL     1      34.540 -15.272 -21.540  0.00  0.00    -0.001 C 
ATOM      6  C   UNL     1      34.442 -15.604 -22.891  0.00  0.00    +0.021 C 
ENDROOT
BRANCH   1   7
ATOM      7  C   UNL     1      32.333 -12.190 -21.361  0.00  0.00    -0.050 C 
BRANCH   7   8
ATOM      8  N   UNL     1      32.832 -10.940 -21.935  0.00  0.00    +0.390 N 
ATOM      9  C   UNL     1      32.615  -8.322 -23.272  0.00  0.00    +0.033 C 
ATOM     10  C   UNL     1      32.846  -8.470 -21.757  0.00  0.00    -0.015 C 
ATOM     11  C   UNL     1      33.083  -9.596 -23.999  0.00  0.00    -0.015 C 
ATOM     12  C   UNL     1      32.512 -10.869 -23.367  0.00  0.00    -0.076 C 
ATOM     13  C   UNL     1      32.284  -9.787 -21.209  0.00  0.00    -0.076 C 
ATOM     14  C   UNL     1      33.283  -7.080 -23.824  0.00  0.00    -0.019 C 
ATOM     15  C   UNL     1      31.155  -7.999 -23.590  0.00  0.00    -0.023 C 
ATOM     16  C   UNL     1      32.313  -6.220 -24.360  0.00  0.00    -0.004 C 
ATOM     17  C   UNL     1      31.000  -6.814 -24.201  0.00  0.00    -0.005 C 
ATOM     18  C   UNL     1      34.626  -6.739 -23.852  0.00  0.00    -0.004 C 
ATOM     19  C   UNL     1      32.663  -5.008 -24.932  0.00  0.00    -0.000 C 
ATOM     20  C   UNL     1      34.989  -5.518 -24.426  0.00  0.00    -0.000 C 
ATOM     21  C   UNL     1      34.015  -4.660 -24.962  0.00  0.00    -0.000 C 
ATOM     22  H   UNL     1      33.846 -10.917 -21.839  0.00  0.00    -0.079 HD
ENDBRANCH   7   8
ENDBRANCH   1   7
BRANCH   6  23
ATOM     23  C   UNL     1      35.177 -16.788 -23.423  0.00  0.00    +0.232 C 
BRANCH  23  24
ATOM     24  O   UNL     1      36.211 -17.150 -22.515  0.00  0.00    -0.471 OA
BRANCH  24  25
ATOM     25  C   UNL     1      35.988 -18.253 -21.734  0.00  0.00    +0.139 C 
ATOM     26  C   UNL     1      35.536 -20.502 -20.147  0.00  0.00    -0.010 C 
ATOM     27  C   UNL     1      36.970 -18.688 -20.844  0.00  0.00    +0.037 C 
ATOM     28  C   UNL     1      34.780 -18.944 -21.830  0.00  0.00    +0.037 C 
ATOM     29  C   UNL     1      36.744 -19.813 -20.050  0.00  0.00    -0.000 C 
ATOM     30  C   UNL     1      34.554 -20.069 -21.037  0.00  0.00    -0.000 C 
BRANCH  26  31
ATOM     31  C   UNL     1      35.294 -21.705 -19.298  0.00  0.00    +0.097 C 
BRANCH  31  32
ATOM     32  C   UNL     1      36.212 -21.746 -18.127  0.00  0.00    -0.087 C 
ATOM     33  C   UNL     1      36.952 -21.796 -17.181  0.00  0.00    -0.090 C 
ATOM     34  C   UNL     1      37.848 -21.858 -16.029  0.00  0.00    +0.090 C 
ENDBRANCH  31  32
BRANCH  31  35
ATOM     35  C   UNL     1      33.819 -21.802 -18.821  0.00  0.00    +0.127 C 
BRANCH  35  37
ATOM     36  O   UNL     1      32.757 -23.408 -17.320  0.00  0.00    -0.250 OA
ATOM     37  C   UNL     1      33.418 -23.177 -18.323  0.00  0.00    +0.315 C 
BRANCH  37  38
ATOM     38  O   UNL     1      33.876 -24.154 -19.149  0.00  0.00    -0.480 OA
ATOM     39  H   UNL     1      33.357 -24.917 -19.306  0.00  0.00    +0.295 HD
ENDBRANCH  37  38
ENDBRANCH  35  37
ENDBRANCH  31  35
ENDBRANCH  26  31
ENDBRANCH  24  25
ENDBRANCH  23  24
ENDBRANCH   6  23
TORSDOF 10
ENDMDL
MODEL 3
REMARK VINA RESULT:     -11.8      4.968     13.773
REMARK  Name = 51049992
REMARK  10 active torsions:
REMARK  status: ('A' for Active; 'I' for Inactive)
REMARK    1  A    between atoms: C_1  and  C_7
REMARK    2  A    between atoms: C_6  and  C_23
REMARK    3  A    between atoms: C_7  and  N_8
REMARK    4  A    between atoms: C_23  and  O_24
REMARK    5  A    between atoms: O_24  and  C_25
REMARK    6  A    between atoms: C_26  and  C_31
REMARK    7  A    between atoms: C_31  and  C_32
REMARK    8  A    between atoms: C_31  and  C_35
REMARK    9  A    between atoms: C_35  and  C_37
REMARK   10  A    between atoms: C_37  and  O_38
REMARK                            x       y       z     vdW  Elec       q    Type
REMARK                         _______ _______ _______ _____ _____    ______ ____
ROOT
ATOM      1  C   UNL     1      33.811 -13.636 -23.241  0.00  0.00    -0.043 C 
ATOM      2  C   UNL     1      33.834 -12.402 -23.893  0.00  0.00    -0.007 C 
ATOM      3  C   UNL     1      33.031 -13.804 -22.096  0.00  0.00    -0.007 C 
ATOM      4  C   UNL     1      33.079 -11.339 -23.401  0.00  0.00    -0.001 C 
ATOM      5  C   UNL     1      32.275 -12.740 -21.604  0.00  0.00    -0.001 C 
ATOM      6  C   UNL     1      32.299 -11.507 -22.256  0.00  0.00    +0.021 C 
ENDROOT
BRANCH   1   7
ATOM      7  C   UNL     1      34.626 -14.783 -23.772  0.00  0.00    -0.050 C 
BRANCH   7   8
ATOM      8  N   UNL     1      34.455 -15.992 -22.966  0.00  0.00    +0.390 N 
ATOM      9  C   UNL     1      35.344 -18.347 -21.432  0.00  0.00    +0.033 C 
ATOM     10  C   UNL     1      34.845 -17.054 -20.763  0.00  0.00    -0.015 C 
ATOM     11  C   UNL     1      34.786 -18.445 -22.864  0.00  0.00    -0.015 C 
ATOM     12  C   UNL     1      35.013 -17.158 -23.665  0.00  0.00    -0.076 C 
ATOM     13  C   UNL     1      35.070 -15.820 -21.644  0.00  0.00    -0.076 C 
ATOM     14  C   UNL     1      35.003 -19.573 -20.611  0.00  0.00    -0.019 C 
ATOM     15  C   UNL     1      36.870 -18.436 -21.417  0.00  0.00    -0.023 C 
ATOM     16  C   UNL     1      36.184 -20.221 -20.217  0.00  0.00    -0.004 C 
ATOM     17  C   UNL     1      37.328 -19.494 -20.731  0.00  0.00    -0.005 C 
ATOM     18  C   UNL     1      33.764 -20.073 -20.243  0.00  0.00    -0.004 C 
ATOM     19  C   UNL     1      36.151 -21.375 -19.451  0.00  0.00    -0.000 C 
ATOM     20  C   UNL     1      33.720 -21.237 -19.471  0.00  0.00    -0.000 C 
ATOM     21  C   UNL     1      34.903 -21.882 -19.079  0.00  0.00    -0.000 C 
ATOM     22  H   UNL     1      33.459 -16.157 -22.829  0.00  0.00    -0.079 HD
ENDBRANCH   7   8
ENDBRANCH   1   7
BRANCH   6  23
ATOM     23  C   UNL     1      31.488 -10.371 -21.732  0.00  0.00    +0.232 C 
BRANCH  23  24
ATOM     24  O   UNL     1      32.355  -9.388 -21.177  0.00  0.00    -0.471 OA
BRANCH  24  25
ATOM     25  C   UNL     1      32.501  -8.224 -21.884  0.00  0.00    +0.139 C 
ATOM     26  C   UNL     1      32.797  -5.854 -23.326  0.00  0.00    -0.010 C 
ATOM     27  C   UNL     1      31.375  -7.548 -22.354  0.00  0.00    +0.037 C 
ATOM     28  C   UNL     1      33.775  -7.715 -22.135  0.00  0.00    +0.037 C 
ATOM     29  C   UNL     1      31.523  -6.363 -23.075  0.00  0.00    -0.000 C 
ATOM     30  C   UNL     1      33.923  -6.530 -22.857  0.00  0.00    -0.000 C 
BRANCH  26  31
ATOM     31  C   UNL     1      32.956  -4.587 -24.097  0.00  0.00    +0.097 C 
BRANCH  31  32
ATOM     32  C   UNL     1      34.056  -4.686 -25.095  0.00  0.00    -0.087 C 
ATOM     33  C   UNL     1      34.942  -4.749 -25.906  0.00  0.00    -0.090 C 
ATOM     34  C   UNL     1      36.016  -4.826 -26.894  0.00  0.00    +0.090 C 
ENDBRANCH  31  32
BRANCH  31  35
ATOM     35  C   UNL     1      31.640  -4.153 -24.797  0.00  0.00    +0.127 C 
BRANCH  35  37
ATOM     36  O   UNL     1      30.076  -2.281 -24.729  0.00  0.00    -0.250 OA
ATOM     37  C   UNL     1      31.106  -2.811 -24.337  0.00  0.00    +0.315 C 
BRANCH  37  38
ATOM     38  O   UNL     1      31.917  -2.251 -23.401  0.00  0.00    -0.480 OA
ATOM     39  H   UNL     1      32.781  -1.975 -23.634  0.00  0.00    +0.295 HD
ENDBRANCH  37  38
ENDBRANCH  35  37
ENDBRANCH  31  35
ENDBRANCH  26  31
ENDBRANCH  24  25
ENDBRANCH  23  24
ENDBRANCH   6  23
TORSDOF 10
ENDMDL
MODEL 4
REMARK VINA RESULT:     -11.7      2.241      4.238
REMARK  Name = 51049992
REMARK  10 active torsions:
REMARK  status: ('A' for Active; 'I' for Inactive)
REMARK    1  A    between atoms: C_1  and  C_7
REMARK    2  A    between atoms: C_6  and  C_23
REMARK    3  A    between atoms: C_7  and  N_8
REMARK    4  A    between atoms: C_23  and  O_24
REMARK    5  A    between atoms: O_24  and  C_25
REMARK    6  A    between atoms: C_26  and  C_31
REMARK    7  A    between atoms: C_31  and  C_32
REMARK    8  A    between atoms: C_31  and  C_35
REMARK    9  A    between atoms: C_35  and  C_37
REMARK   10  A    between atoms: C_37  and  O_38
REMARK                            x       y       z     vdW  Elec       q    Type
REMARK                         _______ _______ _______ _____ _____    ______ ____
ROOT
ATOM      1  C   UNL     1      35.252 -18.165 -22.676  0.00  0.00    -0.043 C 
ATOM      2  C   UNL     1      36.486 -18.127 -22.026  0.00  0.00    -0.007 C 
ATOM      3  C   UNL     1      34.290 -19.099 -22.289  0.00  0.00    -0.007 C 
ATOM      4  C   UNL     1      36.757 -19.020 -20.990  0.00  0.00    -0.001 C 
ATOM      5  C   UNL     1      34.561 -19.992 -21.253  0.00  0.00    -0.001 C 
ATOM      6  C   UNL     1      35.794 -19.953 -20.603  0.00  0.00    +0.021 C 
ENDROOT
BRANCH   1   7
ATOM      7  C   UNL     1      34.961 -17.201 -23.794  0.00  0.00    -0.050 C 
BRANCH   7   8
ATOM      8  N   UNL     1      34.207 -16.038 -23.327  0.00  0.00    +0.390 N 
ATOM      9  C   UNL     1      33.523 -13.176 -23.142  0.00  0.00    +0.033 C 
ATOM     10  C   UNL     1      32.705 -14.178 -23.976  0.00  0.00    -0.015 C 
ATOM     11  C   UNL     1      34.301 -13.922 -22.043  0.00  0.00    -0.015 C 
ATOM     12  C   UNL     1      35.087 -15.117 -22.595  0.00  0.00    -0.076 C 
ATOM     13  C   UNL     1      33.551 -15.364 -24.455  0.00  0.00    -0.076 C 
ATOM     14  C   UNL     1      32.652 -12.078 -22.568  0.00  0.00    -0.019 C 
ATOM     15  C   UNL     1      34.455 -12.342 -24.021  0.00  0.00    -0.023 C 
ATOM     16  C   UNL     1      33.066 -10.835 -23.073  0.00  0.00    -0.004 C 
ATOM     17  C   UNL     1      34.186 -11.028 -23.972  0.00  0.00    -0.005 C 
ATOM     18  C   UNL     1      31.591 -12.166 -21.682  0.00  0.00    -0.004 C 
ATOM     19  C   UNL     1      32.430  -9.661 -22.704  0.00  0.00    -0.000 C 
ATOM     20  C   UNL     1      30.943 -10.987 -21.304  0.00  0.00    -0.000 C 
ATOM     21  C   UNL     1      31.359  -9.745 -21.810  0.00  0.00    -0.000 C 
ATOM     22  H   UNL     1      33.480 -16.353 -22.685  0.00  0.00    -0.079 HD
ENDBRANCH   7   8
ENDBRANCH   1   7
BRANCH   6  23
ATOM     23  C   UNL     1      36.082 -20.906 -19.493  0.00  0.00    +0.232 C 
BRANCH  23  24
ATOM     24  O   UNL     1      35.054 -21.887 -19.434  0.00  0.00    -0.471 OA
BRANCH  24  25
ATOM     25  C   UNL     1      34.673 -22.307 -18.187  0.00  0.00    +0.139 C 
ATOM     26  C   UNL     1      33.898 -23.166 -15.648  0.00  0.00    -0.010 C 
ATOM     27  C   UNL     1      35.612 -22.379 -17.157  0.00  0.00    +0.037 C 
ATOM     28  C   UNL     1      33.347 -22.666 -17.947  0.00  0.00    +0.037 C 
ATOM     29  C   UNL     1      35.224 -22.807 -15.888  0.00  0.00    -0.000 C 
ATOM     30  C   UNL     1      32.959 -23.096 -16.677  0.00  0.00    -0.000 C 
BRANCH  26  31
ATOM     31  C   UNL     1      33.483 -23.625 -14.291  0.00  0.00    +0.097 C 
BRANCH  31  32
ATOM     32  C   UNL     1      32.096 -24.167 -14.295  0.00  0.00    -0.087 C 
ATOM     33  C   UNL     1      30.982 -24.617 -14.287  0.00  0.00    -0.090 C 
ATOM     34  C   UNL     1      29.628 -25.167 -14.279  0.00  0.00    +0.090 C 
ENDBRANCH  31  32
BRANCH  31  35
ATOM     35  C   UNL     1      34.462 -24.674 -13.697  0.00  0.00    +0.127 C 
BRANCH  35  37
ATOM     36  O   UNL     1      34.736 -24.924 -11.285  0.00  0.00    -0.250 OA
ATOM     37  C   UNL     1      34.988 -24.322 -12.320  0.00  0.00    +0.315 C 
BRANCH  37  38
ATOM     38  O   UNL     1      35.806 -23.238 -12.366  0.00  0.00    -0.480 OA
ATOM     39  H   UNL     1      35.778 -22.600 -11.681  0.00  0.00    +0.295 HD
ENDBRANCH  37  38
ENDBRANCH  35  37
ENDBRANCH  31  35
ENDBRANCH  26  31
ENDBRANCH  24  25
ENDBRANCH  23  24
ENDBRANCH   6  23
TORSDOF 10
ENDMDL
MODEL 5
REMARK VINA RESULT:     -11.6      2.000      3.808
REMARK  Name = 51049992
REMARK  10 active torsions:
REMARK  status: ('A' for Active; 'I' for Inactive)
REMARK    1  A    between atoms: C_1  and  C_7
REMARK    2  A    between atoms: C_6  and  C_23
REMARK    3  A    between atoms: C_7  and  N_8
REMARK    4  A    between atoms: C_23  and  O_24
REMARK    5  A    between atoms: O_24  and  C_25
REMARK    6  A    between atoms: C_26  and  C_31
REMARK    7  A    between atoms: C_31  and  C_32
REMARK    8  A    between atoms: C_31  and  C_35
REMARK    9  A    between atoms: C_35  and  C_37
REMARK   10  A    between atoms: C_37  and  O_38
REMARK                            x       y       z     vdW  Elec       q    Type
REMARK                         _______ _______ _______ _____ _____    ______ ____
ROOT
ATOM      1  C   UNL     1      35.246 -18.104 -22.715  0.00  0.00    -0.043 C 
ATOM      2  C   UNL     1      36.443 -18.035 -22.002  0.00  0.00    -0.007 C 
ATOM      3  C   UNL     1      34.306 -19.087 -22.405  0.00  0.00    -0.007 C 
ATOM      4  C   UNL     1      36.700 -18.949 -20.980  0.00  0.00    -0.001 C 
ATOM      5  C   UNL     1      34.562 -20.000 -21.383  0.00  0.00    -0.001 C 
ATOM      6  C   UNL     1      35.759 -19.931 -20.671  0.00  0.00    +0.021 C 
ENDROOT
BRANCH   1   7
ATOM      7  C   UNL     1      34.970 -17.118 -23.818  0.00  0.00    -0.050 C 
BRANCH   7   8
ATOM      8  N   UNL     1      34.216 -15.959 -23.337  0.00  0.00    +0.390 N 
ATOM      9  C   UNL     1      33.509 -13.104 -23.146  0.00  0.00    +0.033 C 
ATOM     10  C   UNL     1      32.680 -14.118 -23.955  0.00  0.00    -0.015 C 
ATOM     11  C   UNL     1      34.321 -13.838 -22.063  0.00  0.00    -0.015 C 
ATOM     12  C   UNL     1      35.104 -15.027 -22.630  0.00  0.00    -0.076 C 
ATOM     13  C   UNL     1      33.526 -15.296 -24.451  0.00  0.00    -0.076 C 
ATOM     14  C   UNL     1      32.641 -12.012 -22.555  0.00  0.00    -0.019 C 
ATOM     15  C   UNL     1      34.410 -12.264 -24.050  0.00  0.00    -0.023 C 
ATOM     16  C   UNL     1      33.029 -10.768 -23.074  0.00  0.00    -0.004 C 
ATOM     17  C   UNL     1      34.129 -10.953 -24.000  0.00  0.00    -0.005 C 
ATOM     18  C   UNL     1      31.602 -12.107 -21.643  0.00  0.00    -0.004 C 
ATOM     19  C   UNL     1      32.391  -9.598 -22.694  0.00  0.00    -0.000 C 
ATOM     20  C   UNL     1      30.953 -10.933 -21.253  0.00  0.00    -0.000 C 
ATOM     21  C   UNL     1      31.343  -9.689 -21.774  0.00  0.00    -0.000 C 
ATOM     22  H   UNL     1      33.509 -16.279 -22.676  0.00  0.00    -0.079 HD
ENDBRANCH   7   8
ENDBRANCH   1   7
BRANCH   6  23
ATOM     23  C   UNL     1      36.032 -20.906 -19.576  0.00  0.00    +0.232 C 
BRANCH  23  24
ATOM     24  O   UNL     1      34.919 -21.782 -19.434  0.00  0.00    -0.471 OA
BRANCH  24  25
ATOM     25  C   UNL     1      34.696 -22.300 -18.186  0.00  0.00    +0.139 C 
ATOM     26  C   UNL     1      34.243 -23.358 -15.645  0.00  0.00    -0.010 C 
ATOM     27  C   UNL     1      35.728 -22.329 -17.248  0.00  0.00    +0.037 C 
ATOM     28  C   UNL     1      33.438 -22.801 -17.853  0.00  0.00    +0.037 C 
ATOM     29  C   UNL     1      35.502 -22.858 -15.977  0.00  0.00    -0.000 C 
ATOM     30  C   UNL     1      33.211 -23.330 -16.582  0.00  0.00    -0.000 C 
BRANCH  26  31
ATOM     31  C   UNL     1      34.000 -23.924 -14.286  0.00  0.00    +0.097 C 
BRANCH  31  32
ATOM     32  C   UNL     1      35.153 -23.682 -13.376  0.00  0.00    -0.087 C 
ATOM     33  C   UNL     1      36.085 -23.505 -12.638  0.00  0.00    -0.090 C 
ATOM     34  C   UNL     1      37.217 -23.290 -11.738  0.00  0.00    +0.090 C 
ENDBRANCH  31  32
BRANCH  31  35
ATOM     35  C   UNL     1      32.695 -23.379 -13.645  0.00  0.00    +0.127 C 
BRANCH  35  37
ATOM     36  O   UNL     1      30.820 -24.261 -12.355  0.00  0.00    -0.250 OA
ATOM     37  C   UNL     1      31.787 -24.453 -13.078  0.00  0.00    +0.315 C 
BRANCH  37  38
ATOM     38  O   UNL     1      32.173 -25.691 -13.485  0.00  0.00    -0.480 OA
ATOM     39  H   UNL     1      32.886 -25.786 -14.084  0.00  0.00    +0.295 HD
ENDBRANCH  37  38
ENDBRANCH  35  37
ENDBRANCH  31  35
ENDBRANCH  26  31
ENDBRANCH  24  25
ENDBRANCH  23  24
ENDBRANCH   6  23
TORSDOF 10
ENDMDL
MODEL 6
REMARK VINA RESULT:     -11.6      2.300      4.071
REMARK  Name = 51049992
REMARK  10 active torsions:
REMARK  status: ('A' for Active; 'I' for Inactive)
REMARK    1  A    between atoms: C_1  and  C_7
REMARK    2  A    between atoms: C_6  and  C_23
REMARK    3  A    between atoms: C_7  and  N_8
REMARK    4  A    between atoms: C_23  and  O_24
REMARK    5  A    between atoms: O_24  and  C_25
REMARK    6  A    between atoms: C_26  and  C_31
REMARK    7  A    between atoms: C_31  and  C_32
REMARK    8  A    between atoms: C_31  and  C_35
REMARK    9  A    between atoms: C_35  and  C_37
REMARK   10  A    between atoms: C_37  and  O_38
REMARK                            x       y       z     vdW  Elec       q    Type
REMARK                         _______ _______ _______ _____ _____    ______ ____
ROOT
ATOM      1  C   UNL     1      32.596 -11.686 -22.101  0.00  0.00    -0.043 C 
ATOM      2  C   UNL     1      33.118 -11.624 -23.393  0.00  0.00    -0.007 C 
ATOM      3  C   UNL     1      32.638 -12.885 -21.389  0.00  0.00    -0.007 C 
ATOM      4  C   UNL     1      33.683 -12.760 -23.973  0.00  0.00    -0.001 C 
ATOM      5  C   UNL     1      33.203 -14.021 -21.969  0.00  0.00    -0.001 C 
ATOM      6  C   UNL     1      33.725 -13.959 -23.261  0.00  0.00    +0.021 C 
ENDROOT
BRANCH   1   7
ATOM      7  C   UNL     1      31.987 -10.460 -21.476  0.00  0.00    -0.050 C 
BRANCH   7   8
ATOM      8  N   UNL     1      32.308  -9.248 -22.231  0.00  0.00    +0.390 N 
ATOM      9  C   UNL     1      32.172  -6.378 -22.890  0.00  0.00    +0.033 C 
ATOM     10  C   UNL     1      33.366  -7.010 -22.152  0.00  0.00    -0.015 C 
ATOM     11  C   UNL     1      31.423  -7.457 -23.694  0.00  0.00    -0.015 C 
ATOM     12  C   UNL     1      31.096  -8.691 -22.847  0.00  0.00    -0.076 C 
ATOM     13  C   UNL     1      32.966  -8.262 -21.363  0.00  0.00    -0.076 C 
ATOM     14  C   UNL     1      32.601  -5.219 -23.766  0.00  0.00    -0.019 C 
ATOM     15  C   UNL     1      31.238  -5.647 -21.926  0.00  0.00    -0.023 C 
ATOM     16  C   UNL     1      31.980  -4.040 -23.327  0.00  0.00    -0.004 C 
ATOM     17  C   UNL     1      31.140  -4.334 -22.183  0.00  0.00    -0.005 C 
ATOM     18  C   UNL     1      33.462  -5.205 -24.852  0.00  0.00    -0.004 C 
ATOM     19  C   UNL     1      32.206  -2.829 -23.961  0.00  0.00    -0.000 C 
ATOM     20  C   UNL     1      33.695  -3.989 -25.498  0.00  0.00    -0.000 C 
ATOM     21  C   UNL     1      33.072  -2.811 -25.056  0.00  0.00    -0.000 C 
ATOM     22  H   UNL     1      32.957  -9.489 -22.979  0.00  0.00    -0.079 HD
ENDBRANCH   7   8
ENDBRANCH   1   7
BRANCH   6  23
ATOM     23  C   UNL     1      34.331 -15.173 -23.879  0.00  0.00    +0.232 C 
BRANCH  23  24
ATOM     24  O   UNL     1      35.393 -15.642 -23.057  0.00  0.00    -0.471 OA
BRANCH  24  25
ATOM     25  C   UNL     1      35.222 -16.866 -22.466  0.00  0.00    +0.139 C 
ATOM     26  C   UNL     1      34.877 -19.359 -21.264  0.00  0.00    -0.010 C 
ATOM     27  C   UNL     1      35.424 -17.013 -21.094  0.00  0.00    +0.037 C 
ATOM     28  C   UNL     1      34.848 -17.967 -23.238  0.00  0.00    +0.037 C 
ATOM     29  C   UNL     1      35.251 -18.260 -20.493  0.00  0.00    -0.000 C 
ATOM     30  C   UNL     1      34.676 -19.213 -22.636  0.00  0.00    -0.000 C 
BRANCH  26  31
ATOM     31  C   UNL     1      34.692 -20.693 -20.622  0.00  0.00    +0.097 C 
BRANCH  31  32
ATOM     32  C   UNL     1      35.663 -20.910 -19.514  0.00  0.00    -0.087 C 
ATOM     33  C   UNL     1      36.443 -21.102 -18.620  0.00  0.00    -0.090 C 
ATOM     34  C   UNL     1      37.389 -21.335 -17.531  0.00  0.00    +0.090 C 
ENDBRANCH  31  32
BRANCH  31  35
ATOM     35  C   UNL     1      33.242 -20.903 -20.106  0.00  0.00    +0.127 C 
BRANCH  35  37
ATOM     36  O   UNL     1      33.608 -23.164 -19.262  0.00  0.00    -0.250 OA
ATOM     37  C   UNL     1      33.089 -22.063 -19.141  0.00  0.00    +0.315 C 
BRANCH  37  38
ATOM     38  O   UNL     1      32.298 -21.728 -18.088  0.00  0.00    -0.480 OA
ATOM     39  H   UNL     1      31.387 -21.558 -18.222  0.00  0.00    +0.295 HD
ENDBRANCH  37  38
ENDBRANCH  35  37
ENDBRANCH  31  35
ENDBRANCH  26  31
ENDBRANCH  24  25
ENDBRANCH  23  24
ENDBRANCH   6  23
TORSDOF 10
ENDMDL
MODEL 7
REMARK VINA RESULT:     -11.4      3.710     13.364
REMARK  Name = 51049992
REMARK  10 active torsions:
REMARK  status: ('A' for Active; 'I' for Inactive)
REMARK    1  A    between atoms: C_1  and  C_7
REMARK    2  A    between atoms: C_6  and  C_23
REMARK    3  A    between atoms: C_7  and  N_8
REMARK    4  A    between atoms: C_23  and  O_24
REMARK    5  A    between atoms: O_24  and  C_25
REMARK    6  A    between atoms: C_26  and  C_31
REMARK    7  A    between atoms: C_31  and  C_32
REMARK    8  A    between atoms: C_31  and  C_35
REMARK    9  A    between atoms: C_35  and  C_37
REMARK   10  A    between atoms: C_37  and  O_38
REMARK                            x       y       z     vdW  Elec       q    Type
REMARK                         _______ _______ _______ _____ _____    ______ ____
ROOT
ATOM      1  C   UNL     1      33.553 -21.791 -18.696  0.00  0.00    -0.043 C 
ATOM      2  C   UNL     1      34.938 -21.730 -18.854  0.00  0.00    -0.007 C 
ATOM      3  C   UNL     1      32.725 -21.004 -19.497  0.00  0.00    -0.007 C 
ATOM      4  C   UNL     1      35.494 -20.882 -19.811  0.00  0.00    -0.001 C 
ATOM      5  C   UNL     1      33.281 -20.157 -20.455  0.00  0.00    -0.001 C 
ATOM      6  C   UNL     1      34.666 -20.096 -20.612  0.00  0.00    +0.021 C 
ENDROOT
BRANCH   1   7
ATOM      7  C   UNL     1      32.953 -22.706 -17.662  0.00  0.00    -0.050 C 
BRANCH   7   8
ATOM      8  N   UNL     1      33.791 -22.800 -16.467  0.00  0.00    +0.390 N 
ATOM      9  C   UNL     1      35.554 -24.137 -14.519  0.00  0.00    +0.033 C 
ATOM     10  C   UNL     1      36.080 -23.172 -15.597  0.00  0.00    -0.015 C 
ATOM     11  C   UNL     1      34.067 -23.852 -14.242  0.00  0.00    -0.015 C 
ATOM     12  C   UNL     1      33.238 -23.786 -15.528  0.00  0.00    -0.076 C 
ATOM     13  C   UNL     1      35.174 -23.132 -16.833  0.00  0.00    -0.076 C 
ATOM     14  C   UNL     1      36.385 -24.075 -13.254  0.00  0.00    -0.019 C 
ATOM     15  C   UNL     1      35.782 -25.597 -14.912  0.00  0.00    -0.023 C 
ATOM     16  C   UNL     1      36.970 -25.327 -13.011  0.00  0.00    -0.004 C 
ATOM     17  C   UNL     1      36.579 -26.253 -14.055  0.00  0.00    -0.005 C 
ATOM     18  C   UNL     1      36.606 -23.010 -12.395  0.00  0.00    -0.004 C 
ATOM     19  C   UNL     1      37.784 -25.539 -11.910  0.00  0.00    -0.000 C 
ATOM     20  C   UNL     1      37.425 -23.215 -11.282  0.00  0.00    -0.000 C 
ATOM     21  C   UNL     1      38.009 -24.469 -11.041  0.00  0.00    -0.000 C 
ATOM     22  H   UNL     1      33.800 -21.894 -16.000  0.00  0.00    -0.079 HD
ENDBRANCH   7   8
ENDBRANCH   1   7
BRANCH   6  23
ATOM     23  C   UNL     1      35.260 -19.192 -21.638  0.00  0.00    +0.232 C 
BRANCH  23  24
ATOM     24  O   UNL     1      35.823 -18.053 -20.996  0.00  0.00    -0.471 OA
BRANCH  24  25
ATOM     25  C   UNL     1      35.281 -16.836 -21.312  0.00  0.00    +0.139 C 
ATOM     26  C   UNL     1      34.180 -14.354 -21.954  0.00  0.00    -0.010 C 
ATOM     27  C   UNL     1      35.138 -16.460 -22.648  0.00  0.00    +0.037 C 
ATOM     28  C   UNL     1      34.874 -15.969 -20.297  0.00  0.00    +0.037 C 
ATOM     29  C   UNL     1      34.587 -15.220 -22.969  0.00  0.00    -0.000 C 
ATOM     30  C   UNL     1      34.324 -14.728 -20.619  0.00  0.00    -0.000 C 
BRANCH  26  31
ATOM     31  C   UNL     1      33.591 -13.027 -22.297  0.00  0.00    +0.097 C 
BRANCH  31  32
ATOM     32  C   UNL     1      33.530 -12.816 -23.770  0.00  0.00    -0.087 C 
ATOM     33  C   UNL     1      33.483 -12.629 -24.956  0.00  0.00    -0.090 C 
ATOM     34  C   UNL     1      33.423 -12.400 -26.398  0.00  0.00    +0.090 C 
ENDBRANCH  31  32
BRANCH  31  35
ATOM     35  C   UNL     1      32.183 -12.828 -21.673  0.00  0.00    +0.127 C 
BRANCH  35  37
ATOM     36  O   UNL     1      32.344 -10.422 -22.049  0.00  0.00    -0.250 OA
ATOM     37  C   UNL     1      31.689 -11.395 -21.702  0.00  0.00    +0.315 C 
BRANCH  37  38
ATOM     38  O   UNL     1      30.393 -11.311 -21.301  0.00  0.00    -0.480 OA
ATOM     39  H   UNL     1      30.004 -10.475 -21.144  0.00  0.00    +0.295 HD
ENDBRANCH  37  38
ENDBRANCH  35  37
ENDBRANCH  31  35
ENDBRANCH  26  31
ENDBRANCH  24  25
ENDBRANCH  23  24
ENDBRANCH   6  23
TORSDOF 10
ENDMDL
MODEL 8
REMARK VINA RESULT:     -11.2      2.278      4.326
REMARK  Name = 51049992
REMARK  10 active torsions:
REMARK  status: ('A' for Active; 'I' for Inactive)
REMARK    1  A    between atoms: C_1  and  C_7
REMARK    2  A    between atoms: C_6  and  C_23
REMARK    3  A    between atoms: C_7  and  N_8
REMARK    4  A    between atoms: C_23  and  O_24
REMARK    5  A    between atoms: O_24  and  C_25
REMARK    6  A    between atoms: C_26  and  C_31
REMARK    7  A    between atoms: C_31  and  C_32
REMARK    8  A    between atoms: C_31  and  C_35
REMARK    9  A    between atoms: C_35  and  C_37
REMARK   10  A    between atoms: C_37  and  O_38
REMARK                            x       y       z     vdW  Elec       q    Type
REMARK                         _______ _______ _______ _____ _____    ______ ____
ROOT
ATOM      1  C   UNL     1      35.171 -18.018 -22.672  0.00  0.00    -0.043 C 
ATOM      2  C   UNL     1      36.105 -17.948 -21.638  0.00  0.00    -0.007 C 
ATOM      3  C   UNL     1      34.280 -19.089 -22.735  0.00  0.00    -0.007 C 
ATOM      4  C   UNL     1      36.148 -18.950 -20.668  0.00  0.00    -0.001 C 
ATOM      5  C   UNL     1      34.323 -20.091 -21.765  0.00  0.00    -0.001 C 
ATOM      6  C   UNL     1      35.257 -20.021 -20.732  0.00  0.00    +0.021 C 
ENDROOT
BRANCH   1   7
ATOM      7  C   UNL     1      35.125 -16.937 -23.718  0.00  0.00    -0.050 C 
BRANCH   7   8
ATOM      8  N   UNL     1      34.330 -15.789 -23.280  0.00  0.00    +0.390 N 
ATOM      9  C   UNL     1      33.531 -12.953 -23.187  0.00  0.00    +0.033 C 
ATOM     10  C   UNL     1      32.742 -14.018 -23.970  0.00  0.00    -0.015 C 
ATOM     11  C   UNL     1      34.356 -13.626 -22.074  0.00  0.00    -0.015 C 
ATOM     12  C   UNL     1      35.182 -14.806 -22.596  0.00  0.00    -0.076 C 
ATOM     13  C   UNL     1      33.630 -15.184 -24.421  0.00  0.00    -0.076 C 
ATOM     14  C   UNL     1      32.623 -11.871 -22.639  0.00  0.00    -0.019 C 
ATOM     15  C   UNL     1      34.413 -12.114 -24.110  0.00  0.00    -0.023 C 
ATOM     16  C   UNL     1      32.976 -10.632 -23.194  0.00  0.00    -0.004 C 
ATOM     17  C   UNL     1      34.091 -10.811 -24.104  0.00  0.00    -0.005 C 
ATOM     18  C   UNL     1      31.580 -11.970 -21.733  0.00  0.00    -0.004 C 
ATOM     19  C   UNL     1      32.298  -9.473 -22.857  0.00  0.00    -0.000 C 
ATOM     20  C   UNL     1      30.889 -10.806 -21.386  0.00  0.00    -0.000 C 
ATOM     21  C   UNL     1      31.245  -9.568 -21.944  0.00  0.00    -0.000 C 
ATOM     22  H   UNL     1      33.628 -16.110 -22.616  0.00  0.00    -0.079 HD
ENDBRANCH   7   8
ENDBRANCH   1   7
BRANCH   6  23
ATOM     23  C   UNL     1      35.300 -21.090 -19.693  0.00  0.00    +0.232 C 
BRANCH  23  24
ATOM     24  O   UNL     1      36.407 -20.864 -18.827  0.00  0.00    -0.471 OA
BRANCH  24  25
ATOM     25  C   UNL     1      36.466 -21.625 -17.690  0.00  0.00    +0.139 C 
ATOM     26  C   UNL     1      36.588 -23.177 -15.375  0.00  0.00    -0.010 C 
ATOM     27  C   UNL     1      37.625 -21.630 -16.913  0.00  0.00    +0.037 C 
ATOM     28  C   UNL     1      35.368 -22.396 -17.309  0.00  0.00    +0.037 C 
ATOM     29  C   UNL     1      37.685 -22.406 -15.755  0.00  0.00    -0.000 C 
ATOM     30  C   UNL     1      35.429 -23.172 -16.151  0.00  0.00    -0.000 C 
BRANCH  26  31
ATOM     31  C   UNL     1      36.651 -24.006 -14.137  0.00  0.00    +0.097 C 
BRANCH  31  32
ATOM     32  C   UNL     1      37.943 -24.740 -14.033  0.00  0.00    -0.087 C 
ATOM     33  C   UNL     1      38.991 -25.323 -13.963  0.00  0.00    -0.090 C 
ATOM     34  C   UNL     1      40.266 -26.033 -13.879  0.00  0.00    +0.090 C 
ENDBRANCH  31  32
BRANCH  31  35
ATOM     35  C   UNL     1      36.412 -23.169 -12.852  0.00  0.00    +0.127 C 
BRANCH  35  37
ATOM     36  O   UNL     1      36.185 -24.577 -10.872  0.00  0.00    -0.250 OA
ATOM     37  C   UNL     1      35.669 -23.910 -11.757  0.00  0.00    +0.315 C 
BRANCH  37  38
ATOM     38  O   UNL     1      34.325 -23.734 -11.866  0.00  0.00    -0.480 OA
ATOM     39  H   UNL     1      33.877 -24.016 -12.637  0.00  0.00    +0.295 HD
ENDBRANCH  37  38
ENDBRANCH  35  37
ENDBRANCH  31  35
ENDBRANCH  26  31
ENDBRANCH  24  25
ENDBRANCH  23  24
ENDBRANCH   6  23
TORSDOF 10
ENDMDL
MODEL 9
REMARK VINA RESULT:     -11.2      4.661     13.761
REMARK  Name = 51049992
REMARK  10 active torsions:
REMARK  status: ('A' for Active; 'I' for Inactive)
REMARK    1  A    between atoms: C_1  and  C_7
REMARK    2  A    between atoms: C_6  and  C_23
REMARK    3  A    between atoms: C_7  and  N_8
REMARK    4  A    between atoms: C_23  and  O_24
REMARK    5  A    between atoms: O_24  and  C_25
REMARK    6  A    between atoms: C_26  and  C_31
REMARK    7  A    between atoms: C_31  and  C_32
REMARK    8  A    between atoms: C_31  and  C_35
REMARK    9  A    between atoms: C_35  and  C_37
REMARK   10  A    between atoms: C_37  and  O_38
REMARK                            x       y       z     vdW  Elec       q    Type
REMARK                         _______ _______ _______ _____ _____    ______ ____
ROOT
ATOM      1  C   UNL     1      34.427 -15.193 -23.956  0.00  0.00    -0.043 C 
ATOM      2  C   UNL     1      33.768 -14.472 -24.953  0.00  0.00    -0.007 C 
ATOM      3  C   UNL     1      34.599 -14.632 -22.690  0.00  0.00    -0.007 C 
ATOM      4  C   UNL     1      33.282 -13.193 -24.684  0.00  0.00    -0.001 C 
ATOM      5  C   UNL     1      34.113 -13.353 -22.421  0.00  0.00    -0.001 C 
ATOM      6  C   UNL     1      33.455 -12.633 -23.418  0.00  0.00    +0.021 C 
ENDROOT
BRANCH   1   7
ATOM      7  C   UNL     1      34.951 -16.573 -24.247  0.00  0.00    -0.050 C 
BRANCH   7   8
ATOM      8  N   UNL     1      34.583 -17.527 -23.200  0.00  0.00    +0.390 N 
ATOM      9  C   UNL     1      35.078 -19.524 -21.089  0.00  0.00    +0.033 C 
ATOM     10  C   UNL     1      34.704 -18.062 -20.785  0.00  0.00    -0.015 C 
ATOM     11  C   UNL     1      34.599 -19.903 -22.503  0.00  0.00    -0.015 C 
ATOM     12  C   UNL     1      35.032 -18.880 -23.557  0.00  0.00    -0.076 C 
ATOM     13  C   UNL     1      35.133 -17.107 -21.905  0.00  0.00    -0.076 C 
ATOM     14  C   UNL     1      34.538 -20.473 -20.039  0.00  0.00    -0.019 C 
ATOM     15  C   UNL     1      36.577 -19.769 -20.920  0.00  0.00    -0.023 C 
ATOM     16  C   UNL     1      35.603 -21.128 -19.403  0.00  0.00    -0.004 C 
ATOM     17  C   UNL     1      36.858 -20.673 -19.969  0.00  0.00    -0.005 C 
ATOM     18  C   UNL     1      33.227 -20.734 -19.676  0.00  0.00    -0.004 C 
ATOM     19  C   UNL     1      35.380 -22.054 -18.396  0.00  0.00    -0.000 C 
ATOM     20  C   UNL     1      32.992 -21.666 -18.662  0.00  0.00    -0.000 C 
ATOM     21  C   UNL     1      34.059 -22.321 -18.028  0.00  0.00    -0.000 C 
ATOM     22  H   UNL     1      33.567 -17.547 -23.117  0.00  0.00    -0.079 HD
ENDBRANCH   7   8
ENDBRANCH   1   7
BRANCH   6  23
ATOM     23  C   UNL     1      32.932 -11.267 -23.130  0.00  0.00    +0.232 C 
BRANCH  23  24
ATOM     24  O   UNL     1      34.023 -10.363 -22.990  0.00  0.00    -0.471 OA
BRANCH  24  25
ATOM     25  C   UNL     1      33.773  -9.046 -23.271  0.00  0.00    +0.139 C 
ATOM     26  C   UNL     1      33.265  -6.364 -23.846  0.00  0.00    -0.010 C 
ATOM     27  C   UNL     1      32.463  -8.610 -23.465  0.00  0.00    +0.037 C 
ATOM     28  C   UNL     1      34.830  -8.141 -23.365  0.00  0.00    +0.037 C 
ATOM     29  C   UNL     1      32.208  -7.269 -23.752  0.00  0.00    -0.000 C 
ATOM     30  C   UNL     1      34.576  -6.800 -23.654  0.00  0.00    -0.000 C 
BRANCH  26  31
ATOM     31  C   UNL     1      32.994  -4.930 -24.154  0.00  0.00    +0.097 C 
BRANCH  31  32
ATOM     32  C   UNL     1      33.178  -4.634 -25.601  0.00  0.00    -0.087 C 
ATOM     33  C   UNL     1      33.315  -4.408 -26.773  0.00  0.00    -0.090 C 
ATOM     34  C   UNL     1      33.484  -4.135 -28.199  0.00  0.00    +0.090 C 
ENDBRANCH  31  32
BRANCH  31  35
ATOM     35  C   UNL     1      31.579  -4.485 -23.696  0.00  0.00    +0.127 C 
BRANCH  35  37
ATOM     36  O   UNL     1      31.689  -2.301 -22.612  0.00  0.00    -0.250 OA
ATOM     37  C   UNL     1      31.580  -3.516 -22.529  0.00  0.00    +0.315 C 
BRANCH  37  38
ATOM     38  O   UNL     1      31.428  -4.168 -21.346  0.00  0.00    -0.480 OA
ATOM     39  H   UNL     1      31.691  -3.757 -20.548  0.00  0.00    +0.295 HD
ENDBRANCH  37  38
ENDBRANCH  35  37
ENDBRANCH  31  35
ENDBRANCH  26  31
ENDBRANCH  24  25
ENDBRANCH  23  24
ENDBRANCH   6  23
TORSDOF 10
ENDMDL
