MODEL 1
REMARK VINA RESULT:     -11.4      0.000      0.000
REMARK  Name = 24832041
REMARK  6 active torsions:
REMARK  status: ('A' for Active; 'I' for Inactive)
REMARK    1  A    between atoms: C_1  and  C_18
REMARK    2  A    between atoms: C_4  and  C_7
REMARK    3  A    between atoms: C_10  and  C_15
REMARK    4  A    between atoms: C_18  and  N_19
REMARK    5  A    between atoms: C_18  and  C_23
REMARK    6  A    between atoms: C_23  and  C_26
REMARK                            x       y       z     vdW  Elec       q    Type
REMARK                         _______ _______ _______ _____ _____    ______ ____
ROOT
ATOM      1  C   UNL     1      34.728 -19.835 -21.228  0.00  0.00    -0.042 C 
ATOM      2  C   UNL     1      33.564 -20.297 -20.616  0.00  0.00    -0.006 C 
ATOM      3  C   UNL     1      35.973 -20.138 -20.677  0.00  0.00    -0.006 C 
ATOM      4  C   UNL     1      34.889 -21.365 -18.900  0.00  0.00    -0.000 C 
ATOM      5  C   UNL     1      33.643 -21.062 -19.453  0.00  0.00    -0.000 C 
ATOM      6  C   UNL     1      36.054 -20.902 -19.514  0.00  0.00    -0.000 C 
ENDROOT
BRANCH   4   7
ATOM      7  C   UNL     1      34.971 -22.159 -17.695  0.00  0.00    +0.000 C 
ATOM      8  C   UNL     1      36.169 -22.223 -16.982  0.00  0.00    +0.005 C 
ATOM      9  C   UNL     1      33.854 -22.861 -17.244  0.00  0.00    +0.000 C 
ATOM     10  C   UNL     1      36.249 -22.989 -15.819  0.00  0.00    +0.053 C 
ATOM     11  C   UNL     1      33.934 -23.627 -16.081  0.00  0.00    +0.000 C 
ATOM     12  C   UNL     1      35.131 -23.691 -15.368  0.00  0.00    +0.005 C 
BRANCH  10  15
ATOM     13  O   UNL     1      37.538 -22.807 -13.856  0.00  0.00    -0.270 OA
ATOM     14  N   UNL     1      38.646 -23.420 -15.768  0.00  0.00    -0.325 N 
ATOM     15  C   UNL     1      37.497 -23.054 -15.074  0.00  0.00    +0.243 C 
ATOM     16  H   UNL     1      39.510 -23.473 -15.297  0.00  0.00    +0.145 HD
ATOM     17  H   UNL     1      38.598 -23.625 -16.730  0.00  0.00    +0.145 HD
ENDBRANCH  10  15
ENDBRANCH   4   7
BRANCH   1  18
ATOM     18  C   UNL     1      34.644 -19.018 -22.472  0.00  0.00    -0.038 C 
BRANCH  18  19
ATOM     19  N   UNL     1      34.839 -19.837 -23.688  0.00  0.00    +0.384 N 
ATOM     20  H   UNL     1      35.782 -20.228 -23.688  0.00  0.00    -0.089 HD
ATOM     21  H   UNL     1      34.714 -19.253 -24.515  0.00  0.00    -0.089 HD
ATOM     22  H   UNL     1      34.158 -20.595 -23.701  0.00  0.00    -0.089 HD
ENDBRANCH  18  19
BRANCH  18  23
ATOM     23  C   UNL     1      35.649 -17.830 -22.527  0.00  0.00    +0.011 C 
BRANCH  23  26
ATOM     24  F   UNL     1      35.058 -15.981 -20.460  0.00  0.00    -0.205 F 
ATOM     25  F   UNL     1      33.631 -14.563 -25.546  0.00  0.00    -0.204 F 
ATOM     26  C   UNL     1      34.971 -16.502 -22.774  0.00  0.00    +0.006 C 
ATOM     27  C   UNL     1      34.712 -15.640 -21.709  0.00  0.00    +0.136 C 
ATOM     28  C   UNL     1      34.608 -16.138 -24.071  0.00  0.00    +0.028 C 
ATOM     29  C   UNL     1      33.982 -14.913 -24.302  0.00  0.00    +0.140 C 
ATOM     30  C   UNL     1      34.086 -14.415 -21.940  0.00  0.00    +0.032 C 
ATOM     31  C   UNL     1      33.722 -14.050 -23.236  0.00  0.00    +0.032 C 
ENDBRANCH  23  26
ENDBRANCH  18  23
ENDBRANCH   1  18
TORSDOF 6
ENDMDL
MODEL 2
REMARK VINA RESULT:     -11.2      4.688      9.858
REMARK  Name = 24832041
REMARK  6 active torsions:
REMARK  status: ('A' for Active; 'I' for Inactive)
REMARK    1  A    between atoms: C_1  and  C_18
REMARK    2  A    between atoms: C_4  and  C_7
REMARK    3  A    between atoms: C_10  and  C_15
REMARK    4  A    between atoms: C_18  and  N_19
REMARK    5  A    between atoms: C_18  and  C_23
REMARK    6  A    between atoms: C_23  and  C_26
REMARK                            x       y       z     vdW  Elec       q    Type
REMARK                         _______ _______ _______ _____ _____    ______ ____
ROOT
ATOM      1  C   UNL     1      35.302 -17.036 -21.539  0.00  0.00    -0.042 C 
ATOM      2  C   UNL     1      35.097 -16.581 -22.841  0.00  0.00    -0.006 C 
ATOM      3  C   UNL     1      34.934 -16.238 -20.455  0.00  0.00    -0.006 C 
ATOM      4  C   UNL     1      34.156 -14.530 -21.977  0.00  0.00    -0.000 C 
ATOM      5  C   UNL     1      34.525 -15.328 -23.061  0.00  0.00    -0.000 C 
ATOM      6  C   UNL     1      34.361 -14.986 -20.674  0.00  0.00    -0.000 C 
ENDROOT
BRANCH   4   7
ATOM      7  C   UNL     1      33.562 -13.232 -22.205  0.00  0.00    +0.000 C 
ATOM      8  C   UNL     1      34.127 -12.360 -23.137  0.00  0.00    +0.005 C 
ATOM      9  C   UNL     1      32.425 -12.850 -21.493  0.00  0.00    +0.000 C 
ATOM     10  C   UNL     1      33.554 -11.107 -23.357  0.00  0.00    +0.053 C 
ATOM     11  C   UNL     1      31.852 -11.597 -21.713  0.00  0.00    +0.000 C 
ATOM     12  C   UNL     1      32.416 -10.726 -22.645  0.00  0.00    +0.005 C 
BRANCH  10  15
ATOM     13  O   UNL     1      34.464 -10.587 -25.466  0.00  0.00    -0.270 OA
ATOM     14  N   UNL     1      34.311  -8.870 -23.954  0.00  0.00    -0.325 N 
ATOM     15  C   UNL     1      34.140 -10.199 -24.330  0.00  0.00    +0.243 C 
ATOM     16  H   UNL     1      34.706  -8.226 -24.585  0.00  0.00    +0.145 HD
ATOM     17  H   UNL     1      34.038  -8.573 -23.055  0.00  0.00    +0.145 HD
ENDBRANCH  10  15
ENDBRANCH   4   7
BRANCH   1  18
ATOM     18  C   UNL     1      35.913 -18.375 -21.303  0.00  0.00    -0.038 C 
BRANCH  18  19
ATOM     19  N   UNL     1      37.109 -18.595 -22.145  0.00  0.00    +0.384 N 
ATOM     20  H   UNL     1      37.374 -19.580 -22.110  0.00  0.00    -0.089 HD
ATOM     21  H   UNL     1      37.880 -18.024 -21.796  0.00  0.00    -0.089 HD
ATOM     22  H   UNL     1      36.901 -18.333 -23.108  0.00  0.00    -0.089 HD
ENDBRANCH  18  19
BRANCH  18  23
ATOM     23  C   UNL     1      34.941 -19.570 -21.529  0.00  0.00    +0.011 C 
BRANCH  23  26
ATOM     24  F   UNL     1      32.468 -20.506 -20.505  0.00  0.00    -0.205 F 
ATOM     25  F   UNL     1      37.003 -22.113 -17.904  0.00  0.00    -0.204 F 
ATOM     26  C   UNL     1      34.834 -20.474 -20.322  0.00  0.00    +0.006 C 
ATOM     27  C   UNL     1      33.583 -20.896 -19.873  0.00  0.00    +0.136 C 
ATOM     28  C   UNL     1      35.990 -20.885 -19.658  0.00  0.00    +0.028 C 
ATOM     29  C   UNL     1      35.894 -21.718 -18.543  0.00  0.00    +0.140 C 
ATOM     30  C   UNL     1      33.488 -21.729 -18.758  0.00  0.00    +0.032 C 
ATOM     31  C   UNL     1      34.643 -22.141 -18.093  0.00  0.00    +0.032 C 
ENDBRANCH  23  26
ENDBRANCH  18  23
ENDBRANCH   1  18
TORSDOF 6
ENDMDL
MODEL 3
REMARK VINA RESULT:     -11.2      4.433      9.393
REMARK  Name = 24832041
REMARK  6 active torsions:
REMARK  status: ('A' for Active; 'I' for Inactive)
REMARK    1  A    between atoms: C_1  and  C_18
REMARK    2  A    between atoms: C_4  and  C_7
REMARK    3  A    between atoms: C_10  and  C_15
REMARK    4  A    between atoms: C_18  and  N_19
REMARK    5  A    between atoms: C_18  and  C_23
REMARK    6  A    between atoms: C_23  and  C_26
REMARK                            x       y       z     vdW  Elec       q    Type
REMARK                         _______ _______ _______ _____ _____    ______ ____
ROOT
ATOM      1  C   UNL     1      33.958 -22.399 -18.031  0.00  0.00    -0.042 C 
ATOM      2  C   UNL     1      32.976 -21.685 -18.717  0.00  0.00    -0.006 C 
ATOM      3  C   UNL     1      35.304 -22.209 -18.342  0.00  0.00    -0.006 C 
ATOM      4  C   UNL     1      34.687 -20.588 -20.025  0.00  0.00    -0.000 C 
ATOM      5  C   UNL     1      33.340 -20.780 -19.714  0.00  0.00    -0.000 C 
ATOM      6  C   UNL     1      35.669 -21.304 -19.338  0.00  0.00    -0.000 C 
ENDROOT
BRANCH   4   7
ATOM      7  C   UNL     1      35.064 -19.650 -21.058  0.00  0.00    +0.000 C 
ATOM      8  C   UNL     1      34.232 -19.454 -22.161  0.00  0.00    +0.005 C 
ATOM      9  C   UNL     1      36.260 -18.939 -20.952  0.00  0.00    +0.000 C 
ATOM     10  C   UNL     1      34.596 -18.549 -23.157  0.00  0.00    +0.053 C 
ATOM     11  C   UNL     1      36.623 -18.034 -21.949  0.00  0.00    +0.000 C 
ATOM     12  C   UNL     1      35.792 -17.838 -23.051  0.00  0.00    +0.005 C 
BRANCH  10  15
ATOM     13  O   UNL     1      33.820 -17.323 -25.013  0.00  0.00    -0.270 OA
ATOM     14  N   UNL     1      32.799 -19.335 -24.602  0.00  0.00    -0.325 N 
ATOM     15  C   UNL     1      33.729 -18.342 -24.306  0.00  0.00    +0.243 C 
ATOM     16  H   UNL     1      32.194 -19.230 -25.372  0.00  0.00    +0.145 HD
ATOM     17  H   UNL     1      32.746 -20.143 -24.042  0.00  0.00    +0.145 HD
ENDBRANCH  10  15
ENDBRANCH   4   7
BRANCH   1  18
ATOM     18  C   UNL     1      33.570 -23.366 -16.965  0.00  0.00    -0.038 C 
BRANCH  18  19
ATOM     19  N   UNL     1      32.105 -23.561 -16.900  0.00  0.00    +0.384 N 
ATOM     20  H   UNL     1      31.646 -22.912 -17.539  0.00  0.00    -0.089 HD
ATOM     21  H   UNL     1      31.781 -23.386 -15.948  0.00  0.00    -0.089 HD
ATOM     22  H   UNL     1      31.876 -24.518 -17.166  0.00  0.00    -0.089 HD
ENDBRANCH  18  19
BRANCH  18  23
ATOM     23  C   UNL     1      34.067 -22.982 -15.541  0.00  0.00    +0.011 C 
BRANCH  23  26
ATOM     24  F   UNL     1      36.587 -21.684 -15.452  0.00  0.00    -0.205 F 
ATOM     25  F   UNL     1      36.478 -26.997 -14.156  0.00  0.00    -0.204 F 
ATOM     26  C   UNL     1      35.348 -23.688 -15.158  0.00  0.00    +0.006 C 
ATOM     27  C   UNL     1      36.553 -22.986 -15.135  0.00  0.00    +0.136 C 
ATOM     28  C   UNL     1      35.322 -25.042 -14.827  0.00  0.00    +0.028 C 
ATOM     29  C   UNL     1      36.502 -25.697 -14.474  0.00  0.00    +0.140 C 
ATOM     30  C   UNL     1      37.733 -23.641 -14.782  0.00  0.00    +0.032 C 
ATOM     31  C   UNL     1      37.708 -24.995 -14.450  0.00  0.00    +0.032 C 
ENDBRANCH  23  26
ENDBRANCH  18  23
ENDBRANCH   1  18
TORSDOF 6
ENDMDL
MODEL 4
REMARK VINA RESULT:     -11.1      2.379      3.003
REMARK  Name = 24832041
REMARK  6 active torsions:
REMARK  status: ('A' for Active; 'I' for Inactive)
REMARK    1  A    between atoms: C_1  and  C_18
REMARK    2  A    between atoms: C_4  and  C_7
REMARK    3  A    between atoms: C_10  and  C_15
REMARK    4  A    between atoms: C_18  and  N_19
REMARK    5  A    between atoms: C_18  and  C_23
REMARK    6  A    between atoms: C_23  and  C_26
REMARK                            x       y       z     vdW  Elec       q    Type
REMARK                         _______ _______ _______ _____ _____    ______ ____
ROOT
ATOM      1  C   UNL     1      34.372 -19.797 -21.451  0.00  0.00    -0.042 C 
ATOM      2  C   UNL     1      35.492 -20.239 -20.748  0.00  0.00    -0.006 C 
ATOM      3  C   UNL     1      33.092 -20.115 -20.994  0.00  0.00    -0.006 C 
ATOM      4  C   UNL     1      34.055 -21.318 -19.133  0.00  0.00    -0.000 C 
ATOM      5  C   UNL     1      35.334 -21.000 -19.590  0.00  0.00    -0.000 C 
ATOM      6  C   UNL     1      32.934 -20.876 -19.836  0.00  0.00    -0.000 C 
ENDROOT
BRANCH   4   7
ATOM      7  C   UNL     1      33.891 -22.106 -17.932  0.00  0.00    +0.000 C 
ATOM      8  C   UNL     1      32.612 -22.437 -17.483  0.00  0.00    +0.005 C 
ATOM      9  C   UNL     1      35.012 -22.535 -17.221  0.00  0.00    +0.000 C 
ATOM     10  C   UNL     1      32.454 -23.196 -16.324  0.00  0.00    +0.053 C 
ATOM     11  C   UNL     1      34.854 -23.295 -16.062  0.00  0.00    +0.000 C 
ATOM     12  C   UNL     1      33.575 -23.626 -15.613  0.00  0.00    +0.005 C 
BRANCH  10  15
ATOM     13  O   UNL     1      30.948 -24.387 -14.959  0.00  0.00    -0.270 OA
ATOM     14  N   UNL     1      30.040 -22.886 -16.436  0.00  0.00    -0.325 N 
ATOM     15  C   UNL     1      31.121 -23.544 -15.857  0.00  0.00    +0.243 C 
ATOM     16  H   UNL     1      29.123 -23.096 -16.146  0.00  0.00    +0.145 HD
ATOM     17  H   UNL     1      30.192 -22.211 -17.137  0.00  0.00    +0.145 HD
ENDBRANCH  10  15
ENDBRANCH   4   7
BRANCH   1  18
ATOM     18  C   UNL     1      34.539 -18.983 -22.688  0.00  0.00    -0.038 C 
BRANCH  18  19
ATOM     19  N   UNL     1      34.823 -19.825 -23.871  0.00  0.00    +0.384 N 
ATOM     20  H   UNL     1      34.155 -19.608 -24.611  0.00  0.00    -0.089 HD
ATOM     21  H   UNL     1      34.739 -20.809 -23.616  0.00  0.00    -0.089 HD
ATOM     22  H   UNL     1      35.769 -19.639 -24.202  0.00  0.00    -0.089 HD
ENDBRANCH  18  19
BRANCH  18  23
ATOM     23  C   UNL     1      35.651 -17.897 -22.594  0.00  0.00    +0.011 C 
BRANCH  23  26
ATOM     24  F   UNL     1      35.258 -16.885 -19.974  0.00  0.00    -0.205 F 
ATOM     25  F   UNL     1      33.920 -13.599 -24.137  0.00  0.00    -0.204 F 
ATOM     26  C   UNL     1      35.099 -16.518 -22.314  0.00  0.00    +0.006 C 
ATOM     27  C   UNL     1      34.933 -16.085 -21.000  0.00  0.00    +0.136 C 
ATOM     28  C   UNL     1      34.758 -15.679 -23.375  0.00  0.00    +0.028 C 
ATOM     29  C   UNL     1      34.248 -14.405 -23.120  0.00  0.00    +0.140 C 
ATOM     30  C   UNL     1      34.423 -14.811 -20.745  0.00  0.00    +0.032 C 
ATOM     31  C   UNL     1      34.082 -13.971 -21.804  0.00  0.00    +0.032 C 
ENDBRANCH  23  26
ENDBRANCH  18  23
ENDBRANCH   1  18
TORSDOF 6
ENDMDL
MODEL 5
REMARK VINA RESULT:     -11.1      4.522      9.840
REMARK  Name = 24832041
REMARK  6 active torsions:
REMARK  status: ('A' for Active; 'I' for Inactive)
REMARK    1  A    between atoms: C_1  and  C_18
REMARK    2  A    between atoms: C_4  and  C_7
REMARK    3  A    between atoms: C_10  and  C_15
REMARK    4  A    between atoms: C_18  and  N_19
REMARK    5  A    between atoms: C_18  and  C_23
REMARK    6  A    between atoms: C_23  and  C_26
REMARK                            x       y       z     vdW  Elec       q    Type
REMARK                         _______ _______ _______ _____ _____    ______ ____
ROOT
ATOM      1  C   UNL     1      35.214 -16.902 -21.830  0.00  0.00    -0.042 C 
ATOM      2  C   UNL     1      34.888 -15.970 -20.845  0.00  0.00    -0.006 C 
ATOM      3  C   UNL     1      35.062 -16.573 -23.177  0.00  0.00    -0.006 C 
ATOM      4  C   UNL     1      34.258 -14.382 -22.553  0.00  0.00    -0.000 C 
ATOM      5  C   UNL     1      34.410 -14.711 -21.206  0.00  0.00    -0.000 C 
ATOM      6  C   UNL     1      34.584 -15.314 -23.539  0.00  0.00    -0.000 C 
ENDROOT
BRANCH   4   7
ATOM      7  C   UNL     1      33.763 -13.076 -22.927  0.00  0.00    +0.000 C 
ATOM      8  C   UNL     1      32.914 -12.379 -22.066  0.00  0.00    +0.005 C 
ATOM      9  C   UNL     1      34.133 -12.513 -24.148  0.00  0.00    +0.000 C 
ATOM     10  C   UNL     1      32.437 -11.119 -22.427  0.00  0.00    +0.053 C 
ATOM     11  C   UNL     1      33.655 -11.253 -24.509  0.00  0.00    +0.000 C 
ATOM     12  C   UNL     1      32.807 -10.556 -23.649  0.00  0.00    +0.005 C 
BRANCH  10  15
ATOM     13  O   UNL     1      31.731  -9.184 -21.284  0.00  0.00    -0.270 OA
ATOM     14  N   UNL     1      30.489 -11.084 -20.965  0.00  0.00    -0.325 N 
ATOM     15  C   UNL     1      31.554 -10.390 -21.530  0.00  0.00    +0.243 C 
ATOM     16  H   UNL     1      29.871 -10.624 -20.352  0.00  0.00    +0.145 HD
ATOM     17  H   UNL     1      30.352 -12.036 -21.178  0.00  0.00    +0.145 HD
ENDBRANCH  10  15
ENDBRANCH   4   7
BRANCH   1  18
ATOM     18  C   UNL     1      35.726 -18.248 -21.445  0.00  0.00    -0.038 C 
BRANCH  18  19
ATOM     19  N   UNL     1      36.975 -18.591 -22.159  0.00  0.00    +0.384 N 
ATOM     20  H   UNL     1      36.760 -19.206 -22.944  0.00  0.00    -0.089 HD
ATOM     21  H   UNL     1      37.612 -19.067 -21.519  0.00  0.00    -0.089 HD
ATOM     22  H   UNL     1      37.414 -17.739 -22.506  0.00  0.00    -0.089 HD
ENDBRANCH  18  19
BRANCH  18  23
ATOM     23  C   UNL     1      34.711 -19.406 -21.669  0.00  0.00    +0.011 C 
BRANCH  23  26
ATOM     24  F   UNL     1      32.247 -20.367 -20.644  0.00  0.00    -0.205 F 
ATOM     25  F   UNL     1      36.809 -22.036 -18.128  0.00  0.00    -0.204 F 
ATOM     26  C   UNL     1      34.616 -20.339 -20.483  0.00  0.00    +0.006 C 
ATOM     27  C   UNL     1      33.369 -20.772 -20.033  0.00  0.00    +0.136 C 
ATOM     28  C   UNL     1      35.778 -20.766 -19.841  0.00  0.00    +0.028 C 
ATOM     29  C   UNL     1      35.693 -21.626 -18.746  0.00  0.00    +0.140 C 
ATOM     30  C   UNL     1      33.285 -21.633 -18.938  0.00  0.00    +0.032 C 
ATOM     31  C   UNL     1      34.446 -22.060 -18.295  0.00  0.00    +0.032 C 
ENDBRANCH  23  26
ENDBRANCH  18  23
ENDBRANCH   1  18
TORSDOF 6
ENDMDL
MODEL 6
REMARK VINA RESULT:     -11.0      4.814      9.634
REMARK  Name = 24832041
REMARK  6 active torsions:
REMARK  status: ('A' for Active; 'I' for Inactive)
REMARK    1  A    between atoms: C_1  and  C_18
REMARK    2  A    between atoms: C_4  and  C_7
REMARK    3  A    between atoms: C_10  and  C_15
REMARK    4  A    between atoms: C_18  and  N_19
REMARK    5  A    between atoms: C_18  and  C_23
REMARK    6  A    between atoms: C_23  and  C_26
REMARK                            x       y       z     vdW  Elec       q    Type
REMARK                         _______ _______ _______ _____ _____    ______ ____
ROOT
ATOM      1  C   UNL     1      33.608 -22.240 -18.174  0.00  0.00    -0.042 C 
ATOM      2  C   UNL     1      32.699 -21.465 -18.893  0.00  0.00    -0.006 C 
ATOM      3  C   UNL     1      34.975 -22.132 -18.433  0.00  0.00    -0.006 C 
ATOM      4  C   UNL     1      34.522 -20.473 -20.131  0.00  0.00    -0.000 C 
ATOM      5  C   UNL     1      33.155 -20.581 -19.871  0.00  0.00    -0.000 C 
ATOM      6  C   UNL     1      35.432 -21.249 -19.411  0.00  0.00    -0.000 C 
ENDROOT
BRANCH   4   7
ATOM      7  C   UNL     1      34.996 -19.556 -21.144  0.00  0.00    +0.000 C 
ATOM      8  C   UNL     1      34.209 -19.289 -22.265  0.00  0.00    +0.005 C 
ATOM      9  C   UNL     1      36.238 -18.940 -21.001  0.00  0.00    +0.000 C 
ATOM     10  C   UNL     1      34.665 -18.405 -23.243  0.00  0.00    +0.053 C 
ATOM     11  C   UNL     1      36.694 -18.056 -21.979  0.00  0.00    +0.000 C 
ATOM     12  C   UNL     1      35.909 -17.788 -23.100  0.00  0.00    +0.005 C 
BRANCH  10  15
ATOM     13  O   UNL     1      34.021 -17.101 -25.095  0.00  0.00    -0.270 OA
ATOM     14  N   UNL     1      32.865 -19.051 -24.751  0.00  0.00    -0.325 N 
ATOM     15  C   UNL     1      33.846 -18.125 -24.411  0.00  0.00    +0.243 C 
ATOM     16  H   UNL     1      32.289 -18.894 -25.535  0.00  0.00    +0.145 HD
ATOM     17  H   UNL     1      32.745 -19.864 -24.208  0.00  0.00    +0.145 HD
ENDBRANCH  10  15
ENDBRANCH   4   7
BRANCH   1  18
ATOM     18  C   UNL     1      33.121 -23.184 -17.128  0.00  0.00    -0.038 C 
BRANCH  18  19
ATOM     19  N   UNL     1      33.122 -24.585 -17.601  0.00  0.00    +0.384 N 
ATOM     20  H   UNL     1      34.043 -24.817 -17.974  0.00  0.00    -0.089 HD
ATOM     21  H   UNL     1      32.421 -24.697 -18.334  0.00  0.00    -0.089 HD
ATOM     22  H   UNL     1      32.905 -25.208 -16.824  0.00  0.00    -0.089 HD
ENDBRANCH  18  19
BRANCH  18  23
ATOM     23  C   UNL     1      31.697 -22.861 -16.589  0.00  0.00    +0.011 C 
BRANCH  23  26
ATOM     24  F   UNL     1      33.312 -22.826 -14.258  0.00  0.00    -0.205 F 
ATOM     25  F   UNL     1      28.772 -25.873 -14.093  0.00  0.00    -0.204 F 
ATOM     26  C   UNL     1      31.357 -23.634 -15.335  0.00  0.00    +0.006 C 
ATOM     27  C   UNL     1      32.197 -23.571 -14.225  0.00  0.00    +0.136 C 
ATOM     28  C   UNL     1      30.199 -24.411 -15.292  0.00  0.00    +0.028 C 
ATOM     29  C   UNL     1      29.883 -25.126 -14.136  0.00  0.00    +0.140 C 
ATOM     30  C   UNL     1      31.881 -24.286 -13.069  0.00  0.00    +0.032 C 
ATOM     31  C   UNL     1      30.724 -25.063 -13.024  0.00  0.00    +0.032 C 
ENDBRANCH  23  26
ENDBRANCH  18  23
ENDBRANCH   1  18
TORSDOF 6
ENDMDL
MODEL 7
REMARK VINA RESULT:     -10.7      4.985      8.171
REMARK  Name = 24832041
REMARK  6 active torsions:
REMARK  status: ('A' for Active; 'I' for Inactive)
REMARK    1  A    between atoms: C_1  and  C_18
REMARK    2  A    between atoms: C_4  and  C_7
REMARK    3  A    between atoms: C_10  and  C_15
REMARK    4  A    between atoms: C_18  and  N_19
REMARK    5  A    between atoms: C_18  and  C_23
REMARK    6  A    between atoms: C_23  and  C_26
REMARK                            x       y       z     vdW  Elec       q    Type
REMARK                         _______ _______ _______ _____ _____    ______ ____
ROOT
ATOM      1  C   UNL     1      33.574 -12.402 -23.530  0.00  0.00    -0.042 C 
ATOM      2  C   UNL     1      33.432 -13.192 -24.670  0.00  0.00    -0.006 C 
ATOM      3  C   UNL     1      34.019 -12.973 -22.337  0.00  0.00    -0.006 C 
ATOM      4  C   UNL     1      34.181 -15.124 -23.427  0.00  0.00    -0.000 C 
ATOM      5  C   UNL     1      33.735 -14.553 -24.619  0.00  0.00    -0.000 C 
ATOM      6  C   UNL     1      34.322 -14.334 -22.285  0.00  0.00    -0.000 C 
ENDROOT
BRANCH   4   7
ATOM      7  C   UNL     1      34.495 -16.534 -23.374  0.00  0.00    +0.000 C 
ATOM      8  C   UNL     1      35.392 -17.014 -22.418  0.00  0.00    +0.005 C 
ATOM      9  C   UNL     1      33.903 -17.415 -24.278  0.00  0.00    +0.000 C 
ATOM     10  C   UNL     1      35.696 -18.374 -22.368  0.00  0.00    +0.053 C 
ATOM     11  C   UNL     1      34.207 -18.776 -24.227  0.00  0.00    +0.000 C 
ATOM     12  C   UNL     1      35.104 -19.256 -23.272  0.00  0.00    +0.005 C 
BRANCH  10  15
ATOM     13  O   UNL     1      37.857 -18.716 -21.494  0.00  0.00    -0.270 OA
ATOM     14  N   UNL     1      36.102 -19.526 -20.260  0.00  0.00    -0.325 N 
ATOM     15  C   UNL     1      36.629 -18.875 -21.371  0.00  0.00    +0.243 C 
ATOM     16  H   UNL     1      36.703 -19.880 -19.565  0.00  0.00    +0.145 HD
ATOM     17  H   UNL     1      35.127 -19.634 -20.168  0.00  0.00    +0.145 HD
ENDBRANCH  10  15
ENDBRANCH   4   7
BRANCH   1  18
ATOM     18  C   UNL     1      33.251 -10.948 -23.584  0.00  0.00    -0.038 C 
BRANCH  18  19
ATOM     19  N   UNL     1      34.469 -10.109 -23.565  0.00  0.00    +0.384 N 
ATOM     20  H   UNL     1      34.514  -9.555 -24.421  0.00  0.00    -0.089 HD
ATOM     21  H   UNL     1      35.293 -10.707 -23.502  0.00  0.00    -0.089 HD
ATOM     22  H   UNL     1      34.440  -9.485 -22.759  0.00  0.00    -0.089 HD
ENDBRANCH  18  19
BRANCH  18  23
ATOM     23  C   UNL     1      32.313 -10.458 -22.443  0.00  0.00    +0.011 C 
BRANCH  23  26
ATOM     24  F   UNL     1      32.585  -8.763 -20.185  0.00  0.00    -0.205 F 
ATOM     25  F   UNL     1      31.068  -6.418 -24.888  0.00  0.00    -0.204 F 
ATOM     26  C   UNL     1      32.060  -8.969 -22.491  0.00  0.00    +0.006 C 
ATOM     27  C   UNL     1      32.214  -8.195 -21.341  0.00  0.00    +0.136 C 
ATOM     28  C   UNL     1      31.674  -8.369 -23.690  0.00  0.00    +0.028 C 
ATOM     29  C   UNL     1      31.440  -6.994 -23.738  0.00  0.00    +0.140 C 
ATOM     30  C   UNL     1      31.980  -6.821 -21.389  0.00  0.00    +0.032 C 
ATOM     31  C   UNL     1      31.593  -6.220 -22.587  0.00  0.00    +0.032 C 
ENDBRANCH  23  26
ENDBRANCH  18  23
ENDBRANCH   1  18
TORSDOF 6
ENDMDL
MODEL 8
REMARK VINA RESULT:     -10.6      4.633      9.744
REMARK  Name = 24832041
REMARK  6 active torsions:
REMARK  status: ('A' for Active; 'I' for Inactive)
REMARK    1  A    between atoms: C_1  and  C_18
REMARK    2  A    between atoms: C_4  and  C_7
REMARK    3  A    between atoms: C_10  and  C_15
REMARK    4  A    between atoms: C_18  and  N_19
REMARK    5  A    between atoms: C_18  and  C_23
REMARK    6  A    between atoms: C_23  and  C_26
REMARK                            x       y       z     vdW  Elec       q    Type
REMARK                         _______ _______ _______ _____ _____    ______ ____
ROOT
ATOM      1  C   UNL     1      35.316 -17.000 -21.479  0.00  0.00    -0.042 C 
ATOM      2  C   UNL     1      34.919 -16.237 -20.382  0.00  0.00    -0.006 C 
ATOM      3  C   UNL     1      35.100 -16.525 -22.773  0.00  0.00    -0.006 C 
ATOM      4  C   UNL     1      34.091 -14.523 -21.871  0.00  0.00    -0.000 C 
ATOM      5  C   UNL     1      34.307 -14.999 -20.577  0.00  0.00    -0.000 C 
ATOM      6  C   UNL     1      34.488 -15.287 -22.969  0.00  0.00    -0.000 C 
ENDROOT
BRANCH   4   7
ATOM      7  C   UNL     1      33.457 -13.240 -22.073  0.00  0.00    +0.000 C 
ATOM      8  C   UNL     1      33.983 -12.341 -23.001  0.00  0.00    +0.005 C 
ATOM      9  C   UNL     1      32.320 -12.900 -21.340  0.00  0.00    +0.000 C 
ATOM     10  C   UNL     1      33.371 -11.102 -23.196  0.00  0.00    +0.053 C 
ATOM     11  C   UNL     1      31.709 -11.661 -21.535  0.00  0.00    +0.000 C 
ATOM     12  C   UNL     1      32.234 -10.762 -22.463  0.00  0.00    +0.005 C 
BRANCH  10  15
ATOM     13  O   UNL     1      33.878  -8.937 -23.973  0.00  0.00    -0.270 OA
ATOM     14  N   UNL     1      34.504 -10.689 -25.313  0.00  0.00    -0.325 N 
ATOM     15  C   UNL     1      33.917 -10.165 -24.165  0.00  0.00    +0.243 C 
ATOM     16  H   UNL     1      34.883 -10.085 -25.992  0.00  0.00    +0.145 HD
ATOM     17  H   UNL     1      34.540 -11.664 -25.447  0.00  0.00    +0.145 HD
ENDBRANCH  10  15
ENDBRANCH   4   7
BRANCH   1  18
ATOM     18  C   UNL     1      35.971 -18.322 -21.272  0.00  0.00    -0.038 C 
BRANCH  18  19
ATOM     19  N   UNL     1      37.211 -18.458 -22.066  0.00  0.00    +0.384 N 
ATOM     20  H   UNL     1      37.408 -19.446 -22.225  0.00  0.00    -0.089 HD
ATOM     21  H   UNL     1      37.989 -18.035 -21.557  0.00  0.00    -0.089 HD
ATOM     22  H   UNL     1      37.095 -17.986 -22.962  0.00  0.00    -0.089 HD
ENDBRANCH  18  19
BRANCH  18  23
ATOM     23  C   UNL     1      35.061 -19.544 -21.591  0.00  0.00    +0.011 C 
BRANCH  23  26
ATOM     24  F   UNL     1      37.160 -20.811 -20.165  0.00  0.00    -0.205 F 
ATOM     25  F   UNL     1      32.062 -21.687 -18.386  0.00  0.00    -0.204 F 
ATOM     26  C   UNL     1      34.828 -20.430 -20.388  0.00  0.00    +0.006 C 
ATOM     27  C   UNL     1      35.908 -21.021 -19.734  0.00  0.00    +0.136 C 
ATOM     28  C   UNL     1      33.528 -20.654 -19.933  0.00  0.00    +0.028 C 
ATOM     29  C   UNL     1      33.309 -21.471 -18.823  0.00  0.00    +0.140 C 
ATOM     30  C   UNL     1      35.689 -21.838 -18.625  0.00  0.00    +0.032 C 
ATOM     31  C   UNL     1      34.391 -22.063 -18.169  0.00  0.00    +0.032 C 
ENDBRANCH  23  26
ENDBRANCH  18  23
ENDBRANCH   1  18
TORSDOF 6
ENDMDL
MODEL 9
REMARK VINA RESULT:     -10.5      4.784      9.438
REMARK  Name = 24832041
REMARK  6 active torsions:
REMARK  status: ('A' for Active; 'I' for Inactive)
REMARK    1  A    between atoms: C_1  and  C_18
REMARK    2  A    between atoms: C_4  and  C_7
REMARK    3  A    between atoms: C_10  and  C_15
REMARK    4  A    between atoms: C_18  and  N_19
REMARK    5  A    between atoms: C_18  and  C_23
REMARK    6  A    between atoms: C_23  and  C_26
REMARK                            x       y       z     vdW  Elec       q    Type
REMARK                         _______ _______ _______ _____ _____    ______ ____
ROOT
ATOM      1  C   UNL     1      34.077 -22.467 -17.754  0.00  0.00    -0.042 C 
ATOM      2  C   UNL     1      33.127 -21.839 -18.559  0.00  0.00    -0.006 C 
ATOM      3  C   UNL     1      35.435 -22.230 -17.964  0.00  0.00    -0.006 C 
ATOM      4  C   UNL     1      34.894 -20.737 -19.785  0.00  0.00    -0.000 C 
ATOM      5  C   UNL     1      33.535 -20.974 -19.574  0.00  0.00    -0.000 C 
ATOM      6  C   UNL     1      35.844 -21.365 -18.979  0.00  0.00    -0.000 C 
ENDROOT
BRANCH   4   7
ATOM      7  C   UNL     1      35.316 -19.840 -20.837  0.00  0.00    +0.000 C 
ATOM      8  C   UNL     1      34.451 -19.544 -21.891  0.00  0.00    +0.005 C 
ATOM      9  C   UNL     1      36.589 -19.270 -20.799  0.00  0.00    +0.000 C 
ATOM     10  C   UNL     1      34.859 -18.679 -22.907  0.00  0.00    +0.053 C 
ATOM     11  C   UNL     1      36.996 -18.405 -21.815  0.00  0.00    +0.000 C 
ATOM     12  C   UNL     1      36.132 -18.109 -22.868  0.00  0.00    +0.005 C 
BRANCH  10  15
ATOM     13  O   UNL     1      33.120 -19.194 -24.409  0.00  0.00    -0.270 OA
ATOM     14  N   UNL     1      34.048 -17.104 -24.579  0.00  0.00    -0.325 N 
ATOM     15  C   UNL     1      33.957 -18.368 -24.004  0.00  0.00    +0.243 C 
ATOM     16  H   UNL     1      33.454 -16.858 -25.325  0.00  0.00    +0.145 HD
ATOM     17  H   UNL     1      34.706 -16.455 -24.240  0.00  0.00    +0.145 HD
ENDBRANCH  10  15
ENDBRANCH   4   7
BRANCH   1  18
ATOM     18  C   UNL     1      33.642 -23.391 -16.668  0.00  0.00    -0.038 C 
BRANCH  18  19
ATOM     19  N   UNL     1      32.169 -23.441 -16.540  0.00  0.00    +0.384 N 
ATOM     20  H   UNL     1      31.850 -22.660 -15.965  0.00  0.00    -0.089 HD
ATOM     21  H   UNL     1      31.896 -24.321 -16.099  0.00  0.00    -0.089 HD
ATOM     22  H   UNL     1      31.744 -23.378 -17.464  0.00  0.00    -0.089 HD
ENDBRANCH  18  19
BRANCH  18  23
ATOM     23  C   UNL     1      34.234 -23.056 -15.268  0.00  0.00    +0.011 C 
BRANCH  23  26
ATOM     24  F   UNL     1      34.106 -25.607 -14.035  0.00  0.00    -0.205 F 
ATOM     25  F   UNL     1      39.079 -23.670 -15.234  0.00  0.00    -0.204 F 
ATOM     26  C   UNL     1      35.459 -23.878 -14.939  0.00  0.00    +0.006 C 
ATOM     27  C   UNL     1      35.322 -25.126 -14.332  0.00  0.00    +0.136 C 
ATOM     28  C   UNL     1      36.728 -23.386 -15.244  0.00  0.00    +0.028 C 
ATOM     29  C   UNL     1      37.860 -24.142 -14.941  0.00  0.00    +0.140 C 
ATOM     30  C   UNL     1      36.454 -25.882 -14.029  0.00  0.00    +0.032 C 
ATOM     31  C   UNL     1      37.723 -25.391 -14.334  0.00  0.00    +0.032 C 
ENDBRANCH  23  26
ENDBRANCH  18  23
ENDBRANCH   1  18
TORSDOF 6
ENDMDL
