MODEL 1
REMARK VINA RESULT:     -11.2      0.000      0.000
REMARK  Name = 46937134
REMARK  9 active torsions:
REMARK  status: ('A' for Active; 'I' for Inactive)
REMARK    1  A    between atoms: N_2  and  C_15
REMARK    2  A    between atoms: N_6  and  C_29
REMARK    3  A    between atoms: C_16  and  O_19
REMARK    4  A    between atoms: C_18  and  C_21
REMARK    5  A    between atoms: C_21  and  O_22
REMARK    6  A    between atoms: O_22  and  P_23
REMARK    7  A    between atoms: P_23  and  O_25
REMARK    8  A    between atoms: P_23  and  O_27
REMARK    9  A    between atoms: C_29  and  C_30
REMARK                            x       y       z     vdW  Elec       q    Type
REMARK                         _______ _______ _______ _____ _____    ______ ____
ROOT
ATOM      1  O   UNL     1      31.100 -23.309 -16.858  0.00  0.00    -0.208 OA
ATOM      2  N   UNL     1      34.545 -23.640 -13.951  0.00  0.00    -0.209 NA
ATOM      3  N   UNL     1      35.065 -22.777 -16.165  0.00  0.00    -0.279 N 
ATOM      4  N   UNL     1      32.346 -23.959 -14.266  0.00  0.00    -0.241 NA
ATOM      5  N   UNL     1      33.176 -22.638 -17.640  0.00  0.00    -0.301 NA
ATOM      6  N   UNL     1      35.321 -21.994 -18.299  0.00  0.00    -0.292 N 
ATOM      7  C   UNL     1      34.257 -23.261 -15.217  0.00  0.00    +0.191 C 
ATOM      8  C   UNL     1      33.350 -24.059 -13.411  0.00  0.00    +0.205 C 
ATOM      9  C   UNL     1      32.920 -23.457 -15.401  0.00  0.00    +0.183 C 
ATOM     10  C   UNL     1      34.461 -22.476 -17.383  0.00  0.00    +0.248 C 
ATOM     11  C   UNL     1      32.299 -23.141 -16.671  0.00  0.00    +0.224 C 
ATOM     12  H   UNL     1      36.028 -22.643 -16.011  0.00  0.00    +0.152 HD
ATOM     13  H   UNL     1      36.268 -21.896 -18.049  0.00  0.00    +0.151 HD
ENDROOT
BRANCH   2  15
ATOM     14  O   UNL     1      36.970 -23.873 -14.164  0.00  0.00    -0.338 OA
ATOM     15  C   UNL     1      35.882 -23.620 -13.254  0.00  0.00    +0.182 C 
ATOM     16  C   UNL     1      37.490 -24.884 -12.075  0.00  0.00    +0.144 C 
ATOM     17  C   UNL     1      35.997 -24.665 -12.149  0.00  0.00    +0.079 C 
ATOM     18  C   UNL     1      37.929 -24.741 -13.528  0.00  0.00    +0.174 C 
BRANCH  16  19
ATOM     19  O   UNL     1      38.063 -23.835 -11.298  0.00  0.00    -0.382 OA
ATOM     20  H   UNL     1      37.641 -23.813 -10.424  0.00  0.00    +0.210 HD
ENDBRANCH  16  19
BRANCH  18  21
ATOM     21  C   UNL     1      37.929 -26.068 -14.275  0.00  0.00    +0.186 C 
BRANCH  21  22
ATOM     22  O   UNL     1      39.088 -26.796 -13.906  0.00  0.00    -0.271 OA
BRANCH  22  23
ATOM     23  P   UNL     1      40.509 -26.366 -14.552  0.00  0.00    +0.473 P 
ATOM     24  O   UNL     1      40.932 -24.954 -14.268  0.00  0.00    -0.227 OA
BRANCH  23  25
ATOM     25  O   UNL     1      41.516 -27.505 -14.001  0.00  0.00    -0.303 OA
ATOM     26  H   UNL     1      42.304 -27.084 -13.622  0.00  0.00    +0.222 HD
ENDBRANCH  23  25
BRANCH  23  27
ATOM     27  O   UNL     1      40.346 -26.738 -16.117  0.00  0.00    -0.303 OA
ATOM     28  H   UNL     1      39.595 -26.250 -16.489  0.00  0.00    +0.222 HD
ENDBRANCH  23  27
ENDBRANCH  22  23
ENDBRANCH  21  22
ENDBRANCH  18  21
ENDBRANCH   2  15
BRANCH   6  29
ATOM     29  C   UNL     1      34.918 -21.613 -19.634  0.00  0.00    +0.117 C 
BRANCH  29  30
ATOM     30  C   UNL     1      35.722 -20.448 -20.120  0.00  0.00    -0.003 C 
ATOM     31  C   UNL     1      35.354 -19.711 -21.257  0.00  0.00    -0.002 C 
ATOM     32  C   UNL     1      36.157 -18.619 -21.665  0.00  0.00    -0.000 C 
ATOM     33  C   UNL     1      36.866 -20.112 -19.395  0.00  0.00    -0.003 C 
ATOM     34  C   UNL     1      34.206 -20.033 -21.999  0.00  0.00    -0.000 C 
ATOM     35  C   UNL     1      37.306 -18.298 -20.924  0.00  0.00    -0.000 C 
ATOM     36  C   UNL     1      37.656 -19.040 -19.795  0.00  0.00    -0.000 C 
ATOM     37  C   UNL     1      35.790 -17.883 -22.803  0.00  0.00    -0.000 C 
ATOM     38  C   UNL     1      33.855 -19.291 -23.127  0.00  0.00    -0.000 C 
ATOM     39  C   UNL     1      34.645 -18.218 -23.527  0.00  0.00    -0.000 C 
ENDBRANCH  29  30
ENDBRANCH   6  29
TORSDOF 9
ENDMDL
MODEL 2
REMARK VINA RESULT:     -10.8      1.959      2.626
REMARK  Name = 46937134
REMARK  9 active torsions:
REMARK  status: ('A' for Active; 'I' for Inactive)
REMARK    1  A    between atoms: N_2  and  C_15
REMARK    2  A    between atoms: N_6  and  C_29
REMARK    3  A    between atoms: C_16  and  O_19
REMARK    4  A    between atoms: C_18  and  C_21
REMARK    5  A    between atoms: C_21  and  O_22
REMARK    6  A    between atoms: O_22  and  P_23
REMARK    7  A    between atoms: P_23  and  O_25
REMARK    8  A    between atoms: P_23  and  O_27
REMARK    9  A    between atoms: C_29  and  C_30
REMARK                            x       y       z     vdW  Elec       q    Type
REMARK                         _______ _______ _______ _____ _____    ______ ____
ROOT
ATOM      1  O   UNL     1      29.670 -22.482 -16.567  0.00  0.00    -0.208 OA
ATOM      2  N   UNL     1      32.722 -24.427 -13.860  0.00  0.00    -0.209 NA
ATOM      3  N   UNL     1      33.553 -23.487 -15.944  0.00  0.00    -0.279 N 
ATOM      4  N   UNL     1      30.559 -23.902 -14.141  0.00  0.00    -0.241 NA
ATOM      5  N   UNL     1      31.863 -22.478 -17.318  0.00  0.00    -0.301 NA
ATOM      6  N   UNL     1      34.109 -22.540 -17.952  0.00  0.00    -0.292 N 
ATOM      7  C   UNL     1      32.610 -23.789 -15.048  0.00  0.00    +0.191 C 
ATOM      8  C   UNL     1      31.447 -24.472 -13.345  0.00  0.00    +0.205 C 
ATOM      9  C   UNL     1      31.293 -23.473 -15.211  0.00  0.00    +0.183 C 
ATOM     10  C   UNL     1      33.117 -22.818 -17.085  0.00  0.00    +0.248 C 
ATOM     11  C   UNL     1      30.847 -22.776 -16.401  0.00  0.00    +0.224 C 
ATOM     12  H   UNL     1      34.500 -23.725 -15.807  0.00  0.00    +0.152 HD
ATOM     13  H   UNL     1      35.025 -22.820 -17.723  0.00  0.00    +0.151 HD
ENDROOT
BRANCH   2  15
ATOM     14  O   UNL     1      34.598 -24.024 -12.343  0.00  0.00    -0.338 OA
ATOM     15  C   UNL     1      33.968 -24.982 -13.216  0.00  0.00    +0.182 C 
ATOM     16  C   UNL     1      36.299 -25.294 -13.416  0.00  0.00    +0.144 C 
ATOM     17  C   UNL     1      35.028 -25.403 -14.228  0.00  0.00    +0.079 C 
ATOM     18  C   UNL     1      36.028 -24.095 -12.515  0.00  0.00    +0.174 C 
BRANCH  16  19
ATOM     19  O   UNL     1      36.429 -26.470 -12.621  0.00  0.00    -0.382 OA
ATOM     20  H   UNL     1      36.794 -26.234 -11.753  0.00  0.00    +0.210 HD
ENDBRANCH  16  19
BRANCH  18  21
ATOM     21  C   UNL     1      36.492 -22.781 -13.129  0.00  0.00    +0.186 C 
BRANCH  21  22
ATOM     22  O   UNL     1      37.657 -23.027 -13.899  0.00  0.00    -0.271 OA
BRANCH  22  23
ATOM     23  P   UNL     1      37.619 -22.700 -15.484  0.00  0.00    +0.473 P 
ATOM     24  O   UNL     1      36.399 -23.194 -16.204  0.00  0.00    -0.227 OA
BRANCH  23  25
ATOM     25  O   UNL     1      37.835 -21.098 -15.527  0.00  0.00    -0.303 OA
ATOM     26  H   UNL     1      38.251 -20.851 -16.368  0.00  0.00    +0.222 HD
ENDBRANCH  23  25
BRANCH  23  27
ATOM     27  O   UNL     1      39.027 -23.281 -16.029  0.00  0.00    -0.303 OA
ATOM     28  H   UNL     1      39.010 -23.312 -16.998  0.00  0.00    +0.222 HD
ENDBRANCH  23  27
ENDBRANCH  22  23
ENDBRANCH  21  22
ENDBRANCH  18  21
ENDBRANCH   2  15
BRANCH   6  29
ATOM     29  C   UNL     1      33.890 -21.851 -19.203  0.00  0.00    +0.117 C 
BRANCH  29  30
ATOM     30  C   UNL     1      35.079 -21.014 -19.563  0.00  0.00    -0.003 C 
ATOM     31  C   UNL     1      35.077 -20.157 -20.675  0.00  0.00    -0.002 C 
ATOM     32  C   UNL     1      36.233 -19.393 -20.963  0.00  0.00    -0.000 C 
ATOM     33  C   UNL     1      36.204 -21.115 -18.745  0.00  0.00    -0.003 C 
ATOM     34  C   UNL     1      33.954 -20.043 -21.510  0.00  0.00    -0.000 C 
ATOM     35  C   UNL     1      37.357 -19.508 -20.129  0.00  0.00    -0.000 C 
ATOM     36  C   UNL     1      37.340 -20.364 -19.027  0.00  0.00    -0.000 C 
ATOM     37  C   UNL     1      36.231 -18.536 -22.076  0.00  0.00    -0.000 C 
ATOM     38  C   UNL     1      33.969 -19.187 -22.612  0.00  0.00    -0.000 C 
ATOM     39  C   UNL     1      35.106 -18.435 -22.894  0.00  0.00    -0.000 C 
ENDBRANCH  29  30
ENDBRANCH   6  29
TORSDOF 9
ENDMDL
MODEL 3
REMARK VINA RESULT:     -10.8      1.710      2.854
REMARK  Name = 46937134
REMARK  9 active torsions:
REMARK  status: ('A' for Active; 'I' for Inactive)
REMARK    1  A    between atoms: N_2  and  C_15
REMARK    2  A    between atoms: N_6  and  C_29
REMARK    3  A    between atoms: C_16  and  O_19
REMARK    4  A    between atoms: C_18  and  C_21
REMARK    5  A    between atoms: C_21  and  O_22
REMARK    6  A    between atoms: O_22  and  P_23
REMARK    7  A    between atoms: P_23  and  O_25
REMARK    8  A    between atoms: P_23  and  O_27
REMARK    9  A    between atoms: C_29  and  C_30
REMARK                            x       y       z     vdW  Elec       q    Type
REMARK                         _______ _______ _______ _____ _____    ______ ____
ROOT
ATOM      1  O   UNL     1      31.045 -22.641 -16.655  0.00  0.00    -0.208 OA
ATOM      2  N   UNL     1      34.973 -24.272 -15.127  0.00  0.00    -0.209 NA
ATOM      3  N   UNL     1      35.051 -23.002 -17.200  0.00  0.00    -0.279 N 
ATOM      4  N   UNL     1      32.764 -24.112 -14.765  0.00  0.00    -0.241 NA
ATOM      5  N   UNL     1      32.920 -22.177 -17.936  0.00  0.00    -0.301 NA
ATOM      6  N   UNL     1      34.888 -21.780 -19.128  0.00  0.00    -0.292 N 
ATOM      7  C   UNL     1      34.446 -23.551 -16.143  0.00  0.00    +0.191 C 
ATOM      8  C   UNL     1      33.909 -24.592 -14.313  0.00  0.00    +0.205 C 
ATOM      9  C   UNL     1      33.104 -23.458 -15.916  0.00  0.00    +0.183 C 
ATOM     10  C   UNL     1      34.225 -22.312 -18.084  0.00  0.00    +0.248 C 
ATOM     11  C   UNL     1      32.251 -22.738 -16.840  0.00  0.00    +0.224 C 
ATOM     12  H   UNL     1      36.022 -23.081 -17.346  0.00  0.00    +0.152 HD
ATOM     13  H   UNL     1      35.861 -21.916 -19.185  0.00  0.00    +0.151 HD
ENDROOT
BRANCH   2  15
ATOM     14  O   UNL     1      36.538 -25.936 -14.254  0.00  0.00    -0.338 OA
ATOM     15  C   UNL     1      36.414 -24.659 -14.909  0.00  0.00    +0.182 C 
ATOM     16  C   UNL     1      38.279 -24.517 -13.470  0.00  0.00    +0.144 C 
ATOM     17  C   UNL     1      37.178 -23.658 -14.048  0.00  0.00    +0.079 C 
ATOM     18  C   UNL     1      37.595 -25.865 -13.276  0.00  0.00    +0.174 C 
BRANCH  16  19
ATOM     19  O   UNL     1      39.314 -24.642 -14.443  0.00  0.00    -0.382 OA
ATOM     20  H   UNL     1      39.011 -25.215 -15.165  0.00  0.00    +0.210 HD
ENDBRANCH  16  19
BRANCH  18  21
ATOM     21  C   UNL     1      36.968 -26.013 -11.896  0.00  0.00    +0.186 C 
BRANCH  21  22
ATOM     22  O   UNL     1      37.455 -24.975 -11.063  0.00  0.00    -0.271 OA
BRANCH  22  23
ATOM     23  P   UNL     1      36.401 -23.895 -10.479  0.00  0.00    +0.473 P 
ATOM     24  O   UNL     1      35.077 -23.855 -11.185  0.00  0.00    -0.227 OA
BRANCH  23  25
ATOM     25  O   UNL     1      36.326 -24.275  -8.909  0.00  0.00    -0.303 OA
ATOM     26  H   UNL     1      37.221 -24.451  -8.576  0.00  0.00    +0.222 HD
ENDBRANCH  23  25
BRANCH  23  27
ATOM     27  O   UNL     1      37.231 -22.507 -10.487  0.00  0.00    -0.303 OA
ATOM     28  H   UNL     1      38.177 -22.696 -10.581  0.00  0.00    +0.222 HD
ENDBRANCH  23  27
ENDBRANCH  22  23
ENDBRANCH  21  22
ENDBRANCH  18  21
ENDBRANCH   2  15
BRANCH   6  29
ATOM     29  C   UNL     1      34.235 -21.022 -20.170  0.00  0.00    +0.117 C 
BRANCH  29  30
ATOM     30  C   UNL     1      35.170 -20.008 -20.754  0.00  0.00    -0.003 C 
ATOM     31  C   UNL     1      34.887 -19.340 -21.956  0.00  0.00    -0.002 C 
ATOM     32  C   UNL     1      35.813 -18.393 -22.457  0.00  0.00    -0.000 C 
ATOM     33  C   UNL     1      36.347 -19.746 -20.054  0.00  0.00    -0.003 C 
ATOM     34  C   UNL     1      33.707 -19.591 -22.675  0.00  0.00    -0.000 C 
ATOM     35  C   UNL     1      36.994 -18.143 -21.739  0.00  0.00    -0.000 C 
ATOM     36  C   UNL     1      37.258 -18.815 -20.545  0.00  0.00    -0.000 C 
ATOM     37  C   UNL     1      35.531 -17.725 -23.660  0.00  0.00    -0.000 C 
ATOM     38  C   UNL     1      33.443 -18.919 -23.868  0.00  0.00    -0.000 C 
ATOM     39  C   UNL     1      34.353 -17.987 -24.359  0.00  0.00    -0.000 C 
ENDBRANCH  29  30
ENDBRANCH   6  29
TORSDOF 9
ENDMDL
MODEL 4
REMARK VINA RESULT:     -10.6      2.745      4.451
REMARK  Name = 46937134
REMARK  9 active torsions:
REMARK  status: ('A' for Active; 'I' for Inactive)
REMARK    1  A    between atoms: N_2  and  C_15
REMARK    2  A    between atoms: N_6  and  C_29
REMARK    3  A    between atoms: C_16  and  O_19
REMARK    4  A    between atoms: C_18  and  C_21
REMARK    5  A    between atoms: C_21  and  O_22
REMARK    6  A    between atoms: O_22  and  P_23
REMARK    7  A    between atoms: P_23  and  O_25
REMARK    8  A    between atoms: P_23  and  O_27
REMARK    9  A    between atoms: C_29  and  C_30
REMARK                            x       y       z     vdW  Elec       q    Type
REMARK                         _______ _______ _______ _____ _____    ______ ____
ROOT
ATOM      1  O   UNL     1      31.812 -20.544 -20.570  0.00  0.00    -0.208 OA
ATOM      2  N   UNL     1      34.830 -22.396 -17.762  0.00  0.00    -0.209 NA
ATOM      3  N   UNL     1      35.697 -20.864 -19.440  0.00  0.00    -0.279 N 
ATOM      4  N   UNL     1      32.664 -22.266 -18.334  0.00  0.00    -0.241 NA
ATOM      5  N   UNL     1      34.024 -19.930 -20.887  0.00  0.00    -0.301 NA
ATOM      6  N   UNL     1      36.288 -19.396 -21.094  0.00  0.00    -0.292 N 
ATOM      7  C   UNL     1      34.737 -21.542 -18.807  0.00  0.00    +0.191 C 
ATOM      8  C   UNL     1      33.542 -22.811 -17.510  0.00  0.00    +0.205 C 
ATOM      9  C   UNL     1      33.418 -21.468 -19.149  0.00  0.00    +0.183 C 
ATOM     10  C   UNL     1      35.279 -20.055 -20.494  0.00  0.00    +0.248 C 
ATOM     11  C   UNL     1      32.990 -20.625 -20.247  0.00  0.00    +0.224 C 
ATOM     12  H   UNL     1      36.645 -20.931 -19.177  0.00  0.00    +0.152 HD
ATOM     13  H   UNL     1      37.203 -19.531 -20.757  0.00  0.00    +0.151 HD
ENDROOT
BRANCH   2  15
ATOM     14  O   UNL     1      35.784 -23.822 -16.019  0.00  0.00    -0.338 OA
ATOM     15  C   UNL     1      36.069 -22.821 -17.015  0.00  0.00    +0.182 C 
ATOM     16  C   UNL     1      37.486 -22.390 -15.177  0.00  0.00    +0.144 C 
ATOM     17  C   UNL     1      36.750 -21.669 -16.282  0.00  0.00    +0.079 C 
ATOM     18  C   UNL     1      36.543 -23.534 -14.827  0.00  0.00    +0.174 C 
BRANCH  16  19
ATOM     19  O   UNL     1      38.699 -22.916 -15.710  0.00  0.00    -0.382 OA
ATOM     20  H   UNL     1      38.955 -23.708 -15.211  0.00  0.00    +0.210 HD
ENDBRANCH  16  19
BRANCH  18  21
ATOM     21  C   UNL     1      35.560 -23.170 -13.722  0.00  0.00    +0.186 C 
BRANCH  21  22
ATOM     22  O   UNL     1      36.181 -23.402 -12.469  0.00  0.00    -0.271 OA
BRANCH  22  23
ATOM     23  P   UNL     1      35.665 -24.646 -11.571  0.00  0.00    +0.473 P 
ATOM     24  O   UNL     1      35.933 -24.518 -10.099  0.00  0.00    -0.227 OA
BRANCH  23  25
ATOM     25  O   UNL     1      34.104 -24.760 -11.973  0.00  0.00    -0.303 OA
ATOM     26  H   UNL     1      33.735 -23.871 -12.096  0.00  0.00    +0.222 HD
ENDBRANCH  23  25
BRANCH  23  27
ATOM     27  O   UNL     1      36.330 -25.935 -12.285  0.00  0.00    -0.303 OA
ATOM     28  H   UNL     1      35.635 -26.468 -12.701  0.00  0.00    +0.222 HD
ENDBRANCH  23  27
ENDBRANCH  22  23
ENDBRANCH  21  22
ENDBRANCH  18  21
ENDBRANCH   2  15
BRANCH   6  29
ATOM     29  C   UNL     1      36.088 -18.501 -22.210  0.00  0.00    +0.117 C 
BRANCH  29  30
ATOM     30  C   UNL     1      35.457 -17.220 -21.758  0.00  0.00    -0.003 C 
ATOM     31  C   UNL     1      34.859 -16.325 -22.660  0.00  0.00    -0.002 C 
ATOM     32  C   UNL     1      34.280 -15.131 -22.169  0.00  0.00    -0.000 C 
ATOM     33  C   UNL     1      35.483 -16.942 -20.391  0.00  0.00    -0.003 C 
ATOM     34  C   UNL     1      34.824 -16.589 -24.039  0.00  0.00    -0.000 C 
ATOM     35  C   UNL     1      34.317 -14.867 -20.790  0.00  0.00    -0.000 C 
ATOM     36  C   UNL     1      34.914 -15.768 -19.908  0.00  0.00    -0.000 C 
ATOM     37  C   UNL     1      33.683 -14.235 -23.071  0.00  0.00    -0.000 C 
ATOM     38  C   UNL     1      34.226 -15.688 -24.921  0.00  0.00    -0.000 C 
ATOM     39  C   UNL     1      33.657 -14.514 -24.437  0.00  0.00    -0.000 C 
ENDBRANCH  29  30
ENDBRANCH   6  29
TORSDOF 9
ENDMDL
MODEL 5
REMARK VINA RESULT:      -9.4     11.592     14.904
REMARK  Name = 46937134
REMARK  9 active torsions:
REMARK  status: ('A' for Active; 'I' for Inactive)
REMARK    1  A    between atoms: N_2  and  C_15
REMARK    2  A    between atoms: N_6  and  C_29
REMARK    3  A    between atoms: C_16  and  O_19
REMARK    4  A    between atoms: C_18  and  C_21
REMARK    5  A    between atoms: C_21  and  O_22
REMARK    6  A    between atoms: O_22  and  P_23
REMARK    7  A    between atoms: P_23  and  O_25
REMARK    8  A    between atoms: P_23  and  O_27
REMARK    9  A    between atoms: C_29  and  C_30
REMARK                            x       y       z     vdW  Elec       q    Type
REMARK                         _______ _______ _______ _____ _____    ______ ____
ROOT
ATOM      1  O   UNL     1      31.815  -8.781 -18.752  0.00  0.00    -0.208 OA
ATOM      2  N   UNL     1      32.370 -12.137 -21.728  0.00  0.00    -0.209 NA
ATOM      3  N   UNL     1      32.251  -9.883 -22.635  0.00  0.00    -0.279 N 
ATOM      4  N   UNL     1      32.133 -11.597 -19.563  0.00  0.00    -0.241 NA
ATOM      5  N   UNL     1      31.954  -8.166 -20.982  0.00  0.00    -0.301 NA
ATOM      6  N   UNL     1      32.112  -7.686 -23.262  0.00  0.00    -0.292 N 
ATOM      7  C   UNL     1      32.245 -10.792 -21.656  0.00  0.00    +0.191 C 
ATOM      8  C   UNL     1      32.296 -12.583 -20.428  0.00  0.00    +0.205 C 
ATOM      9  C   UNL     1      32.103 -10.472 -20.337  0.00  0.00    +0.183 C 
ATOM     10  C   UNL     1      32.099  -8.557 -22.235  0.00  0.00    +0.248 C 
ATOM     11  C   UNL     1      31.944  -9.090 -19.930  0.00  0.00    +0.224 C 
ATOM     12  H   UNL     1      32.356 -10.135 -23.581  0.00  0.00    +0.152 HD
ATOM     13  H   UNL     1      32.222  -8.038 -24.175  0.00  0.00    +0.151 HD
ENDROOT
BRANCH   2  15
ATOM     14  O   UNL     1      32.663 -14.389 -22.634  0.00  0.00    -0.338 OA
ATOM     15  C   UNL     1      32.552 -12.990 -22.958  0.00  0.00    +0.182 C 
ATOM     16  C   UNL     1      34.099 -13.928 -24.474  0.00  0.00    +0.144 C 
ATOM     17  C   UNL     1      33.803 -12.633 -23.754  0.00  0.00    +0.079 C 
ATOM     18  C   UNL     1      33.685 -14.986 -23.458  0.00  0.00    +0.174 C 
BRANCH  16  19
ATOM     19  O   UNL     1      33.256 -14.011 -25.621  0.00  0.00    -0.382 OA
ATOM     20  H   UNL     1      32.517 -13.389 -25.524  0.00  0.00    +0.210 HD
ENDBRANCH  16  19
BRANCH  18  21
ATOM     21  C   UNL     1      34.831 -15.411 -22.550  0.00  0.00    +0.186 C 
BRANCH  21  22
ATOM     22  O   UNL     1      35.278 -16.694 -22.953  0.00  0.00    -0.271 OA
BRANCH  22  23
ATOM     23  P   UNL     1      35.633 -17.783 -21.809  0.00  0.00    +0.473 P 
ATOM     24  O   UNL     1      35.483 -17.291 -20.399  0.00  0.00    -0.227 OA
BRANCH  23  25
ATOM     25  O   UNL     1      34.691 -19.038 -22.199  0.00  0.00    -0.303 OA
ATOM     26  H   UNL     1      33.788 -18.874 -21.882  0.00  0.00    +0.222 HD
ENDBRANCH  23  25
BRANCH  23  27
ATOM     27  O   UNL     1      37.115 -18.290 -22.211  0.00  0.00    -0.303 OA
ATOM     28  H   UNL     1      37.166 -18.410 -23.172  0.00  0.00    +0.222 HD
ENDBRANCH  23  27
ENDBRANCH  22  23
ENDBRANCH  21  22
ENDBRANCH  18  21
ENDBRANCH   2  15
BRANCH   6  29
ATOM     29  C   UNL     1      31.970  -6.259 -23.085  0.00  0.00    +0.117 C 
BRANCH  29  30
ATOM     30  C   UNL     1      32.871  -5.516 -24.022  0.00  0.00    -0.003 C 
ATOM     31  C   UNL     1      32.501  -4.289 -24.595  0.00  0.00    -0.002 C 
ATOM     32  C   UNL     1      33.397  -3.636 -25.475  0.00  0.00    -0.000 C 
ATOM     33  C   UNL     1      34.109  -6.091 -24.311  0.00  0.00    -0.003 C 
ATOM     34  C   UNL     1      31.259  -3.695 -24.315  0.00  0.00    -0.000 C 
ATOM     35  C   UNL     1      34.638  -4.230 -25.755  0.00  0.00    -0.000 C 
ATOM     36  C   UNL     1      34.990  -5.450 -25.176  0.00  0.00    -0.000 C 
ATOM     37  C   UNL     1      33.026  -2.409 -26.048  0.00  0.00    -0.000 C 
ATOM     38  C   UNL     1      30.906  -2.475 -24.894  0.00  0.00    -0.000 C 
ATOM     39  C   UNL     1      31.789  -1.834 -25.758  0.00  0.00    -0.000 C 
ENDBRANCH  29  30
ENDBRANCH   6  29
TORSDOF 9
ENDMDL
MODEL 6
REMARK VINA RESULT:      -9.3     12.369     16.434
REMARK  Name = 46937134
REMARK  9 active torsions:
REMARK  status: ('A' for Active; 'I' for Inactive)
REMARK    1  A    between atoms: N_2  and  C_15
REMARK    2  A    between atoms: N_6  and  C_29
REMARK    3  A    between atoms: C_16  and  O_19
REMARK    4  A    between atoms: C_18  and  C_21
REMARK    5  A    between atoms: C_21  and  O_22
REMARK    6  A    between atoms: O_22  and  P_23
REMARK    7  A    between atoms: P_23  and  O_25
REMARK    8  A    between atoms: P_23  and  O_27
REMARK    9  A    between atoms: C_29  and  C_30
REMARK                            x       y       z     vdW  Elec       q    Type
REMARK                         _______ _______ _______ _____ _____    ______ ____
ROOT
ATOM      1  O   UNL     1      35.637 -10.235 -26.143  0.00  0.00    -0.208 OA
ATOM      2  N   UNL     1      33.428  -8.207 -22.761  0.00  0.00    -0.209 NA
ATOM      3  N   UNL     1      33.288 -10.633 -22.856  0.00  0.00    -0.279 N 
ATOM      4  N   UNL     1      34.726  -7.915 -24.569  0.00  0.00    -0.241 NA
ATOM      5  N   UNL     1      34.489 -11.623 -24.684  0.00  0.00    -0.301 NA
ATOM      6  N   UNL     1      33.294 -12.904 -23.141  0.00  0.00    -0.292 N 
ATOM      7  C   UNL     1      33.687  -9.430 -23.277  0.00  0.00    +0.191 C 
ATOM      8  C   UNL     1      34.082  -7.315 -23.582  0.00  0.00    +0.205 C 
ATOM      9  C   UNL     1      34.476  -9.244 -24.374  0.00  0.00    +0.183 C 
ATOM     10  C   UNL     1      33.726 -11.719 -23.611  0.00  0.00    +0.248 C 
ATOM     11  C   UNL     1      34.928 -10.379 -25.155  0.00  0.00    +0.224 C 
ATOM     12  H   UNL     1      32.718 -10.746 -22.060  0.00  0.00    +0.152 HD
ATOM     13  H   UNL     1      32.726 -12.911 -22.337  0.00  0.00    +0.151 HD
ENDROOT
BRANCH   2  15
ATOM     14  O   UNL     1      31.505  -6.988 -21.869  0.00  0.00    -0.338 OA
ATOM     15  C   UNL     1      32.602  -7.864 -21.547  0.00  0.00    +0.182 C 
ATOM     16  C   UNL     1      32.330  -6.397 -19.719  0.00  0.00    +0.144 C 
ATOM     17  C   UNL     1      33.404  -7.164 -20.455  0.00  0.00    +0.079 C 
ATOM     18  C   UNL     1      31.371  -5.995 -20.832  0.00  0.00    +0.174 C 
BRANCH  16  19
ATOM     19  O   UNL     1      31.673  -7.289 -18.821  0.00  0.00    -0.382 OA
ATOM     20  H   UNL     1      30.753  -7.004 -18.699  0.00  0.00    +0.210 HD
ENDBRANCH  16  19
BRANCH  18  21
ATOM     21  C   UNL     1      31.707  -4.638 -21.436  0.00  0.00    +0.186 C 
BRANCH  21  22
ATOM     22  O   UNL     1      30.845  -4.406 -22.538  0.00  0.00    -0.271 OA
BRANCH  22  23
ATOM     23  P   UNL     1      31.493  -4.304 -24.018  0.00  0.00    +0.473 P 
ATOM     24  O   UNL     1      32.953  -3.956 -24.047  0.00  0.00    -0.227 OA
BRANCH  23  25
ATOM     25  O   UNL     1      31.119  -5.732 -24.676  0.00  0.00    -0.303 OA
ATOM     26  H   UNL     1      30.946  -6.377 -23.972  0.00  0.00    +0.222 HD
ENDBRANCH  23  25
BRANCH  23  27
ATOM     27  O   UNL     1      30.520  -3.270 -24.791  0.00  0.00    -0.303 OA
ATOM     28  H   UNL     1      30.477  -3.508 -25.730  0.00  0.00    +0.222 HD
ENDBRANCH  23  27
ENDBRANCH  22  23
ENDBRANCH  21  22
ENDBRANCH  18  21
ENDBRANCH   2  15
BRANCH   6  29
ATOM     29  C   UNL     1      33.625 -14.165 -23.764  0.00  0.00    +0.117 C 
BRANCH  29  30
ATOM     30  C   UNL     1      34.165 -15.130 -22.755  0.00  0.00    -0.003 C 
ATOM     31  C   UNL     1      34.426 -16.473 -23.073  0.00  0.00    -0.002 C 
ATOM     32  C   UNL     1      34.936 -17.335 -22.073  0.00  0.00    -0.000 C 
ATOM     33  C   UNL     1      34.405 -14.644 -21.469  0.00  0.00    -0.003 C 
ATOM     34  C   UNL     1      34.190 -16.979 -24.361  0.00  0.00    -0.000 C 
ATOM     35  C   UNL     1      35.170 -16.829 -20.785  0.00  0.00    -0.000 C 
ATOM     36  C   UNL     1      34.906 -15.492 -20.486  0.00  0.00    -0.000 C 
ATOM     37  C   UNL     1      35.195 -18.679 -22.391  0.00  0.00    -0.000 C 
ATOM     38  C   UNL     1      34.454 -18.316 -24.660  0.00  0.00    -0.000 C 
ATOM     39  C   UNL     1      34.956 -19.164 -23.677  0.00  0.00    -0.000 C 
ENDBRANCH  29  30
ENDBRANCH   6  29
TORSDOF 9
ENDMDL
MODEL 7
REMARK VINA RESULT:      -9.1     11.679     15.141
REMARK  Name = 46937134
REMARK  9 active torsions:
REMARK  status: ('A' for Active; 'I' for Inactive)
REMARK    1  A    between atoms: N_2  and  C_15
REMARK    2  A    between atoms: N_6  and  C_29
REMARK    3  A    between atoms: C_16  and  O_19
REMARK    4  A    between atoms: C_18  and  C_21
REMARK    5  A    between atoms: C_21  and  O_22
REMARK    6  A    between atoms: O_22  and  P_23
REMARK    7  A    between atoms: P_23  and  O_25
REMARK    8  A    between atoms: P_23  and  O_27
REMARK    9  A    between atoms: C_29  and  C_30
REMARK                            x       y       z     vdW  Elec       q    Type
REMARK                         _______ _______ _______ _____ _____    ______ ____
ROOT
ATOM      1  O   UNL     1      32.039  -7.831 -19.134  0.00  0.00    -0.208 OA
ATOM      2  N   UNL     1      32.132 -11.492 -21.781  0.00  0.00    -0.209 NA
ATOM      3  N   UNL     1      33.101  -9.458 -22.697  0.00  0.00    -0.279 N 
ATOM      4  N   UNL     1      31.518 -10.657 -19.791  0.00  0.00    -0.241 NA
ATOM      5  N   UNL     1      33.005  -7.566 -21.223  0.00  0.00    -0.301 NA
ATOM      6  N   UNL     1      33.954  -7.438 -23.353  0.00  0.00    -0.292 N 
ATOM      7  C   UNL     1      32.492 -10.189 -21.759  0.00  0.00    +0.191 C 
ATOM      8  C   UNL     1      31.542 -11.731 -20.561  0.00  0.00    +0.205 C 
ATOM      9  C   UNL     1      32.116  -9.689 -20.547  0.00  0.00    +0.183 C 
ATOM     10  C   UNL     1      33.339  -8.125 -22.372  0.00  0.00    +0.248 C 
ATOM     11  C   UNL     1      32.367  -8.300 -20.216  0.00  0.00    +0.224 C 
ATOM     12  H   UNL     1      33.365  -9.839 -23.567  0.00  0.00    +0.152 HD
ATOM     13  H   UNL     1      34.176  -7.910 -24.188  0.00  0.00    +0.151 HD
ENDROOT
BRANCH   2  15
ATOM     14  O   UNL     1      32.406 -13.843 -22.399  0.00  0.00    -0.338 OA
ATOM     15  C   UNL     1      32.323 -12.492 -22.894  0.00  0.00    +0.182 C 
ATOM     16  C   UNL     1      33.883 -13.631 -24.251  0.00  0.00    +0.144 C 
ATOM     17  C   UNL     1      33.595 -12.253 -23.701  0.00  0.00    +0.079 C 
ATOM     18  C   UNL     1      33.433 -14.551 -23.122  0.00  0.00    +0.174 C 
BRANCH  16  19
ATOM     19  O   UNL     1      33.061 -13.842 -25.396  0.00  0.00    -0.382 OA
ATOM     20  H   UNL     1      32.613 -14.699 -25.319  0.00  0.00    +0.210 HD
ENDBRANCH  16  19
BRANCH  18  21
ATOM     21  C   UNL     1      34.555 -14.876 -22.145  0.00  0.00    +0.186 C 
BRANCH  21  22
ATOM     22  O   UNL     1      35.356 -15.905 -22.702  0.00  0.00    -0.271 OA
BRANCH  22  23
ATOM     23  P   UNL     1      35.504 -17.295 -21.885  0.00  0.00    +0.473 P 
ATOM     24  O   UNL     1      35.326 -17.179 -20.400  0.00  0.00    -0.227 OA
BRANCH  23  25
ATOM     25  O   UNL     1      34.444 -18.264 -22.627  0.00  0.00    -0.303 OA
ATOM     26  H   UNL     1      33.788 -18.578 -21.984  0.00  0.00    +0.222 HD
ENDBRANCH  23  25
BRANCH  23  27
ATOM     27  O   UNL     1      36.937 -17.871 -22.368  0.00  0.00    -0.303 OA
ATOM     28  H   UNL     1      37.573 -17.804 -21.640  0.00  0.00    +0.222 HD
ENDBRANCH  23  27
ENDBRANCH  22  23
ENDBRANCH  21  22
ENDBRANCH  18  21
ENDBRANCH   2  15
BRANCH   6  29
ATOM     29  C   UNL     1      34.300  -6.040 -23.236  0.00  0.00    +0.117 C 
BRANCH  29  30
ATOM     30  C   UNL     1      33.523  -5.218 -24.217  0.00  0.00    -0.003 C 
ATOM     31  C   UNL     1      34.067  -4.816 -25.448  0.00  0.00    -0.002 C 
ATOM     32  C   UNL     1      33.281  -4.038 -26.332  0.00  0.00    -0.000 C 
ATOM     33  C   UNL     1      32.222  -4.860 -23.864  0.00  0.00    -0.003 C 
ATOM     34  C   UNL     1      35.374  -5.166 -25.821  0.00  0.00    -0.000 C 
ATOM     35  C   UNL     1      31.974  -3.685 -25.958  0.00  0.00    -0.000 C 
ATOM     36  C   UNL     1      31.449  -4.095 -24.732  0.00  0.00    -0.000 C 
ATOM     37  C   UNL     1      33.825  -3.634 -27.562  0.00  0.00    -0.000 C 
ATOM     38  C   UNL     1      35.900  -4.758 -27.047  0.00  0.00    -0.000 C 
ATOM     39  C   UNL     1      35.126  -3.994 -27.916  0.00  0.00    -0.000 C 
ENDBRANCH  29  30
ENDBRANCH   6  29
TORSDOF 9
ENDMDL
MODEL 8
REMARK VINA RESULT:      -9.1     11.728     15.671
REMARK  Name = 46937134
REMARK  9 active torsions:
REMARK  status: ('A' for Active; 'I' for Inactive)
REMARK    1  A    between atoms: N_2  and  C_15
REMARK    2  A    between atoms: N_6  and  C_29
REMARK    3  A    between atoms: C_16  and  O_19
REMARK    4  A    between atoms: C_18  and  C_21
REMARK    5  A    between atoms: C_21  and  O_22
REMARK    6  A    between atoms: O_22  and  P_23
REMARK    7  A    between atoms: P_23  and  O_25
REMARK    8  A    between atoms: P_23  and  O_27
REMARK    9  A    between atoms: C_29  and  C_30
REMARK                            x       y       z     vdW  Elec       q    Type
REMARK                         _______ _______ _______ _____ _____    ______ ____
ROOT
ATOM      1  O   UNL     1      32.148  -9.929 -17.671  0.00  0.00    -0.208 OA
ATOM      2  N   UNL     1      31.958  -7.051 -21.151  0.00  0.00    -0.209 NA
ATOM      3  N   UNL     1      32.154  -9.413 -21.698  0.00  0.00    -0.279 N 
ATOM      4  N   UNL     1      31.949  -7.265 -18.917  0.00  0.00    -0.241 NA
ATOM      5  N   UNL     1      32.250 -10.866 -19.789  0.00  0.00    -0.301 NA
ATOM      6  N   UNL     1      32.340 -11.677 -21.976  0.00  0.00    -0.292 N 
ATOM      7  C   UNL     1      32.061  -8.370 -20.869  0.00  0.00    +0.191 C 
ATOM      8  C   UNL     1      31.893  -6.418 -19.931  0.00  0.00    +0.205 C 
ATOM      9  C   UNL     1      32.054  -8.492 -19.510  0.00  0.00    +0.183 C 
ATOM     10  C   UNL     1      32.248 -10.665 -21.094  0.00  0.00    +0.248 C 
ATOM     11  C   UNL     1      32.153  -9.797 -18.889  0.00  0.00    +0.224 C 
ATOM     12  H   UNL     1      32.157  -9.304 -22.677  0.00  0.00    +0.152 HD
ATOM     13  H   UNL     1      32.334 -11.464 -22.937  0.00  0.00    +0.151 HD
ENDROOT
BRANCH   2  15
ATOM     14  O   UNL     1      32.353  -7.278 -23.554  0.00  0.00    -0.338 OA
ATOM     15  C   UNL     1      31.921  -6.390 -22.506  0.00  0.00    +0.182 C 
ATOM     16  C   UNL     1      33.105  -5.083 -24.075  0.00  0.00    +0.144 C 
ATOM     17  C   UNL     1      32.815  -5.156 -22.593  0.00  0.00    +0.079 C 
ATOM     18  C   UNL     1      33.182  -6.549 -24.482  0.00  0.00    +0.174 C 
BRANCH  16  19
ATOM     19  O   UNL     1      31.996  -4.464 -24.723  0.00  0.00    -0.382 OA
ATOM     20  H   UNL     1      32.221  -3.545 -24.941  0.00  0.00    +0.210 HD
ENDBRANCH  16  19
BRANCH  18  21
ATOM     21  C   UNL     1      34.594  -7.112 -24.391  0.00  0.00    +0.186 C 
BRANCH  21  22
ATOM     22  O   UNL     1      34.565  -8.283 -23.594  0.00  0.00    -0.271 OA
BRANCH  22  23
ATOM     23  P   UNL     1      34.550  -9.722 -24.335  0.00  0.00    +0.473 P 
ATOM     24  O   UNL     1      35.426  -9.819 -25.549  0.00  0.00    -0.227 OA
BRANCH  23  25
ATOM     25  O   UNL     1      34.922 -10.747 -23.141  0.00  0.00    -0.303 OA
ATOM     26  H   UNL     1      34.448 -10.490 -22.334  0.00  0.00    +0.222 HD
ENDBRANCH  23  25
BRANCH  23  27
ATOM     27  O   UNL     1      32.978 -10.004 -24.591  0.00  0.00    -0.303 OA
ATOM     28  H   UNL     1      32.485  -9.855 -23.770  0.00  0.00    +0.222 HD
ENDBRANCH  23  27
ENDBRANCH  22  23
ENDBRANCH  21  22
ENDBRANCH  18  21
ENDBRANCH   2  15
BRANCH   6  29
ATOM     29  C   UNL     1      32.447 -13.062 -21.577  0.00  0.00    +0.117 C 
BRANCH  29  30
ATOM     30  C   UNL     1      33.127 -13.869 -22.638  0.00  0.00    -0.003 C 
ATOM     31  C   UNL     1      33.966 -14.952 -22.328  0.00  0.00    -0.002 C 
ATOM     32  C   UNL     1      34.581 -15.675 -23.378  0.00  0.00    -0.000 C 
ATOM     33  C   UNL     1      32.896 -13.507 -23.965  0.00  0.00    -0.003 C 
ATOM     34  C   UNL     1      34.210 -15.332 -20.998  0.00  0.00    -0.000 C 
ATOM     35  C   UNL     1      34.337 -15.295 -24.707  0.00  0.00    -0.000 C 
ATOM     36  C   UNL     1      33.499 -14.218 -24.998  0.00  0.00    -0.000 C 
ATOM     37  C   UNL     1      35.421 -16.757 -23.067  0.00  0.00    -0.000 C 
ATOM     38  C   UNL     1      35.047 -16.409 -20.707  0.00  0.00    -0.000 C 
ATOM     39  C   UNL     1      35.651 -17.121 -21.740  0.00  0.00    -0.000 C 
ENDBRANCH  29  30
ENDBRANCH   6  29
TORSDOF 9
ENDMDL
MODEL 9
REMARK VINA RESULT:      -8.8      2.490      4.230
REMARK  Name = 46937134
REMARK  9 active torsions:
REMARK  status: ('A' for Active; 'I' for Inactive)
REMARK    1  A    between atoms: N_2  and  C_15
REMARK    2  A    between atoms: N_6  and  C_29
REMARK    3  A    between atoms: C_16  and  O_19
REMARK    4  A    between atoms: C_18  and  C_21
REMARK    5  A    between atoms: C_21  and  O_22
REMARK    6  A    between atoms: O_22  and  P_23
REMARK    7  A    between atoms: P_23  and  O_25
REMARK    8  A    between atoms: P_23  and  O_27
REMARK    9  A    between atoms: C_29  and  C_30
REMARK                            x       y       z     vdW  Elec       q    Type
REMARK                         _______ _______ _______ _____ _____    ______ ____
ROOT
ATOM      1  O   UNL     1      32.333 -20.277 -20.366  0.00  0.00    -0.208 OA
ATOM      2  N   UNL     1      34.958 -22.678 -17.579  0.00  0.00    -0.209 NA
ATOM      3  N   UNL     1      36.050 -20.930 -18.871  0.00  0.00    -0.279 N 
ATOM      4  N   UNL     1      32.878 -22.371 -18.364  0.00  0.00    -0.241 NA
ATOM      5  N   UNL     1      34.579 -19.710 -20.324  0.00  0.00    -0.301 NA
ATOM      6  N   UNL     1      36.862 -19.240 -20.182  0.00  0.00    -0.292 N 
ATOM      7  C   UNL     1      35.007 -21.664 -18.472  0.00  0.00    +0.191 C 
ATOM      8  C   UNL     1      33.641 -23.077 -17.547  0.00  0.00    +0.205 C 
ATOM      9  C   UNL     1      33.740 -21.483 -18.944  0.00  0.00    +0.183 C 
ATOM     10  C   UNL     1      35.775 -19.946 -19.818  0.00  0.00    +0.248 C 
ATOM     11  C   UNL     1      33.463 -20.457 -19.930  0.00  0.00    +0.224 C 
ATOM     12  H   UNL     1      36.957 -21.077 -18.517  0.00  0.00    +0.152 HD
ATOM     13  H   UNL     1      37.727 -19.464 -19.770  0.00  0.00    +0.151 HD
ENDROOT
BRANCH   2  15
ATOM     14  O   UNL     1      35.621 -24.185 -15.770  0.00  0.00    -0.338 OA
ATOM     15  C   UNL     1      36.091 -23.267 -16.776  0.00  0.00    +0.182 C 
ATOM     16  C   UNL     1      37.494 -23.008 -14.896  0.00  0.00    +0.144 C 
ATOM     17  C   UNL     1      36.916 -22.213 -16.043  0.00  0.00    +0.079 C 
ATOM     18  C   UNL     1      36.374 -23.985 -14.557  0.00  0.00    +0.174 C 
BRANCH  16  19
ATOM     19  O   UNL     1      38.628 -23.729 -15.371  0.00  0.00    -0.382 OA
ATOM     20  H   UNL     1      39.437 -23.239 -15.151  0.00  0.00    +0.210 HD
ENDBRANCH  16  19
BRANCH  18  21
ATOM     21  C   UNL     1      35.422 -23.444 -13.498  0.00  0.00    +0.186 C 
BRANCH  21  22
ATOM     22  O   UNL     1      36.111 -23.378 -12.261  0.00  0.00    -0.271 OA
BRANCH  22  23
ATOM     23  P   UNL     1      36.176 -24.709 -11.341  0.00  0.00    +0.473 P 
ATOM     24  O   UNL     1      37.089 -25.786 -11.849  0.00  0.00    -0.227 OA
BRANCH  23  25
ATOM     25  O   UNL     1      36.556 -24.122  -9.883  0.00  0.00    -0.303 OA
ATOM     26  H   UNL     1      35.803 -23.622  -9.530  0.00  0.00    +0.222 HD
ENDBRANCH  23  25
BRANCH  23  27
ATOM     27  O   UNL     1      34.625 -25.137 -11.178  0.00  0.00    -0.303 OA
ATOM     28  H   UNL     1      34.545 -26.100 -11.261  0.00  0.00    +0.222 HD
ENDBRANCH  23  27
ENDBRANCH  22  23
ENDBRANCH  21  22
ENDBRANCH  18  21
ENDBRANCH   2  15
BRANCH   6  29
ATOM     29  C   UNL     1      36.815 -18.168 -21.151  0.00  0.00    +0.117 C 
BRANCH  29  30
ATOM     30  C   UNL     1      35.912 -18.523 -22.291  0.00  0.00    -0.003 C 
ATOM     31  C   UNL     1      35.160 -17.554 -22.975  0.00  0.00    -0.002 C 
ATOM     32  C   UNL     1      34.323 -17.954 -24.044  0.00  0.00    -0.000 C 
ATOM     33  C   UNL     1      35.841 -19.867 -22.658  0.00  0.00    -0.003 C 
ATOM     34  C   UNL     1      35.218 -16.196 -22.620  0.00  0.00    -0.000 C 
ATOM     35  C   UNL     1      34.264 -19.311 -24.398  0.00  0.00    -0.000 C 
ATOM     36  C   UNL     1      35.019 -20.260 -23.709  0.00  0.00    -0.000 C 
ATOM     37  C   UNL     1      33.570 -16.984 -24.727  0.00  0.00    -0.000 C 
ATOM     38  C   UNL     1      34.464 -15.247 -23.309  0.00  0.00    -0.000 C 
ATOM     39  C   UNL     1      33.642 -15.640 -24.361  0.00  0.00    -0.000 C 
ENDBRANCH  29  30
ENDBRANCH   6  29
TORSDOF 9
ENDMDL
