MODEL 1
REMARK VINA RESULT:     -11.5      0.000      0.000
REMARK  Name = 23586145
REMARK  7 active torsions:
REMARK  status: ('A' for Active; 'I' for Inactive)
REMARK    1  A    between atoms: C_5  and  O_24
REMARK    2  A    between atoms: C_7  and  N_10
REMARK    3  A    between atoms: N_10  and  C_12
REMARK    4  A    between atoms: C_15  and  S_18
REMARK    5  A    between atoms: S_18  and  N_21
REMARK    6  A    between atoms: O_24  and  C_25
REMARK    7  A    between atoms: C_25  and  C_26
REMARK                            x       y       z     vdW  Elec       q    Type
REMARK                         _______ _______ _______ _____ _____    ______ ____
ROOT
ATOM      1  N   UNL     1      31.541 -23.470 -15.853  0.00  0.00    -0.299 NA
ATOM      2  N   UNL     1      32.349 -24.544 -13.857  0.00  0.00    -0.106 N 
ATOM      3  N   UNL     1      31.831 -25.133 -12.747  0.00  0.00    -0.139 NA
ATOM      4  N   UNL     1      30.148 -24.398 -14.094  0.00  0.00    -0.145 NA
ATOM      5  C   UNL     1      32.789 -23.318 -16.157  0.00  0.00    +0.291 C 
ATOM      6  C   UNL     1      33.970 -23.746 -15.376  0.00  0.00    +0.105 C 
ATOM      7  C   UNL     1      33.694 -24.365 -14.214  0.00  0.00    +0.142 C 
ATOM      8  C   UNL     1      31.296 -24.101 -14.668  0.00  0.00    +0.178 C 
ATOM      9  C   UNL     1      30.522 -25.016 -12.945  0.00  0.00    +0.230 C 
ENDROOT
BRANCH   7  10
ATOM     10  N   UNL     1      34.643 -24.834 -13.352  0.00  0.00    -0.299 N 
ATOM     11  H   UNL     1      34.337 -25.018 -12.435  0.00  0.00    +0.153 HD
BRANCH  10  12
ATOM     12  C   UNL     1      35.997 -25.086 -13.605  0.00  0.00    +0.049 C 
ATOM     13  C   UNL     1      36.988 -24.287 -13.021  0.00  0.00    +0.016 C 
ATOM     14  C   UNL     1      36.376 -26.141 -14.445  0.00  0.00    +0.016 C 
ATOM     15  C   UNL     1      38.705 -25.591 -14.112  0.00  0.00    +0.122 C 
ATOM     16  C   UNL     1      38.336 -24.539 -13.274  0.00  0.00    +0.021 C 
ATOM     17  C   UNL     1      37.725 -26.393 -14.698  0.00  0.00    +0.021 C 
BRANCH  15  18
ATOM     18  S   UNL     1      40.393 -25.906 -14.427  0.00  0.00    +0.057 S 
ATOM     19  O   UNL     1      41.083 -24.630 -14.551  0.00  0.00    -0.153 OA
ATOM     20  O   UNL     1      40.867 -26.894 -13.468  0.00  0.00    -0.153 OA
BRANCH  18  21
ATOM     21  N   UNL     1      40.304 -26.637 -15.969  0.00  0.00    -0.203 NA
ATOM     22  H   UNL     1      40.247 -25.912 -16.685  0.00  0.00    +0.144 HD
ATOM     23  H   UNL     1      39.476 -27.229 -16.017  0.00  0.00    +0.144 HD
ENDBRANCH  18  21
ENDBRANCH  15  18
ENDBRANCH  10  12
ENDBRANCH   7  10
BRANCH   5  24
ATOM     24  O   UNL     1      33.128 -22.714 -17.292  0.00  0.00    -0.451 OA
BRANCH  24  25
ATOM     25  C   UNL     1      34.499 -22.795 -17.633  0.00  0.00    +0.208 C 
BRANCH  25  26
ATOM     26  C   UNL     1      34.712 -22.069 -18.960  0.00  0.00    +0.044 C 
ATOM     27  C   UNL     1      33.510 -21.172 -19.285  0.00  0.00    +0.004 C 
ATOM     28  C   UNL     1      36.011 -21.253 -18.930  0.00  0.00    +0.004 C 
ATOM     29  C   UNL     1      33.721 -20.395 -20.583  0.00  0.00    +0.000 C 
ATOM     30  C   UNL     1      36.218 -20.475 -20.229  0.00  0.00    +0.000 C 
ATOM     31  C   UNL     1      35.018 -19.592 -20.552  0.00  0.00    +0.000 C 
ENDBRANCH  25  26
ENDBRANCH  24  25
ENDBRANCH   5  24
TORSDOF 7
ENDMDL
MODEL 2
REMARK VINA RESULT:     -11.4      3.485      7.231
REMARK  Name = 23586145
REMARK  7 active torsions:
REMARK  status: ('A' for Active; 'I' for Inactive)
REMARK    1  A    between atoms: C_5  and  O_24
REMARK    2  A    between atoms: C_7  and  N_10
REMARK    3  A    between atoms: N_10  and  C_12
REMARK    4  A    between atoms: C_15  and  S_18
REMARK    5  A    between atoms: S_18  and  N_21
REMARK    6  A    between atoms: O_24  and  C_25
REMARK    7  A    between atoms: C_25  and  C_26
REMARK                            x       y       z     vdW  Elec       q    Type
REMARK                         _______ _______ _______ _____ _____    ______ ____
ROOT
ATOM      1  N   UNL     1      32.230 -23.373 -13.993  0.00  0.00    -0.299 NA
ATOM      2  N   UNL     1      31.376 -22.933 -16.198  0.00  0.00    -0.106 N 
ATOM      3  N   UNL     1      30.176 -22.682 -16.784  0.00  0.00    -0.139 NA
ATOM      4  N   UNL     1      29.899 -22.973 -14.543  0.00  0.00    -0.145 NA
ATOM      5  C   UNL     1      33.388 -23.449 -14.564  0.00  0.00    +0.291 C 
ATOM      6  C   UNL     1      33.702 -23.281 -16.000  0.00  0.00    +0.105 C 
ATOM      7  C   UNL     1      32.645 -23.020 -16.790  0.00  0.00    +0.142 C 
ATOM      8  C   UNL     1      31.180 -23.108 -14.822  0.00  0.00    +0.178 C 
ATOM      9  C   UNL     1      29.339 -22.719 -15.753  0.00  0.00    +0.230 C 
ENDROOT
BRANCH   7  10
ATOM     10  N   UNL     1      32.727 -22.833 -18.139  0.00  0.00    -0.299 N 
ATOM     11  H   UNL     1      32.149 -23.410 -18.689  0.00  0.00    +0.153 HD
BRANCH  10  12
ATOM     12  C   UNL     1      33.528 -21.926 -18.844  0.00  0.00    +0.049 C 
ATOM     13  C   UNL     1      34.924 -21.993 -18.749  0.00  0.00    +0.016 C 
ATOM     14  C   UNL     1      32.943 -20.943 -19.651  0.00  0.00    +0.016 C 
ATOM     15  C   UNL     1      35.131 -20.112 -20.253  0.00  0.00    +0.122 C 
ATOM     16  C   UNL     1      35.722 -21.089 -19.451  0.00  0.00    +0.021 C 
ATOM     17  C   UNL     1      33.741 -20.039 -20.353  0.00  0.00    +0.021 C 
BRANCH  15  18
ATOM     18  S   UNL     1      36.130 -18.981 -21.131  0.00  0.00    +0.057 S 
ATOM     19  O   UNL     1      37.517 -19.201 -20.749  0.00  0.00    -0.153 OA
ATOM     20  O   UNL     1      35.751 -19.024 -22.536  0.00  0.00    -0.153 OA
BRANCH  18  21
ATOM     21  N   UNL     1      35.603 -17.498 -20.466  0.00  0.00    -0.203 NA
ATOM     22  H   UNL     1      35.815 -16.741 -21.116  0.00  0.00    +0.144 HD
ATOM     23  H   UNL     1      36.082 -17.332 -19.582  0.00  0.00    +0.144 HD
ENDBRANCH  18  21
ENDBRANCH  15  18
ENDBRANCH  10  12
ENDBRANCH   7  10
BRANCH   5  24
ATOM     24  O   UNL     1      34.472 -23.704 -13.838  0.00  0.00    -0.451 OA
BRANCH  24  25
ATOM     25  C   UNL     1      35.695 -23.278 -14.408  0.00  0.00    +0.208 C 
BRANCH  25  26
ATOM     26  C   UNL     1      36.831 -24.076 -13.771  0.00  0.00    +0.044 C 
ATOM     27  C   UNL     1      36.863 -23.854 -12.253  0.00  0.00    +0.004 C 
ATOM     28  C   UNL     1      36.697 -25.568 -14.103  0.00  0.00    +0.004 C 
ATOM     29  C   UNL     1      37.959 -24.683 -11.585  0.00  0.00    +0.000 C 
ATOM     30  C   UNL     1      37.793 -26.395 -13.432  0.00  0.00    +0.000 C 
ATOM     31  C   UNL     1      37.828 -26.165 -11.925  0.00  0.00    +0.000 C 
ENDBRANCH  25  26
ENDBRANCH  24  25
ENDBRANCH   5  24
TORSDOF 7
ENDMDL
MODEL 3
REMARK VINA RESULT:     -11.1      3.428      6.735
REMARK  Name = 23586145
REMARK  7 active torsions:
REMARK  status: ('A' for Active; 'I' for Inactive)
REMARK    1  A    between atoms: C_5  and  O_24
REMARK    2  A    between atoms: C_7  and  N_10
REMARK    3  A    between atoms: N_10  and  C_12
REMARK    4  A    between atoms: C_15  and  S_18
REMARK    5  A    between atoms: S_18  and  N_21
REMARK    6  A    between atoms: O_24  and  C_25
REMARK    7  A    between atoms: C_25  and  C_26
REMARK                            x       y       z     vdW  Elec       q    Type
REMARK                         _______ _______ _______ _____ _____    ______ ____
ROOT
ATOM      1  N   UNL     1      37.166 -23.792 -13.394  0.00  0.00    -0.299 NA
ATOM      2  N   UNL     1      35.268 -24.447 -12.070  0.00  0.00    -0.106 N 
ATOM      3  N   UNL     1      34.973 -24.650 -10.759  0.00  0.00    -0.139 NA
ATOM      4  N   UNL     1      37.150 -24.019 -10.977  0.00  0.00    -0.145 NA
ATOM      5  C   UNL     1      36.376 -23.921 -14.411  0.00  0.00    +0.291 C 
ATOM      6  C   UNL     1      34.952 -24.321 -14.405  0.00  0.00    +0.105 C 
ATOM      7  C   UNL     1      34.435 -24.578 -13.191  0.00  0.00    +0.142 C 
ATOM      8  C   UNL     1      36.609 -24.060 -12.178  0.00  0.00    +0.178 C 
ATOM      9  C   UNL     1      36.128 -24.380 -10.160  0.00  0.00    +0.230 C 
ENDROOT
BRANCH   7  10
ATOM     10  N   UNL     1      33.142 -24.960 -12.976  0.00  0.00    -0.299 N 
ATOM     11  H   UNL     1      33.003 -25.621 -12.260  0.00  0.00    +0.153 HD
BRANCH  10  12
ATOM     12  C   UNL     1      31.988 -24.535 -13.644  0.00  0.00    +0.049 C 
ATOM     13  C   UNL     1      30.903 -25.405 -13.810  0.00  0.00    +0.016 C 
ATOM     14  C   UNL     1      31.905 -23.233 -14.155  0.00  0.00    +0.016 C 
ATOM     15  C   UNL     1      29.679 -23.682 -14.982  0.00  0.00    +0.122 C 
ATOM     16  C   UNL     1      29.753 -24.980 -14.476  0.00  0.00    +0.021 C 
ATOM     17  C   UNL     1      30.755 -22.808 -14.821  0.00  0.00    +0.021 C 
BRANCH  15  18
ATOM     18  S   UNL     1      28.240 -23.151 -15.815  0.00  0.00    +0.057 S 
ATOM     19  O   UNL     1      27.192 -22.930 -14.828  0.00  0.00    -0.153 OA
ATOM     20  O   UNL     1      28.605 -22.081 -16.733  0.00  0.00    -0.153 OA
BRANCH  18  21
ATOM     21  N   UNL     1      27.857 -24.546 -16.724  0.00  0.00    -0.203 NA
ATOM     22  H   UNL     1      27.853 -24.314 -17.717  0.00  0.00    +0.144 HD
ATOM     23  H   UNL     1      26.936 -24.888 -16.451  0.00  0.00    +0.144 HD
ENDBRANCH  18  21
ENDBRANCH  15  18
ENDBRANCH  10  12
ENDBRANCH   7  10
BRANCH   5  24
ATOM     24  O   UNL     1      36.828 -23.682 -15.638  0.00  0.00    -0.451 OA
BRANCH  24  25
ATOM     25  C   UNL     1      36.667 -22.351 -16.092  0.00  0.00    +0.208 C 
BRANCH  25  26
ATOM     26  C   UNL     1      36.025 -22.386 -17.477  0.00  0.00    +0.044 C 
ATOM     27  C   UNL     1      34.494 -22.377 -17.364  0.00  0.00    +0.004 C 
ATOM     28  C   UNL     1      36.516 -21.212 -18.333  0.00  0.00    +0.004 C 
ATOM     29  C   UNL     1      33.828 -22.360 -18.739  0.00  0.00    +0.000 C 
ATOM     30  C   UNL     1      35.846 -21.195 -19.706  0.00  0.00    +0.000 C 
ATOM     31  C   UNL     1      34.326 -21.195 -19.590  0.00  0.00    +0.000 C 
ENDBRANCH  25  26
ENDBRANCH  24  25
ENDBRANCH   5  24
TORSDOF 7
ENDMDL
MODEL 4
REMARK VINA RESULT:     -10.9      6.793     10.185
REMARK  Name = 23586145
REMARK  7 active torsions:
REMARK  status: ('A' for Active; 'I' for Inactive)
REMARK    1  A    between atoms: C_5  and  O_24
REMARK    2  A    between atoms: C_7  and  N_10
REMARK    3  A    between atoms: N_10  and  C_12
REMARK    4  A    between atoms: C_15  and  S_18
REMARK    5  A    between atoms: S_18  and  N_21
REMARK    6  A    between atoms: O_24  and  C_25
REMARK    7  A    between atoms: C_25  and  C_26
REMARK                            x       y       z     vdW  Elec       q    Type
REMARK                         _______ _______ _______ _____ _____    ______ ____
ROOT
ATOM      1  N   UNL     1      33.999 -15.977 -23.902  0.00  0.00    -0.299 NA
ATOM      2  N   UNL     1      34.721 -18.175 -23.243  0.00  0.00    -0.106 N 
ATOM      3  N   UNL     1      34.566 -19.457 -23.665  0.00  0.00    -0.139 NA
ATOM      4  N   UNL     1      33.425 -18.044 -25.039  0.00  0.00    -0.145 NA
ATOM      5  C   UNL     1      34.677 -15.557 -22.883  0.00  0.00    +0.291 C 
ATOM      6  C   UNL     1      35.457 -16.365 -21.920  0.00  0.00    +0.105 C 
ATOM      7  C   UNL     1      35.448 -17.691 -22.145  0.00  0.00    +0.142 C 
ATOM      8  C   UNL     1      34.011 -17.326 -24.102  0.00  0.00    +0.178 C 
ATOM      9  C   UNL     1      33.789 -19.315 -24.733  0.00  0.00    +0.230 C 
ENDROOT
BRANCH   7  10
ATOM     10  N   UNL     1      36.105 -18.603 -21.371  0.00  0.00    -0.299 N 
ATOM     11  H   UNL     1      37.087 -18.528 -21.360  0.00  0.00    +0.153 HD
BRANCH  10  12
ATOM     12  C   UNL     1      35.564 -19.632 -20.592  0.00  0.00    +0.049 C 
ATOM     13  C   UNL     1      36.402 -20.490 -19.869  0.00  0.00    +0.016 C 
ATOM     14  C   UNL     1      34.177 -19.816 -20.526  0.00  0.00    +0.016 C 
ATOM     15  C   UNL     1      34.479 -21.692 -19.033  0.00  0.00    +0.122 C 
ATOM     16  C   UNL     1      35.862 -21.516 -19.093  0.00  0.00    +0.021 C 
ATOM     17  C   UNL     1      33.636 -20.841 -19.750  0.00  0.00    +0.021 C 
BRANCH  15  18
ATOM     18  S   UNL     1      33.804 -22.975 -18.062  0.00  0.00    +0.057 S 
ATOM     19  O   UNL     1      33.729 -24.179 -18.879  0.00  0.00    -0.153 OA
ATOM     20  O   UNL     1      34.506 -23.009 -16.787  0.00  0.00    -0.153 OA
BRANCH  18  21
ATOM     21  N   UNL     1      32.221 -22.386 -17.801  0.00  0.00    -0.203 NA
ATOM     22  H   UNL     1      31.784 -22.912 -17.044  0.00  0.00    +0.144 HD
ATOM     23  H   UNL     1      31.672 -22.497 -18.653  0.00  0.00    +0.144 HD
ENDBRANCH  18  21
ENDBRANCH  15  18
ENDBRANCH  10  12
ENDBRANCH   7  10
BRANCH   5  24
ATOM     24  O   UNL     1      34.726 -14.257 -22.606  0.00  0.00    -0.451 OA
BRANCH  24  25
ATOM     25  C   UNL     1      33.895 -13.439 -23.408  0.00  0.00    +0.208 C 
BRANCH  25  26
ATOM     26  C   UNL     1      33.385 -12.281 -22.551  0.00  0.00    +0.044 C 
ATOM     27  C   UNL     1      33.142 -11.035 -23.415  0.00  0.00    +0.004 C 
ATOM     28  C   UNL     1      32.109 -12.683 -21.801  0.00  0.00    +0.004 C 
ATOM     29  C   UNL     1      32.582  -9.878 -22.589  0.00  0.00    +0.000 C 
ATOM     30  C   UNL     1      31.549 -11.523 -20.979  0.00  0.00    +0.000 C 
ATOM     31  C   UNL     1      31.318 -10.285 -21.838  0.00  0.00    +0.000 C 
ENDBRANCH  25  26
ENDBRANCH  24  25
ENDBRANCH   5  24
TORSDOF 7
ENDMDL
MODEL 5
REMARK VINA RESULT:     -10.6      3.362      6.614
REMARK  Name = 23586145
REMARK  7 active torsions:
REMARK  status: ('A' for Active; 'I' for Inactive)
REMARK    1  A    between atoms: C_5  and  O_24
REMARK    2  A    between atoms: C_7  and  N_10
REMARK    3  A    between atoms: N_10  and  C_12
REMARK    4  A    between atoms: C_15  and  S_18
REMARK    5  A    between atoms: S_18  and  N_21
REMARK    6  A    between atoms: O_24  and  C_25
REMARK    7  A    between atoms: C_25  and  C_26
REMARK                            x       y       z     vdW  Elec       q    Type
REMARK                         _______ _______ _______ _____ _____    ______ ____
ROOT
ATOM      1  N   UNL     1      38.262 -22.980 -15.704  0.00  0.00    -0.299 NA
ATOM      2  N   UNL     1      36.921 -24.089 -14.044  0.00  0.00    -0.106 N 
ATOM      3  N   UNL     1      37.083 -25.035 -13.081  0.00  0.00    -0.139 NA
ATOM      4  N   UNL     1      39.058 -24.673 -14.156  0.00  0.00    -0.145 NA
ATOM      5  C   UNL     1      37.178 -22.345 -16.013  0.00  0.00    +0.291 C 
ATOM      6  C   UNL     1      35.840 -22.486 -15.397  0.00  0.00    +0.105 C 
ATOM      7  C   UNL     1      35.761 -23.386 -14.401  0.00  0.00    +0.142 C 
ATOM      8  C   UNL     1      38.146 -23.885 -14.689  0.00  0.00    +0.178 C 
ATOM      9  C   UNL     1      38.371 -25.342 -13.196  0.00  0.00    +0.230 C 
ENDROOT
BRANCH   7  10
ATOM     10  N   UNL     1      34.617 -23.660 -13.707  0.00  0.00    -0.299 N 
ATOM     11  H   UNL     1      34.741 -24.016 -12.798  0.00  0.00    +0.153 HD
BRANCH  10  12
ATOM     12  C   UNL     1      33.290 -23.502 -14.123  0.00  0.00    +0.049 C 
ATOM     13  C   UNL     1      32.251 -23.469 -13.184  0.00  0.00    +0.016 C 
ATOM     14  C   UNL     1      32.985 -23.374 -15.485  0.00  0.00    +0.016 C 
ATOM     15  C   UNL     1      30.634 -23.185 -14.957  0.00  0.00    +0.122 C 
ATOM     16  C   UNL     1      30.929 -23.311 -13.600  0.00  0.00    +0.021 C 
ATOM     17  C   UNL     1      31.663 -23.217 -15.900  0.00  0.00    +0.021 C 
BRANCH  15  18
ATOM     18  S   UNL     1      28.979 -22.988 -15.477  0.00  0.00    +0.057 S 
ATOM     19  O   UNL     1      28.349 -21.984 -14.632  0.00  0.00    -0.153 OA
ATOM     20  O   UNL     1      28.965 -22.828 -16.924  0.00  0.00    -0.153 OA
BRANCH  18  21
ATOM     21  N   UNL     1      28.332 -24.521 -15.088  0.00  0.00    -0.203 NA
ATOM     22  H   UNL     1      28.975 -25.013 -14.468  0.00  0.00    +0.144 HD
ATOM     23  H   UNL     1      28.204 -25.062 -15.943  0.00  0.00    +0.144 HD
ENDBRANCH  18  21
ENDBRANCH  15  18
ENDBRANCH  10  12
ENDBRANCH   7  10
BRANCH   5  24
ATOM     24  O   UNL     1      37.191 -21.443 -16.989  0.00  0.00    -0.451 OA
BRANCH  24  25
ATOM     25  C   UNL     1      36.774 -21.918 -18.255  0.00  0.00    +0.208 C 
BRANCH  25  26
ATOM     26  C   UNL     1      35.555 -21.110 -18.698  0.00  0.00    +0.044 C 
ATOM     27  C   UNL     1      35.774 -20.527 -20.102  0.00  0.00    +0.004 C 
ATOM     28  C   UNL     1      34.288 -21.974 -18.657  0.00  0.00    +0.004 C 
ATOM     29  C   UNL     1      34.547 -19.758 -20.589  0.00  0.00    +0.000 C 
ATOM     30  C   UNL     1      33.064 -21.202 -19.147  0.00  0.00    +0.000 C 
ATOM     31  C   UNL     1      33.288 -20.617 -20.537  0.00  0.00    +0.000 C 
ENDBRANCH  25  26
ENDBRANCH  24  25
ENDBRANCH   5  24
TORSDOF 7
ENDMDL
MODEL 6
REMARK VINA RESULT:      -9.7      4.094      7.801
REMARK  Name = 23586145
REMARK  7 active torsions:
REMARK  status: ('A' for Active; 'I' for Inactive)
REMARK    1  A    between atoms: C_5  and  O_24
REMARK    2  A    between atoms: C_7  and  N_10
REMARK    3  A    between atoms: N_10  and  C_12
REMARK    4  A    between atoms: C_15  and  S_18
REMARK    5  A    between atoms: S_18  and  N_21
REMARK    6  A    between atoms: O_24  and  C_25
REMARK    7  A    between atoms: C_25  and  C_26
REMARK                            x       y       z     vdW  Elec       q    Type
REMARK                         _______ _______ _______ _____ _____    ______ ____
ROOT
ATOM      1  N   UNL     1      35.003 -23.253 -14.113  0.00  0.00    -0.299 NA
ATOM      2  N   UNL     1      35.775 -22.771 -16.339  0.00  0.00    -0.106 N 
ATOM      3  N   UNL     1      36.919 -22.356 -16.943  0.00  0.00    -0.139 NA
ATOM      4  N   UNL     1      37.240 -22.510 -14.694  0.00  0.00    -0.145 NA
ATOM      5  C   UNL     1      33.871 -23.534 -14.672  0.00  0.00    +0.291 C 
ATOM      6  C   UNL     1      33.534 -23.475 -16.112  0.00  0.00    +0.105 C 
ATOM      7  C   UNL     1      34.535 -23.081 -16.918  0.00  0.00    +0.142 C 
ATOM      8  C   UNL     1      35.997 -22.857 -14.959  0.00  0.00    +0.178 C 
ATOM      9  C   UNL     1      37.752 -22.219 -15.917  0.00  0.00    +0.230 C 
ENDROOT
BRANCH   7  10
ATOM     10  N   UNL     1      34.424 -22.965 -18.274  0.00  0.00    -0.299 N 
ATOM     11  H   UNL     1      34.133 -23.774 -18.752  0.00  0.00    +0.153 HD
BRANCH  10  12
ATOM     12  C   UNL     1      34.674 -21.842 -19.073  0.00  0.00    +0.049 C 
ATOM     13  C   UNL     1      33.613 -21.117 -19.628  0.00  0.00    +0.016 C 
ATOM     14  C   UNL     1      35.989 -21.432 -19.326  0.00  0.00    +0.016 C 
ATOM     15  C   UNL     1      35.175 -19.597 -20.671  0.00  0.00    +0.122 C 
ATOM     16  C   UNL     1      33.863 -19.999 -20.424  0.00  0.00    +0.021 C 
ATOM     17  C   UNL     1      36.239 -20.314 -20.121  0.00  0.00    +0.021 C 
BRANCH  15  18
ATOM     18  S   UNL     1      35.487 -18.198 -21.667  0.00  0.00    +0.057 S 
ATOM     19  O   UNL     1      34.713 -18.325 -22.893  0.00  0.00    -0.153 OA
ATOM     20  O   UNL     1      35.349 -17.004 -20.844  0.00  0.00    -0.153 OA
BRANCH  18  21
ATOM     21  N   UNL     1      37.142 -18.422 -22.033  0.00  0.00    -0.203 NA
ATOM     22  H   UNL     1      37.687 -17.669 -21.613  0.00  0.00    +0.144 HD
ATOM     23  H   UNL     1      37.270 -18.413 -23.044  0.00  0.00    +0.144 HD
ENDBRANCH  18  21
ENDBRANCH  15  18
ENDBRANCH  10  12
ENDBRANCH   7  10
BRANCH   5  24
ATOM     24  O   UNL     1      32.841 -23.928 -13.929  0.00  0.00    -0.451 OA
BRANCH  24  25
ATOM     25  C   UNL     1      31.949 -22.902 -13.540  0.00  0.00    +0.208 C 
BRANCH  25  26
ATOM     26  C   UNL     1      30.525 -23.345 -13.873  0.00  0.00    +0.044 C 
ATOM     27  C   UNL     1      30.034 -22.669 -15.160  0.00  0.00    +0.004 C 
ATOM     28  C   UNL     1      30.448 -24.873 -13.994  0.00  0.00    +0.004 C 
ATOM     29  C   UNL     1      28.631 -23.137 -15.542  0.00  0.00    +0.000 C 
ATOM     30  C   UNL     1      29.044 -25.337 -14.379  0.00  0.00    +0.000 C 
ATOM     31  C   UNL     1      28.556 -24.656 -15.653  0.00  0.00    +0.000 C 
ENDBRANCH  25  26
ENDBRANCH  24  25
ENDBRANCH   5  24
TORSDOF 7
ENDMDL
MODEL 7
REMARK VINA RESULT:      -9.7     11.437     14.986
REMARK  Name = 23586145
REMARK  7 active torsions:
REMARK  status: ('A' for Active; 'I' for Inactive)
REMARK    1  A    between atoms: C_5  and  O_24
REMARK    2  A    between atoms: C_7  and  N_10
REMARK    3  A    between atoms: N_10  and  C_12
REMARK    4  A    between atoms: C_15  and  S_18
REMARK    5  A    between atoms: S_18  and  N_21
REMARK    6  A    between atoms: O_24  and  C_25
REMARK    7  A    between atoms: C_25  and  C_26
REMARK                            x       y       z     vdW  Elec       q    Type
REMARK                         _______ _______ _______ _____ _____    ______ ____
ROOT
ATOM      1  N   UNL     1      33.307  -9.298 -22.600  0.00  0.00    -0.299 NA
ATOM      2  N   UNL     1      32.584 -11.591 -22.679  0.00  0.00    -0.106 N 
ATOM      3  N   UNL     1      31.692 -12.391 -22.039  0.00  0.00    -0.139 NA
ATOM      4  N   UNL     1      31.602 -10.283 -21.180  0.00  0.00    -0.145 NA
ATOM      5  C   UNL     1      34.113  -9.622 -23.559  0.00  0.00    +0.291 C 
ATOM      6  C   UNL     1      34.268 -10.945 -24.202  0.00  0.00    +0.105 C 
ATOM      7  C   UNL     1      33.469 -11.913 -23.719  0.00  0.00    +0.142 C 
ATOM      8  C   UNL     1      32.510 -10.303 -22.134  0.00  0.00    +0.178 C 
ATOM      9  C   UNL     1      31.140 -11.559 -21.161  0.00  0.00    +0.230 C 
ENDROOT
BRANCH   7  10
ATOM     10  N   UNL     1      33.461 -13.199 -24.179  0.00  0.00    -0.299 N 
ATOM     11  H   UNL     1      33.043 -13.337 -25.059  0.00  0.00    +0.153 HD
BRANCH  10  12
ATOM     12  C   UNL     1      33.970 -14.346 -23.559  0.00  0.00    +0.049 C 
ATOM     13  C   UNL     1      34.341 -14.318 -22.209  0.00  0.00    +0.016 C 
ATOM     14  C   UNL     1      34.113 -15.537 -24.283  0.00  0.00    +0.016 C 
ATOM     15  C   UNL     1      34.987 -16.643 -22.321  0.00  0.00    +0.122 C 
ATOM     16  C   UNL     1      34.848 -15.462 -21.593  0.00  0.00    +0.021 C 
ATOM     17  C   UNL     1      34.620 -16.681 -23.667  0.00  0.00    +0.021 C 
BRANCH  15  18
ATOM     18  S   UNL     1      35.622 -18.075 -21.549  0.00  0.00    +0.057 S 
ATOM     19  O   UNL     1      35.893 -17.763 -20.153  0.00  0.00    -0.153 OA
ATOM     20  O   UNL     1      34.761 -19.201 -21.884  0.00  0.00    -0.153 OA
BRANCH  18  21
ATOM     21  N   UNL     1      37.108 -18.257 -22.373  0.00  0.00    -0.203 NA
ATOM     22  H   UNL     1      37.801 -17.632 -21.963  0.00  0.00    +0.144 HD
ATOM     23  H   UNL     1      36.981 -18.025 -23.358  0.00  0.00    +0.144 HD
ENDBRANCH  18  21
ENDBRANCH  15  18
ENDBRANCH  10  12
ENDBRANCH   7  10
BRANCH   5  24
ATOM     24  O   UNL     1      34.929  -8.710 -24.078  0.00  0.00    -0.451 OA
BRANCH  24  25
ATOM     25  C   UNL     1      34.934  -7.458 -23.419  0.00  0.00    +0.208 C 
BRANCH  25  26
ATOM     26  C   UNL     1      34.059  -6.489 -24.213  0.00  0.00    +0.044 C 
ATOM     27  C   UNL     1      33.102  -5.735 -23.279  0.00  0.00    +0.004 C 
ATOM     28  C   UNL     1      34.925  -5.509 -25.014  0.00  0.00    +0.004 C 
ATOM     29  C   UNL     1      32.251  -4.722 -24.043  0.00  0.00    +0.000 C 
ATOM     30  C   UNL     1      34.072  -4.495 -25.775  0.00  0.00    +0.000 C 
ATOM     31  C   UNL     1      33.116  -3.755 -24.846  0.00  0.00    +0.000 C 
ENDBRANCH  25  26
ENDBRANCH  24  25
ENDBRANCH   5  24
TORSDOF 7
ENDMDL
MODEL 8
REMARK VINA RESULT:      -9.4     11.835     16.167
REMARK  Name = 23586145
REMARK  7 active torsions:
REMARK  status: ('A' for Active; 'I' for Inactive)
REMARK    1  A    between atoms: C_5  and  O_24
REMARK    2  A    between atoms: C_7  and  N_10
REMARK    3  A    between atoms: N_10  and  C_12
REMARK    4  A    between atoms: C_15  and  S_18
REMARK    5  A    between atoms: S_18  and  N_21
REMARK    6  A    between atoms: O_24  and  C_25
REMARK    7  A    between atoms: C_25  and  C_26
REMARK                            x       y       z     vdW  Elec       q    Type
REMARK                         _______ _______ _______ _____ _____    ______ ____
ROOT
ATOM      1  N   UNL     1      33.473 -13.951 -21.825  0.00  0.00    -0.299 NA
ATOM      2  N   UNL     1      32.558 -11.755 -22.184  0.00  0.00    -0.106 N 
ATOM      3  N   UNL     1      31.701 -10.904 -21.561  0.00  0.00    -0.139 NA
ATOM      4  N   UNL     1      31.910 -12.821 -20.349  0.00  0.00    -0.145 NA
ATOM      5  C   UNL     1      34.105 -13.761 -22.938  0.00  0.00    +0.291 C 
ATOM      6  C   UNL     1      34.057 -12.571 -23.814  0.00  0.00    +0.105 C 
ATOM      7  C   UNL     1      33.256 -11.578 -23.388  0.00  0.00    +0.142 C 
ATOM      8  C   UNL     1      32.669 -12.925 -21.422  0.00  0.00    +0.178 C 
ATOM      9  C   UNL     1      31.351 -11.591 -20.479  0.00  0.00    +0.230 C 
ENDROOT
BRANCH   7  10
ATOM     10  N   UNL     1      33.077 -10.400 -24.054  0.00  0.00    -0.299 N 
ATOM     11  H   UNL     1      33.211 -10.434 -25.029  0.00  0.00    +0.153 HD
BRANCH  10  12
ATOM     12  C   UNL     1      32.730  -9.150 -23.530  0.00  0.00    +0.049 C 
ATOM     13  C   UNL     1      33.653  -8.416 -22.775  0.00  0.00    +0.016 C 
ATOM     14  C   UNL     1      31.454  -8.617 -23.754  0.00  0.00    +0.016 C 
ATOM     15  C   UNL     1      32.034  -6.647 -22.481  0.00  0.00    +0.122 C 
ATOM     16  C   UNL     1      33.306  -7.170 -22.253  0.00  0.00    +0.021 C 
ATOM     17  C   UNL     1      31.107  -7.371 -23.232  0.00  0.00    +0.021 C 
BRANCH  15  18
ATOM     18  S   UNL     1      31.600  -5.088 -21.827  0.00  0.00    +0.057 S 
ATOM     19  O   UNL     1      32.286  -4.060 -22.597  0.00  0.00    -0.153 OA
ATOM     20  O   UNL     1      30.152  -5.035 -21.679  0.00  0.00    -0.153 OA
BRANCH  18  21
ATOM     21  N   UNL     1      32.306  -5.179 -20.274  0.00  0.00    -0.203 NA
ATOM     22  H   UNL     1      33.081  -4.518 -20.214  0.00  0.00    +0.144 HD
ATOM     23  H   UNL     1      32.653  -6.124 -20.113  0.00  0.00    +0.144 HD
ENDBRANCH  18  21
ENDBRANCH  15  18
ENDBRANCH  10  12
ENDBRANCH   7  10
BRANCH   5  24
ATOM     24  O   UNL     1      34.912 -14.705 -23.413  0.00  0.00    -0.451 OA
BRANCH  24  25
ATOM     25  C   UNL     1      34.281 -15.702 -24.194  0.00  0.00    +0.208 C 
BRANCH  25  26
ATOM     26  C   UNL     1      34.910 -17.053 -23.855  0.00  0.00    +0.044 C 
ATOM     27  C   UNL     1      35.267 -17.124 -22.364  0.00  0.00    +0.004 C 
ATOM     28  C   UNL     1      33.972 -18.201 -24.248  0.00  0.00    +0.004 C 
ATOM     29  C   UNL     1      35.851 -18.486 -21.990  0.00  0.00    +0.000 C 
ATOM     30  C   UNL     1      34.557 -19.561 -23.870  0.00  0.00    +0.000 C 
ATOM     31  C   UNL     1      34.919 -19.625 -22.390  0.00  0.00    +0.000 C 
ENDBRANCH  25  26
ENDBRANCH  24  25
ENDBRANCH   5  24
TORSDOF 7
ENDMDL
MODEL 9
REMARK VINA RESULT:      -9.3      3.702      7.461
REMARK  Name = 23586145
REMARK  7 active torsions:
REMARK  status: ('A' for Active; 'I' for Inactive)
REMARK    1  A    between atoms: C_5  and  O_24
REMARK    2  A    between atoms: C_7  and  N_10
REMARK    3  A    between atoms: N_10  and  C_12
REMARK    4  A    between atoms: C_15  and  S_18
REMARK    5  A    between atoms: S_18  and  N_21
REMARK    6  A    between atoms: O_24  and  C_25
REMARK    7  A    between atoms: C_25  and  C_26
REMARK                            x       y       z     vdW  Elec       q    Type
REMARK                         _______ _______ _______ _____ _____    ______ ____
ROOT
ATOM      1  N   UNL     1      36.504 -20.870 -19.261  0.00  0.00    -0.299 NA
ATOM      2  N   UNL     1      34.120 -21.058 -19.522  0.00  0.00    -0.106 N 
ATOM      3  N   UNL     1      33.155 -20.585 -20.353  0.00  0.00    -0.139 NA
ATOM      4  N   UNL     1      35.189 -19.779 -20.986  0.00  0.00    -0.145 NA
ATOM      5  C   UNL     1      36.356 -21.659 -18.247  0.00  0.00    +0.291 C 
ATOM      6  C   UNL     1      35.100 -22.249 -17.735  0.00  0.00    +0.105 C 
ATOM      7  C   UNL     1      33.990 -21.912 -18.417  0.00  0.00    +0.142 C 
ATOM      8  C   UNL     1      35.359 -20.549 -19.930  0.00  0.00    +0.178 C 
ATOM      9  C   UNL     1      33.850 -19.833 -21.201  0.00  0.00    +0.230 C 
ENDROOT
BRANCH   7  10
ATOM     10  N   UNL     1      32.737 -22.353 -18.103  0.00  0.00    -0.299 N 
ATOM     11  H   UNL     1      32.063 -22.272 -18.816  0.00  0.00    +0.153 HD
BRANCH  10  12
ATOM     12  C   UNL     1      32.285 -22.902 -16.897  0.00  0.00    +0.049 C 
ATOM     13  C   UNL     1      33.184 -23.517 -16.017  0.00  0.00    +0.016 C 
ATOM     14  C   UNL     1      30.928 -22.841 -16.556  0.00  0.00    +0.016 C 
ATOM     15  C   UNL     1      31.380 -24.000 -14.484  0.00  0.00    +0.122 C 
ATOM     16  C   UNL     1      32.733 -24.064 -14.816  0.00  0.00    +0.021 C 
ATOM     17  C   UNL     1      30.477 -23.388 -15.355  0.00  0.00    +0.021 C 
BRANCH  15  18
ATOM     18  S   UNL     1      30.816 -24.685 -12.980  0.00  0.00    +0.057 S 
ATOM     19  O   UNL     1      31.771 -25.695 -12.549  0.00  0.00    -0.153 OA
ATOM     20  O   UNL     1      30.459 -23.596 -12.082  0.00  0.00    -0.153 OA
BRANCH  18  21
ATOM     21  N   UNL     1      29.384 -25.463 -13.495  0.00  0.00    -0.203 NA
ATOM     22  H   UNL     1      28.882 -25.820 -12.682  0.00  0.00    +0.144 HD
ATOM     23  H   UNL     1      29.622 -26.236 -14.115  0.00  0.00    +0.144 HD
ENDBRANCH  18  21
ENDBRANCH  15  18
ENDBRANCH  10  12
ENDBRANCH   7  10
BRANCH   5  24
ATOM     24  O   UNL     1      37.414 -22.029 -17.532  0.00  0.00    -0.451 OA
BRANCH  24  25
ATOM     25  C   UNL     1      37.306 -21.810 -16.138  0.00  0.00    +0.208 C 
BRANCH  25  26
ATOM     26  C   UNL     1      37.177 -23.165 -15.444  0.00  0.00    +0.044 C 
ATOM     27  C   UNL     1      38.563 -23.739 -15.114  0.00  0.00    +0.004 C 
ATOM     28  C   UNL     1      36.320 -23.046 -14.177  0.00  0.00    +0.004 C 
ATOM     29  C   UNL     1      38.459 -25.071 -14.373  0.00  0.00    +0.000 C 
ATOM     30  C   UNL     1      36.221 -24.379 -13.436  0.00  0.00    +0.000 C 
ATOM     31  C   UNL     1      37.599 -24.950 -13.119  0.00  0.00    +0.000 C 
ENDBRANCH  25  26
ENDBRANCH  24  25
ENDBRANCH   5  24
TORSDOF 7
ENDMDL
