MODEL 1
REMARK VINA RESULT:     -11.8      0.000      0.000
REMARK  Name = 6914614
REMARK  7 active torsions:
REMARK  status: ('A' for Active; 'I' for Inactive)
REMARK    1  A    between atoms: O_1  and  C_4
REMARK    2  A    between atoms: O_1  and  C_18
REMARK    3  A    between atoms: C_9  and  C_13
REMARK    4  A    between atoms: C_18  and  C_19
REMARK    5  A    between atoms: C_19  and  N_20
REMARK    6  A    between atoms: C_19  and  C_24
REMARK    7  A    between atoms: C_24  and  C_26
REMARK                            x       y       z     vdW  Elec       q    Type
REMARK                         _______ _______ _______ _____ _____    ______ ____
ROOT
ATOM      1  O   UNL     1      35.510 -20.637 -20.066  0.00  0.00    -0.476 OA
ENDROOT
BRANCH   1   4
ATOM      2  N   UNL     1      35.170 -23.211 -15.995  0.00  0.00    -0.404 NA
ATOM      3  N   UNL     1      32.720 -22.416 -18.582  0.00  0.00    -0.258 NA
ATOM      4  C   UNL     1      34.820 -21.396 -19.174  0.00  0.00    +0.159 C 
ATOM      5  C   UNL     1      35.410 -21.913 -18.013  0.00  0.00    +0.063 C 
ATOM      6  C   UNL     1      34.650 -22.691 -17.124  0.00  0.00    +0.136 C 
ATOM      7  C   UNL     1      36.755 -21.679 -17.698  0.00  0.00    +0.008 C 
ATOM      8  C   UNL     1      33.486 -21.674 -19.408  0.00  0.00    +0.130 C 
ATOM      9  C   UNL     1      36.473 -22.963 -15.726  0.00  0.00    +0.131 C 
ATOM     10  C   UNL     1      37.300 -22.212 -16.537  0.00  0.00    +0.032 C 
ATOM     11  C   UNL     1      33.325 -22.898 -17.471  0.00  0.00    +0.184 C 
BRANCH   9  13
ATOM     12  N   UNL     1      37.911 -24.687 -12.128  0.00  0.00    -0.242 NA
ATOM     13  C   UNL     1      36.962 -23.550 -14.502  0.00  0.00    +0.033 C 
ATOM     14  C   UNL     1      36.382 -23.212 -13.283  0.00  0.00    +0.023 C 
ATOM     15  C   UNL     1      38.017 -24.458 -14.532  0.00  0.00    +0.023 C 
ATOM     16  C   UNL     1      36.888 -23.803 -12.135  0.00  0.00    +0.099 C 
ATOM     17  C   UNL     1      38.449 -24.993 -13.329  0.00  0.00    +0.099 C 
ENDBRANCH   9  13
ENDBRANCH   1   4
BRANCH   1  18
ATOM     18  C   UNL     1      34.748 -19.805 -20.941  0.00  0.00    +0.184 C 
BRANCH  18  19
ATOM     19  C   UNL     1      35.368 -18.410 -21.084  0.00  0.00    -0.017 C 
BRANCH  19  20
ATOM     20  N   UNL     1      36.511 -18.309 -20.169  0.00  0.00    +0.384 N 
ATOM     21  H   UNL     1      37.007 -19.200 -20.145  0.00  0.00    -0.089 HD
ATOM     22  H   UNL     1      36.178 -18.079 -19.233  0.00  0.00    -0.089 HD
ATOM     23  H   UNL     1      37.143 -17.577 -20.494  0.00  0.00    -0.089 HD
ENDBRANCH  19  20
BRANCH  19  24
ATOM     24  C   UNL     1      35.852 -18.082 -22.510  0.00  0.00    +0.009 C 
BRANCH  24  26
ATOM     25  N   UNL     1      34.024 -15.785 -24.682  0.00  0.00    -0.312 N 
ATOM     26  C   UNL     1      35.080 -16.972 -23.167  0.00  0.00    -0.008 C 
ATOM     27  C   UNL     1      34.636 -15.795 -22.537  0.00  0.00    +0.011 C 
ATOM     28  C   UNL     1      33.969 -15.055 -23.515  0.00  0.00    +0.048 C 
ATOM     29  C   UNL     1      34.701 -16.957 -24.474  0.00  0.00    +0.058 C 
ATOM     30  C   UNL     1      34.726 -15.268 -21.232  0.00  0.00    +0.001 C 
ATOM     31  C   UNL     1      33.384 -13.811 -23.255  0.00  0.00    +0.015 C 
ATOM     32  C   UNL     1      34.146 -14.024 -20.957  0.00  0.00    +0.000 C 
ATOM     33  C   UNL     1      33.486 -13.308 -21.954  0.00  0.00    +0.001 C 
ATOM     34  H   UNL     1      33.633 -15.505 -25.540  0.00  0.00    +0.152 HD
ENDBRANCH  24  26
ENDBRANCH  19  24
ENDBRANCH  18  19
ENDBRANCH   1  18
TORSDOF 7
ENDMDL
MODEL 2
REMARK VINA RESULT:     -11.7      3.132      6.471
REMARK  Name = 6914614
REMARK  7 active torsions:
REMARK  status: ('A' for Active; 'I' for Inactive)
REMARK    1  A    between atoms: O_1  and  C_4
REMARK    2  A    between atoms: O_1  and  C_18
REMARK    3  A    between atoms: C_9  and  C_13
REMARK    4  A    between atoms: C_18  and  C_19
REMARK    5  A    between atoms: C_19  and  N_20
REMARK    6  A    between atoms: C_19  and  C_24
REMARK    7  A    between atoms: C_24  and  C_26
REMARK                            x       y       z     vdW  Elec       q    Type
REMARK                         _______ _______ _______ _____ _____    ______ ____
ROOT
ATOM      1  O   UNL     1      36.445 -23.567 -15.737  0.00  0.00    -0.476 OA
ENDROOT
BRANCH   1   4
ATOM      2  N   UNL     1      31.888 -23.786 -14.154  0.00  0.00    -0.404 NA
ATOM      3  N   UNL     1      35.076 -24.415 -12.488  0.00  0.00    -0.258 NA
ATOM      4  C   UNL     1      35.513 -23.792 -14.773  0.00  0.00    +0.159 C 
ATOM      5  C   UNL     1      34.139 -23.656 -15.011  0.00  0.00    +0.063 C 
ATOM      6  C   UNL     1      33.220 -23.902 -13.977  0.00  0.00    +0.136 C 
ATOM      7  C   UNL     1      33.637 -23.279 -16.263  0.00  0.00    +0.008 C 
ATOM      8  C   UNL     1      35.923 -24.169 -13.507  0.00  0.00    +0.130 C 
ATOM      9  C   UNL     1      31.443 -23.419 -15.378  0.00  0.00    +0.131 C 
ATOM     10  C   UNL     1      32.267 -23.156 -16.454  0.00  0.00    +0.032 C 
ATOM     11  C   UNL     1      33.756 -24.274 -12.756  0.00  0.00    +0.184 C 
BRANCH   9  13
ATOM     12  N   UNL     1      27.226 -23.112 -15.723  0.00  0.00    -0.242 NA
ATOM     13  C   UNL     1      30.008 -23.315 -15.495  0.00  0.00    +0.033 C 
ATOM     14  C   UNL     1      29.330 -24.045 -16.466  0.00  0.00    +0.023 C 
ATOM     15  C   UNL     1      29.294 -22.482 -14.639  0.00  0.00    +0.023 C 
ATOM     16  C   UNL     1      27.952 -23.911 -16.537  0.00  0.00    +0.099 C 
ATOM     17  C   UNL     1      27.918 -22.417 -14.792  0.00  0.00    +0.099 C 
ENDBRANCH   9  13
ENDBRANCH   1   4
BRANCH   1  18
ATOM     18  C   UNL     1      37.220 -22.373 -15.629  0.00  0.00    +0.184 C 
BRANCH  18  19
ATOM     19  C   UNL     1      36.854 -21.355 -16.715  0.00  0.00    -0.017 C 
BRANCH  19  20
ATOM     20  N   UNL     1      37.832 -20.261 -16.682  0.00  0.00    +0.384 N 
ATOM     21  H   UNL     1      37.787 -19.792 -15.777  0.00  0.00    -0.089 HD
ATOM     22  H   UNL     1      37.620 -19.593 -17.422  0.00  0.00    -0.089 HD
ATOM     23  H   UNL     1      38.769 -20.639 -16.822  0.00  0.00    -0.089 HD
ENDBRANCH  19  20
BRANCH  19  24
ATOM     24  C   UNL     1      36.824 -21.942 -18.140  0.00  0.00    +0.009 C 
BRANCH  24  26
ATOM     25  N   UNL     1      33.919 -20.762 -20.010  0.00  0.00    -0.312 N 
ATOM     26  C   UNL     1      35.818 -21.282 -19.041  0.00  0.00    -0.008 C 
ATOM     27  C   UNL     1      36.097 -20.281 -19.990  0.00  0.00    +0.011 C 
ATOM     28  C   UNL     1      34.878 -19.965 -20.594  0.00  0.00    +0.048 C 
ATOM     29  C   UNL     1      34.488 -21.568 -19.061  0.00  0.00    +0.058 C 
ATOM     30  C   UNL     1      37.258 -19.600 -20.409  0.00  0.00    +0.001 C 
ATOM     31  C   UNL     1      34.760 -18.997 -21.598  0.00  0.00    +0.015 C 
ATOM     32  C   UNL     1      37.156 -18.630 -21.413  0.00  0.00    +0.000 C 
ATOM     33  C   UNL     1      35.925 -18.335 -21.998  0.00  0.00    +0.001 C 
ATOM     34  H   UNL     1      32.962 -20.753 -20.242  0.00  0.00    +0.152 HD
ENDBRANCH  24  26
ENDBRANCH  19  24
ENDBRANCH  18  19
ENDBRANCH   1  18
TORSDOF 7
ENDMDL
MODEL 3
REMARK VINA RESULT:     -11.6      3.328      9.553
REMARK  Name = 6914614
REMARK  7 active torsions:
REMARK  status: ('A' for Active; 'I' for Inactive)
REMARK    1  A    between atoms: O_1  and  C_4
REMARK    2  A    between atoms: O_1  and  C_18
REMARK    3  A    between atoms: C_9  and  C_13
REMARK    4  A    between atoms: C_18  and  C_19
REMARK    5  A    between atoms: C_19  and  N_20
REMARK    6  A    between atoms: C_19  and  C_24
REMARK    7  A    between atoms: C_24  and  C_26
REMARK                            x       y       z     vdW  Elec       q    Type
REMARK                         _______ _______ _______ _____ _____    ______ ____
ROOT
ATOM      1  O   UNL     1      34.455 -23.947 -15.531  0.00  0.00    -0.476 OA
ENDROOT
BRANCH   1   4
ATOM      2  N   UNL     1      36.545 -20.908 -18.648  0.00  0.00    -0.404 NA
ATOM      3  N   UNL     1      37.773 -22.485 -15.593  0.00  0.00    -0.258 NA
ATOM      4  C   UNL     1      35.503 -23.199 -15.967  0.00  0.00    +0.159 C 
ATOM      5  C   UNL     1      35.441 -22.425 -17.132  0.00  0.00    +0.063 C 
ATOM      6  C   UNL     1      36.555 -21.670 -17.536  0.00  0.00    +0.136 C 
ATOM      7  C   UNL     1      34.287 -22.371 -17.926  0.00  0.00    +0.008 C 
ATOM      8  C   UNL     1      36.681 -23.194 -15.242  0.00  0.00    +0.130 C 
ATOM      9  C   UNL     1      35.413 -20.884 -19.388  0.00  0.00    +0.131 C 
ATOM     10  C   UNL     1      34.269 -21.591 -19.074  0.00  0.00    +0.032 C 
ATOM     11  C   UNL     1      37.674 -21.748 -16.724  0.00  0.00    +0.184 C 
BRANCH   9  13
ATOM     12  N   UNL     1      35.593 -18.429 -22.842  0.00  0.00    -0.242 NA
ATOM     13  C   UNL     1      35.474 -20.049 -20.564  0.00  0.00    +0.033 C 
ATOM     14  C   UNL     1      36.593 -19.256 -20.801  0.00  0.00    +0.023 C 
ATOM     15  C   UNL     1      34.415 -20.031 -21.466  0.00  0.00    +0.023 C 
ATOM     16  C   UNL     1      36.603 -18.472 -21.944  0.00  0.00    +0.099 C 
ATOM     17  C   UNL     1      34.523 -19.211 -22.579  0.00  0.00    +0.099 C 
ENDBRANCH   9  13
ENDBRANCH   1   4
BRANCH   1  18
ATOM     18  C   UNL     1      34.686 -24.805 -14.414  0.00  0.00    +0.184 C 
BRANCH  18  19
ATOM     19  C   UNL     1      33.899 -24.355 -13.177  0.00  0.00    -0.017 C 
BRANCH  19  20
ATOM     20  N   UNL     1      34.817 -23.667 -12.262  0.00  0.00    +0.384 N 
ATOM     21  H   UNL     1      34.695 -22.658 -12.352  0.00  0.00    -0.089 HD
ATOM     22  H   UNL     1      35.778 -23.914 -12.495  0.00  0.00    -0.089 HD
ATOM     23  H   UNL     1      34.616 -23.949 -11.302  0.00  0.00    -0.089 HD
ENDBRANCH  19  20
BRANCH  19  24
ATOM     24  C   UNL     1      32.722 -23.411 -13.491  0.00  0.00    +0.009 C 
BRANCH  24  26
ATOM     25  N   UNL     1      29.781 -25.573 -13.556  0.00  0.00    -0.312 N 
ATOM     26  C   UNL     1      31.424 -24.128 -13.733  0.00  0.00    -0.008 C 
ATOM     27  C   UNL     1      30.463 -23.784 -14.701  0.00  0.00    +0.011 C 
ATOM     28  C   UNL     1      29.428 -24.713 -14.572  0.00  0.00    +0.048 C 
ATOM     29  C   UNL     1      30.999 -25.219 -13.040  0.00  0.00    +0.058 C 
ATOM     30  C   UNL     1      30.352 -22.779 -15.683  0.00  0.00    +0.001 C 
ATOM     31  C   UNL     1      28.283 -24.687 -15.377  0.00  0.00    +0.015 C 
ATOM     32  C   UNL     1      29.214 -22.740 -16.495  0.00  0.00    +0.000 C 
ATOM     33  C   UNL     1      28.196 -23.681 -16.344  0.00  0.00    +0.001 C 
ATOM     34  H   UNL     1      29.236 -26.331 -13.245  0.00  0.00    +0.152 HD
ENDBRANCH  24  26
ENDBRANCH  19  24
ENDBRANCH  18  19
ENDBRANCH   1  18
TORSDOF 7
ENDMDL
MODEL 4
REMARK VINA RESULT:     -11.4      2.229      9.909
REMARK  Name = 6914614
REMARK  7 active torsions:
REMARK  status: ('A' for Active; 'I' for Inactive)
REMARK    1  A    between atoms: O_1  and  C_4
REMARK    2  A    between atoms: O_1  and  C_18
REMARK    3  A    between atoms: C_9  and  C_13
REMARK    4  A    between atoms: C_18  and  C_19
REMARK    5  A    between atoms: C_19  and  N_20
REMARK    6  A    between atoms: C_19  and  C_24
REMARK    7  A    between atoms: C_24  and  C_26
REMARK                            x       y       z     vdW  Elec       q    Type
REMARK                         _______ _______ _______ _____ _____    ______ ____
ROOT
ATOM      1  O   UNL     1      36.465 -22.354 -18.056  0.00  0.00    -0.476 OA
ENDROOT
BRANCH   1   4
ATOM      2  N   UNL     1      33.901 -19.685 -21.157  0.00  0.00    -0.404 NA
ATOM      3  N   UNL     1      32.892 -22.128 -18.638  0.00  0.00    -0.258 NA
ATOM      4  C   UNL     1      35.294 -21.941 -18.609  0.00  0.00    +0.159 C 
ATOM      5  C   UNL     1      35.243 -20.987 -19.634  0.00  0.00    +0.063 C 
ATOM      6  C   UNL     1      34.004 -20.597 -20.170  0.00  0.00    +0.136 C 
ATOM      7  C   UNL     1      36.401 -20.397 -20.156  0.00  0.00    +0.008 C 
ATOM      8  C   UNL     1      34.102 -22.474 -18.153  0.00  0.00    +0.130 C 
ATOM      9  C   UNL     1      35.043 -19.137 -21.634  0.00  0.00    +0.131 C 
ATOM     10  C   UNL     1      36.304 -19.455 -21.172  0.00  0.00    +0.032 C 
ATOM     11  C   UNL     1      32.883 -21.204 -19.628  0.00  0.00    +0.184 C 
BRANCH   9  13
ATOM     12  N   UNL     1      34.498 -16.292 -24.732  0.00  0.00    -0.242 NA
ATOM     13  C   UNL     1      34.857 -18.169 -22.688  0.00  0.00    +0.033 C 
ATOM     14  C   UNL     1      34.283 -18.551 -23.896  0.00  0.00    +0.023 C 
ATOM     15  C   UNL     1      35.252 -16.847 -22.503  0.00  0.00    +0.023 C 
ATOM     16  C   UNL     1      34.125 -17.584 -24.877  0.00  0.00    +0.099 C 
ATOM     17  C   UNL     1      35.052 -15.957 -23.546  0.00  0.00    +0.099 C 
ENDBRANCH   9  13
ENDBRANCH   1   4
BRANCH   1  18
ATOM     18  C   UNL     1      36.751 -21.911 -16.730  0.00  0.00    +0.184 C 
BRANCH  18  19
ATOM     19  C   UNL     1      36.432 -22.989 -15.687  0.00  0.00    -0.017 C 
BRANCH  19  20
ATOM     20  N   UNL     1      37.683 -23.655 -15.303  0.00  0.00    +0.384 N 
ATOM     21  H   UNL     1      38.261 -23.797 -16.132  0.00  0.00    -0.089 HD
ATOM     22  H   UNL     1      37.471 -24.557 -14.877  0.00  0.00    -0.089 HD
ATOM     23  H   UNL     1      38.187 -23.072 -14.634  0.00  0.00    -0.089 HD
ENDBRANCH  19  20
BRANCH  19  24
ATOM     24  C   UNL     1      35.754 -22.449 -14.413  0.00  0.00    +0.009 C 
BRANCH  24  26
ATOM     25  N   UNL     1      34.035 -24.987 -12.429  0.00  0.00    -0.312 N 
ATOM     26  C   UNL     1      34.820 -23.433 -13.766  0.00  0.00    -0.008 C 
ATOM     27  C   UNL     1      33.481 -23.660 -14.134  0.00  0.00    +0.011 C 
ATOM     28  C   UNL     1      33.001 -24.649 -13.273  0.00  0.00    +0.048 C 
ATOM     29  C   UNL     1      35.148 -24.247 -12.725  0.00  0.00    +0.058 C 
ATOM     30  C   UNL     1      32.613 -23.131 -15.110  0.00  0.00    +0.001 C 
ATOM     31  C   UNL     1      31.691 -25.138 -13.339  0.00  0.00    +0.015 C 
ATOM     32  C   UNL     1      31.301 -23.610 -15.189  0.00  0.00    +0.000 C 
ATOM     33  C   UNL     1      30.848 -24.599 -14.316  0.00  0.00    +0.001 C 
ATOM     34  H   UNL     1      33.981 -25.662 -11.715  0.00  0.00    +0.152 HD
ENDBRANCH  24  26
ENDBRANCH  19  24
ENDBRANCH  18  19
ENDBRANCH   1  18
TORSDOF 7
ENDMDL
MODEL 5
REMARK VINA RESULT:     -11.4      2.285     10.869
REMARK  Name = 6914614
REMARK  7 active torsions:
REMARK  status: ('A' for Active; 'I' for Inactive)
REMARK    1  A    between atoms: O_1  and  C_4
REMARK    2  A    between atoms: O_1  and  C_18
REMARK    3  A    between atoms: C_9  and  C_13
REMARK    4  A    between atoms: C_18  and  C_19
REMARK    5  A    between atoms: C_19  and  N_20
REMARK    6  A    between atoms: C_19  and  C_24
REMARK    7  A    between atoms: C_24  and  C_26
REMARK                            x       y       z     vdW  Elec       q    Type
REMARK                         _______ _______ _______ _____ _____    ______ ____
ROOT
ATOM      1  O   UNL     1      35.553 -17.650 -21.238  0.00  0.00    -0.476 OA
ENDROOT
BRANCH   1   4
ATOM      2  N   UNL     1      33.562 -13.928 -23.583  0.00  0.00    -0.404 NA
ATOM      3  N   UNL     1      34.651 -17.220 -24.724  0.00  0.00    -0.258 NA
ATOM      4  C   UNL     1      35.075 -17.047 -22.360  0.00  0.00    +0.159 C 
ATOM      5  C   UNL     1      34.553 -15.748 -22.350  0.00  0.00    +0.063 C 
ATOM      6  C   UNL     1      34.073 -15.174 -23.539  0.00  0.00    +0.136 C 
ATOM      7  C   UNL     1      34.490 -14.983 -21.177  0.00  0.00    +0.008 C 
ATOM      8  C   UNL     1      35.100 -17.732 -23.561  0.00  0.00    +0.130 C 
ATOM      9  C   UNL     1      33.517 -13.221 -22.429  0.00  0.00    +0.131 C 
ATOM     10  C   UNL     1      33.963 -13.698 -21.213  0.00  0.00    +0.032 C 
ATOM     11  C   UNL     1      34.154 -15.961 -24.675  0.00  0.00    +0.184 C 
BRANCH   9  13
ATOM     12  N   UNL     1      31.874  -9.327 -22.785  0.00  0.00    -0.242 NA
ATOM     13  C   UNL     1      32.958 -11.896 -22.550  0.00  0.00    +0.033 C 
ATOM     14  C   UNL     1      33.469 -11.004 -23.488  0.00  0.00    +0.023 C 
ATOM     15  C   UNL     1      31.905 -11.502 -21.730  0.00  0.00    +0.023 C 
ATOM     16  C   UNL     1      32.897  -9.743 -23.566  0.00  0.00    +0.099 C 
ATOM     17  C   UNL     1      31.404 -10.220 -21.886  0.00  0.00    +0.099 C 
ENDBRANCH   9  13
ENDBRANCH   1   4
BRANCH   1  18
ATOM     18  C   UNL     1      35.907 -19.029 -21.340  0.00  0.00    +0.184 C 
BRANCH  18  19
ATOM     19  C   UNL     1      35.225 -19.873 -20.256  0.00  0.00    -0.017 C 
BRANCH  19  20
ATOM     20  N   UNL     1      33.814 -20.050 -20.619  0.00  0.00    +0.384 N 
ATOM     21  H   UNL     1      33.228 -19.867 -19.804  0.00  0.00    -0.089 HD
ATOM     22  H   UNL     1      33.662 -21.006 -20.939  0.00  0.00    -0.089 HD
ATOM     23  H   UNL     1      33.570 -19.398 -21.366  0.00  0.00    -0.089 HD
ENDBRANCH  19  20
BRANCH  19  24
ATOM     24  C   UNL     1      35.856 -21.265 -20.055  0.00  0.00    +0.009 C 
BRANCH  24  26
ATOM     25  N   UNL     1      36.639 -22.113 -16.591  0.00  0.00    -0.312 N 
ATOM     26  C   UNL     1      35.903 -21.701 -18.618  0.00  0.00    -0.008 C 
ATOM     27  C   UNL     1      34.834 -22.259 -17.893  0.00  0.00    +0.011 C 
ATOM     28  C   UNL     1      35.321 -22.512 -16.609  0.00  0.00    +0.048 C 
ATOM     29  C   UNL     1      36.999 -21.616 -17.815  0.00  0.00    +0.058 C 
ATOM     30  C   UNL     1      33.492 -22.580 -18.184  0.00  0.00    +0.001 C 
ATOM     31  C   UNL     1      34.533 -23.072 -15.598  0.00  0.00    +0.015 C 
ATOM     32  C   UNL     1      32.692 -23.141 -17.183  0.00  0.00    +0.000 C 
ATOM     33  C   UNL     1      33.206 -23.383 -15.910  0.00  0.00    +0.001 C 
ATOM     34  H   UNL     1      37.235 -22.174 -15.810  0.00  0.00    +0.152 HD
ENDBRANCH  24  26
ENDBRANCH  19  24
ENDBRANCH  18  19
ENDBRANCH   1  18
TORSDOF 7
ENDMDL
MODEL 6
REMARK VINA RESULT:     -11.3      3.463      6.778
REMARK  Name = 6914614
REMARK  7 active torsions:
REMARK  status: ('A' for Active; 'I' for Inactive)
REMARK    1  A    between atoms: O_1  and  C_4
REMARK    2  A    between atoms: O_1  and  C_18
REMARK    3  A    between atoms: C_9  and  C_13
REMARK    4  A    between atoms: C_18  and  C_19
REMARK    5  A    between atoms: C_19  and  N_20
REMARK    6  A    between atoms: C_19  and  C_24
REMARK    7  A    between atoms: C_24  and  C_26
REMARK                            x       y       z     vdW  Elec       q    Type
REMARK                         _______ _______ _______ _____ _____    ______ ____
ROOT
ATOM      1  O   UNL     1      35.226 -15.048 -23.337  0.00  0.00    -0.476 OA
ENDROOT
BRANCH   1   4
ATOM      2  N   UNL     1      34.624 -19.631 -21.939  0.00  0.00    -0.404 NA
ATOM      3  N   UNL     1      33.812 -17.911 -25.056  0.00  0.00    -0.258 NA
ATOM      4  C   UNL     1      34.819 -16.328 -23.545  0.00  0.00    +0.159 C 
ATOM      5  C   UNL     1      34.955 -17.327 -22.572  0.00  0.00    +0.063 C 
ATOM      6  C   UNL     1      34.516 -18.634 -22.841  0.00  0.00    +0.136 C 
ATOM      7  C   UNL     1      35.523 -17.068 -21.318  0.00  0.00    +0.008 C 
ATOM      8  C   UNL     1      34.247 -16.671 -24.757  0.00  0.00    +0.130 C 
ATOM      9  C   UNL     1      35.178 -19.340 -20.739  0.00  0.00    +0.131 C 
ATOM     10  C   UNL     1      35.639 -18.088 -20.383  0.00  0.00    +0.032 C 
ATOM     11  C   UNL     1      33.960 -18.850 -24.091  0.00  0.00    +0.184 C 
BRANCH   9  13
ATOM     12  N   UNL     1      35.425 -22.612 -18.052  0.00  0.00    -0.242 NA
ATOM     13  C   UNL     1      35.262 -20.454 -19.824  0.00  0.00    +0.033 C 
ATOM     14  C   UNL     1      36.484 -20.802 -19.256  0.00  0.00    +0.023 C 
ATOM     15  C   UNL     1      34.123 -21.186 -19.505  0.00  0.00    +0.023 C 
ATOM     16  C   UNL     1      36.512 -21.879 -18.383  0.00  0.00    +0.099 C 
ATOM     17  C   UNL     1      34.256 -22.246 -18.622  0.00  0.00    +0.099 C 
ENDBRANCH   9  13
ENDBRANCH   1   4
BRANCH   1  18
ATOM     18  C   UNL     1      34.247 -14.121 -22.869  0.00  0.00    +0.184 C 
BRANCH  18  19
ATOM     19  C   UNL     1      33.910 -13.065 -23.929  0.00  0.00    -0.017 C 
BRANCH  19  20
ATOM     20  N   UNL     1      32.971 -13.652 -24.893  0.00  0.00    +0.384 N 
ATOM     21  H   UNL     1      32.488 -14.439 -24.460  0.00  0.00    -0.089 HD
ATOM     22  H   UNL     1      33.484 -13.976 -25.712  0.00  0.00    -0.089 HD
ATOM     23  H   UNL     1      32.289 -12.948 -25.174  0.00  0.00    -0.089 HD
ENDBRANCH  19  20
BRANCH  19  24
ATOM     24  C   UNL     1      33.283 -11.779 -23.356  0.00  0.00    +0.009 C 
BRANCH  24  26
ATOM     25  N   UNL     1      35.260  -9.144 -24.930  0.00  0.00    -0.312 N 
ATOM     26  C   UNL     1      33.968 -10.521 -23.811  0.00  0.00    -0.008 C 
ATOM     27  C   UNL     1      33.785  -9.240 -23.260  0.00  0.00    +0.011 C 
ATOM     28  C   UNL     1      34.614  -8.380 -23.984  0.00  0.00    +0.048 C 
ATOM     29  C   UNL     1      34.869 -10.452 -24.829  0.00  0.00    +0.058 C 
ATOM     30  C   UNL     1      33.001  -8.706 -22.217  0.00  0.00    +0.001 C 
ATOM     31  C   UNL     1      34.698  -7.009 -23.718  0.00  0.00    +0.015 C 
ATOM     32  C   UNL     1      33.075  -7.336 -21.939  0.00  0.00    +0.000 C 
ATOM     33  C   UNL     1      33.912  -6.502 -22.679  0.00  0.00    +0.001 C 
ATOM     34  H   UNL     1      35.909  -8.799 -25.585  0.00  0.00    +0.152 HD
ENDBRANCH  24  26
ENDBRANCH  19  24
ENDBRANCH  18  19
ENDBRANCH   1  18
TORSDOF 7
ENDMDL
MODEL 7
REMARK VINA RESULT:     -11.1      2.349      3.761
REMARK  Name = 6914614
REMARK  7 active torsions:
REMARK  status: ('A' for Active; 'I' for Inactive)
REMARK    1  A    between atoms: O_1  and  C_4
REMARK    2  A    between atoms: O_1  and  C_18
REMARK    3  A    between atoms: C_9  and  C_13
REMARK    4  A    between atoms: C_18  and  C_19
REMARK    5  A    between atoms: C_19  and  N_20
REMARK    6  A    between atoms: C_19  and  C_24
REMARK    7  A    between atoms: C_24  and  C_26
REMARK                            x       y       z     vdW  Elec       q    Type
REMARK                         _______ _______ _______ _____ _____    ______ ____
ROOT
ATOM      1  O   UNL     1      35.976 -21.512 -19.460  0.00  0.00    -0.476 OA
ENDROOT
BRANCH   1   4
ATOM      2  N   UNL     1      34.152 -23.197 -15.318  0.00  0.00    -0.404 NA
ATOM      3  N   UNL     1      37.485 -21.994 -16.197  0.00  0.00    -0.258 NA
ATOM      4  C   UNL     1      36.078 -21.851 -18.147  0.00  0.00    +0.159 C 
ATOM      5  C   UNL     1      34.997 -22.365 -17.418  0.00  0.00    +0.063 C 
ATOM      6  C   UNL     1      35.159 -22.699 -16.063  0.00  0.00    +0.136 C 
ATOM      7  C   UNL     1      33.738 -22.564 -18.000  0.00  0.00    +0.008 C 
ATOM      8  C   UNL     1      37.286 -21.687 -17.495  0.00  0.00    +0.130 C 
ATOM      9  C   UNL     1      32.951 -23.374 -15.917  0.00  0.00    +0.131 C 
ATOM     10  C   UNL     1      32.695 -23.076 -17.240  0.00  0.00    +0.032 C 
ATOM     11  C   UNL     1      36.418 -22.489 -15.526  0.00  0.00    +0.184 C 
BRANCH   9  13
ATOM     12  N   UNL     1      29.922 -24.952 -13.401  0.00  0.00    -0.242 NA
ATOM     13  C   UNL     1      31.920 -23.911 -15.060  0.00  0.00    +0.033 C 
ATOM     14  C   UNL     1      32.256 -24.504 -13.847  0.00  0.00    +0.023 C 
ATOM     15  C   UNL     1      30.584 -23.840 -15.443  0.00  0.00    +0.023 C 
ATOM     16  C   UNL     1      31.230 -25.004 -13.061  0.00  0.00    +0.099 C 
ATOM     17  C   UNL     1      29.632 -24.369 -14.586  0.00  0.00    +0.099 C 
ENDBRANCH   9  13
ENDBRANCH   1   4
BRANCH   1  18
ATOM     18  C   UNL     1      36.474 -20.230 -19.842  0.00  0.00    +0.184 C 
BRANCH  18  19
ATOM     19  C   UNL     1      35.579 -19.563 -20.895  0.00  0.00    -0.017 C 
BRANCH  19  20
ATOM     20  N   UNL     1      34.176 -19.820 -20.548  0.00  0.00    +0.384 N 
ATOM     21  H   UNL     1      34.134 -20.400 -19.710  0.00  0.00    -0.089 HD
ATOM     22  H   UNL     1      33.718 -20.304 -21.320  0.00  0.00    -0.089 HD
ATOM     23  H   UNL     1      33.702 -18.934 -20.372  0.00  0.00    -0.089 HD
ENDBRANCH  19  20
BRANCH  19  24
ATOM     24  C   UNL     1      35.783 -18.041 -21.017  0.00  0.00    +0.009 C 
BRANCH  24  26
ATOM     25  N   UNL     1      34.596 -17.272 -24.383  0.00  0.00    -0.312 N 
ATOM     26  C   UNL     1      35.240 -17.462 -22.293  0.00  0.00    -0.008 C 
ATOM     27  C   UNL     1      34.767 -16.148 -22.464  0.00  0.00    +0.011 C 
ATOM     28  C   UNL     1      34.363 -16.048 -23.797  0.00  0.00    +0.048 C 
ATOM     29  C   UNL     1      35.131 -18.139 -23.469  0.00  0.00    +0.058 C 
ATOM     30  C   UNL     1      34.634 -15.020 -21.629  0.00  0.00    +0.001 C 
ATOM     31  C   UNL     1      33.830 -14.873 -24.340  0.00  0.00    +0.015 C 
ATOM     32  C   UNL     1      34.103 -13.838 -22.157  0.00  0.00    +0.000 C 
ATOM     33  C   UNL     1      33.709 -13.767 -23.493  0.00  0.00    +0.001 C 
ATOM     34  H   UNL     1      34.405 -17.491 -25.323  0.00  0.00    +0.152 HD
ENDBRANCH  24  26
ENDBRANCH  19  24
ENDBRANCH  18  19
ENDBRANCH   1  18
TORSDOF 7
ENDMDL
MODEL 8
REMARK VINA RESULT:     -11.0      3.566      6.545
REMARK  Name = 6914614
REMARK  7 active torsions:
REMARK  status: ('A' for Active; 'I' for Inactive)
REMARK    1  A    between atoms: O_1  and  C_4
REMARK    2  A    between atoms: O_1  and  C_18
REMARK    3  A    between atoms: C_9  and  C_13
REMARK    4  A    between atoms: C_18  and  C_19
REMARK    5  A    between atoms: C_19  and  N_20
REMARK    6  A    between atoms: C_19  and  C_24
REMARK    7  A    between atoms: C_24  and  C_26
REMARK                            x       y       z     vdW  Elec       q    Type
REMARK                         _______ _______ _______ _____ _____    ______ ____
ROOT
ATOM      1  O   UNL     1      37.115 -23.572 -15.313  0.00  0.00    -0.476 OA
ENDROOT
BRANCH   1   4
ATOM      2  N   UNL     1      32.621 -23.996 -13.598  0.00  0.00    -0.404 NA
ATOM      3  N   UNL     1      35.881 -24.292 -11.980  0.00  0.00    -0.258 NA
ATOM      4  C   UNL     1      36.223 -23.795 -14.312  0.00  0.00    +0.159 C 
ATOM      5  C   UNL     1      34.838 -23.770 -14.521  0.00  0.00    +0.063 C 
ATOM      6  C   UNL     1      33.961 -24.008 -13.450  0.00  0.00    +0.136 C 
ATOM      7  C   UNL     1      34.283 -23.513 -15.781  0.00  0.00    +0.008 C 
ATOM      8  C   UNL     1      36.686 -24.058 -13.036  0.00  0.00    +0.130 C 
ATOM      9  C   UNL     1      32.124 -23.743 -14.831  0.00  0.00    +0.131 C 
ATOM     10  C   UNL     1      32.904 -23.497 -15.944  0.00  0.00    +0.032 C 
ATOM     11  C   UNL     1      34.549 -24.260 -12.221  0.00  0.00    +0.184 C 
BRANCH   9  13
ATOM     12  N   UNL     1      27.890 -23.749 -15.079  0.00  0.00    -0.242 NA
ATOM     13  C   UNL     1      30.683 -23.745 -14.916  0.00  0.00    +0.033 C 
ATOM     14  C   UNL     1      29.985 -22.544 -14.991  0.00  0.00    +0.023 C 
ATOM     15  C   UNL     1      29.983 -24.948 -14.922  0.00  0.00    +0.023 C 
ATOM     16  C   UNL     1      28.602 -22.599 -15.071  0.00  0.00    +0.099 C 
ATOM     17  C   UNL     1      28.601 -24.896 -15.005  0.00  0.00    +0.099 C 
ENDBRANCH   9  13
ENDBRANCH   1   4
BRANCH   1  18
ATOM     18  C   UNL     1      37.749 -22.293 -15.349  0.00  0.00    +0.184 C 
BRANCH  18  19
ATOM     19  C   UNL     1      37.149 -21.391 -16.434  0.00  0.00    -0.017 C 
BRANCH  19  20
ATOM     20  N   UNL     1      37.959 -20.170 -16.528  0.00  0.00    +0.384 N 
ATOM     21  H   UNL     1      38.697 -20.304 -17.220  0.00  0.00    -0.089 HD
ATOM     22  H   UNL     1      38.376 -19.968 -15.621  0.00  0.00    -0.089 HD
ATOM     23  H   UNL     1      37.366 -19.390 -16.812  0.00  0.00    -0.089 HD
ENDBRANCH  19  20
BRANCH  19  24
ATOM     24  C   UNL     1      37.083 -22.044 -17.828  0.00  0.00    +0.009 C 
BRANCH  24  26
ATOM     25  N   UNL     1      36.256 -19.661 -20.468  0.00  0.00    -0.312 N 
ATOM     26  C   UNL     1      36.473 -21.159 -18.878  0.00  0.00    -0.008 C 
ATOM     27  C   UNL     1      35.111 -21.121 -19.231  0.00  0.00    +0.011 C 
ATOM     28  C   UNL     1      34.995 -20.164 -20.241  0.00  0.00    +0.048 C 
ATOM     29  C   UNL     1      37.162 -20.265 -19.638  0.00  0.00    +0.058 C 
ATOM     30  C   UNL     1      33.951 -21.799 -18.802  0.00  0.00    +0.001 C 
ATOM     31  C   UNL     1      33.774 -19.849 -20.847  0.00  0.00    +0.015 C 
ATOM     32  C   UNL     1      32.723 -21.494 -19.399  0.00  0.00    +0.000 C 
ATOM     33  C   UNL     1      32.637 -20.533 -20.406  0.00  0.00    +0.001 C 
ATOM     34  H   UNL     1      36.475 -18.967 -21.131  0.00  0.00    +0.152 HD
ENDBRANCH  24  26
ENDBRANCH  19  24
ENDBRANCH  18  19
ENDBRANCH   1  18
TORSDOF 7
ENDMDL
MODEL 9
REMARK VINA RESULT:     -10.9      2.361      4.449
REMARK  Name = 6914614
REMARK  7 active torsions:
REMARK  status: ('A' for Active; 'I' for Inactive)
REMARK    1  A    between atoms: O_1  and  C_4
REMARK    2  A    between atoms: O_1  and  C_18
REMARK    3  A    between atoms: C_9  and  C_13
REMARK    4  A    between atoms: C_18  and  C_19
REMARK    5  A    between atoms: C_19  and  N_20
REMARK    6  A    between atoms: C_19  and  C_24
REMARK    7  A    between atoms: C_24  and  C_26
REMARK                            x       y       z     vdW  Elec       q    Type
REMARK                         _______ _______ _______ _____ _____    ______ ____
ROOT
ATOM      1  O   UNL     1      34.452 -18.305 -22.962  0.00  0.00    -0.476 OA
ENDROOT
BRANCH   1   4
ATOM      2  N   UNL     1      35.560 -20.931 -19.064  0.00  0.00    -0.404 NA
ATOM      3  N   UNL     1      37.612 -18.873 -21.275  0.00  0.00    -0.258 NA
ATOM      4  C   UNL     1      35.331 -18.791 -22.045  0.00  0.00    +0.159 C 
ATOM      5  C   UNL     1      34.936 -19.639 -21.003  0.00  0.00    +0.063 C 
ATOM      6  C   UNL     1      35.888 -20.112 -20.084  0.00  0.00    +0.136 C 
ATOM      7  C   UNL     1      33.605 -20.042 -20.838  0.00  0.00    +0.008 C 
ATOM      8  C   UNL     1      36.666 -18.442 -22.134  0.00  0.00    +0.130 C 
ATOM      9  C   UNL     1      34.263 -21.297 -18.939  0.00  0.00    +0.131 C 
ATOM     10  C   UNL     1      33.258 -20.884 -19.790  0.00  0.00    +0.032 C 
ATOM     11  C   UNL     1      37.193 -19.692 -20.281  0.00  0.00    +0.184 C 
BRANCH   9  13
ATOM     12  N   UNL     1      33.447 -23.872 -15.669  0.00  0.00    -0.242 NA
ATOM     13  C   UNL     1      33.985 -22.173 -17.826  0.00  0.00    +0.033 C 
ATOM     14  C   UNL     1      35.014 -22.580 -16.981  0.00  0.00    +0.023 C 
ATOM     15  C   UNL     1      32.688 -22.617 -17.590  0.00  0.00    +0.023 C 
ATOM     16  C   UNL     1      34.695 -23.421 -15.927  0.00  0.00    +0.099 C 
ATOM     17  C   UNL     1      32.473 -23.457 -16.509  0.00  0.00    +0.099 C 
ENDBRANCH   9  13
ENDBRANCH   1   4
BRANCH   1  18
ATOM     18  C   UNL     1      35.000 -17.674 -24.119  0.00  0.00    +0.184 C 
BRANCH  18  19
ATOM     19  C   UNL     1      34.509 -16.228 -24.265  0.00  0.00    -0.017 C 
BRANCH  19  20
ATOM     20  N   UNL     1      33.105 -16.250 -24.692  0.00  0.00    +0.384 N 
ATOM     21  H   UNL     1      32.943 -15.502 -25.367  0.00  0.00    -0.089 HD
ATOM     22  H   UNL     1      32.501 -16.114 -23.883  0.00  0.00    -0.089 HD
ATOM     23  H   UNL     1      32.896 -17.149 -25.126  0.00  0.00    -0.089 HD
ENDBRANCH  19  20
BRANCH  19  24
ATOM     24  C   UNL     1      34.615 -15.396 -22.972  0.00  0.00    +0.009 C 
BRANCH  24  26
ATOM     25  N   UNL     1      33.389 -12.080 -23.884  0.00  0.00    -0.312 N 
ATOM     26  C   UNL     1      33.994 -14.032 -23.083  0.00  0.00    -0.008 C 
ATOM     27  C   UNL     1      33.243 -13.387 -22.083  0.00  0.00    +0.011 C 
ATOM     28  C   UNL     1      32.868 -12.150 -22.612  0.00  0.00    +0.048 C 
ATOM     29  C   UNL     1      34.077 -13.227 -24.177  0.00  0.00    +0.058 C 
ATOM     30  C   UNL     1      32.833 -13.717 -20.775  0.00  0.00    +0.001 C 
ATOM     31  C   UNL     1      32.101 -11.223 -21.897  0.00  0.00    +0.015 C 
ATOM     32  C   UNL     1      32.066 -12.800 -20.048  0.00  0.00    +0.000 C 
ATOM     33  C   UNL     1      31.707 -11.572 -20.602  0.00  0.00    +0.001 C 
ATOM     34  H   UNL     1      33.281 -11.316 -24.495  0.00  0.00    +0.152 HD
ENDBRANCH  24  26
ENDBRANCH  19  24
ENDBRANCH  18  19
ENDBRANCH   1  18
TORSDOF 7
ENDMDL
