MODEL 1
REMARK VINA RESULT:     -12.2      0.000      0.000
REMARK  Name = 16122642
REMARK  7 active torsions:
REMARK  status: ('A' for Active; 'I' for Inactive)
REMARK    1  A    between atoms: C_2  and  C_10
REMARK    2  A    between atoms: C_3  and  O_18
REMARK    3  A    between atoms: O_18  and  C_19
REMARK    4  A    between atoms: C_19  and  C_20
REMARK    5  A    between atoms: C_20  and  N_21
REMARK    6  A    between atoms: C_20  and  C_25
REMARK    7  A    between atoms: C_25  and  C_27
REMARK                            x       y       z     vdW  Elec       q    Type
REMARK                         _______ _______ _______ _____ _____    ______ ____
ROOT
ATOM      1  N   UNL     1      33.806 -15.545 -25.246  0.00  0.00    -0.239 NA
ATOM      2  C   UNL     1      33.665 -13.936 -23.456  0.00  0.00    +0.022 C 
ATOM      3  C   UNL     1      34.917 -15.959 -23.139  0.00  0.00    +0.158 C 
ATOM      4  C   UNL     1      34.450 -14.744 -22.647  0.00  0.00    +0.040 C 
ATOM      5  C   UNL     1      33.372 -14.371 -24.734  0.00  0.00    +0.099 C 
ATOM      6  C   UNL     1      34.570 -16.310 -24.434  0.00  0.00    +0.136 C 
ENDROOT
BRANCH   2  10
ATOM      7  N   UNL     1      32.665  -8.321 -22.405  0.00  0.00    -0.280 N 
ATOM      8  N   UNL     1      31.810  -9.040 -21.653  0.00  0.00    -0.173 NA
ATOM      9  C   UNL     1      33.166 -10.359 -22.910  0.00  0.00    +0.032 A 
ATOM     10  C   UNL     1      33.165 -12.663 -22.971  0.00  0.00    +0.002 C 
ATOM     11  C   UNL     1      32.095 -10.322 -21.944  0.00  0.00    +0.102 A 
ATOM     12  C   UNL     1      33.755 -11.485 -23.471  0.00  0.00    +0.003 C 
ATOM     13  C   UNL     1      33.506  -9.063 -23.182  0.00  0.00    +0.053 A 
ATOM     14  C   UNL     1      32.102 -12.680 -22.014  0.00  0.00    +0.002 C 
ATOM     15  C   UNL     1      31.525 -11.515 -21.463  0.00  0.00    +0.021 C 
ATOM     16  C   UNL     1      34.505  -8.441 -24.067  0.00  0.00    +0.051 C 
ATOM     17  H   UNL     1      32.683  -7.337 -22.394  0.00  0.00    +0.189 HD
ENDBRANCH   2  10
BRANCH   3  18
ATOM     18  O   UNL     1      35.686 -16.772 -22.376  0.00  0.00    -0.476 OA
BRANCH  18  19
ATOM     19  C   UNL     1      35.706 -18.162 -22.712  0.00  0.00    +0.184 C 
BRANCH  19  20
ATOM     20  C   UNL     1      35.664 -19.017 -21.440  0.00  0.00    -0.017 C 
BRANCH  20  21
ATOM     21  N   UNL     1      35.800 -18.129 -20.282  0.00  0.00    +0.384 N 
ATOM     22  H   UNL     1      36.787 -18.019 -20.052  0.00  0.00    -0.089 HD
ATOM     23  H   UNL     1      35.308 -18.532 -19.484  0.00  0.00    -0.089 HD
ATOM     24  H   UNL     1      35.398 -17.217 -20.503  0.00  0.00    -0.089 HD
ENDBRANCH  20  21
BRANCH  20  25
ATOM     25  C   UNL     1      34.350 -19.814 -21.287  0.00  0.00    +0.008 C 
BRANCH  25  27
ATOM     26 BR   UNL     1      34.115 -23.451 -16.308  0.00  0.00    -0.049 Br
ATOM     27  C   UNL     1      34.292 -20.704 -20.070  0.00  0.00    -0.024 C 
ATOM     28  C   UNL     1      33.059 -21.045 -19.535  0.00  0.00    -0.004 C 
ATOM     29  C   UNL     1      35.472 -21.163 -19.509  0.00  0.00    -0.004 C 
ATOM     30  C   UNL     1      33.007 -21.867 -18.410  0.00  0.00    +0.006 C 
ATOM     31  C   UNL     1      35.419 -21.985 -18.383  0.00  0.00    +0.006 C 
ATOM     32  C   UNL     1      34.187 -22.338 -17.834  0.00  0.00    +0.035 C 
ENDBRANCH  25  27
ENDBRANCH  20  25
ENDBRANCH  19  20
ENDBRANCH  18  19
ENDBRANCH   3  18
TORSDOF 7
ENDMDL
MODEL 2
REMARK VINA RESULT:     -11.5      4.109     10.430
REMARK  Name = 16122642
REMARK  7 active torsions:
REMARK  status: ('A' for Active; 'I' for Inactive)
REMARK    1  A    between atoms: C_2  and  C_10
REMARK    2  A    between atoms: C_3  and  O_18
REMARK    3  A    between atoms: O_18  and  C_19
REMARK    4  A    between atoms: C_19  and  C_20
REMARK    5  A    between atoms: C_20  and  N_21
REMARK    6  A    between atoms: C_20  and  C_25
REMARK    7  A    between atoms: C_25  and  C_27
REMARK                            x       y       z     vdW  Elec       q    Type
REMARK                         _______ _______ _______ _____ _____    ______ ____
ROOT
ATOM      1  N   UNL     1      34.150 -18.379 -24.461  0.00  0.00    -0.239 NA
ATOM      2  C   UNL     1      35.086 -18.613 -22.250  0.00  0.00    +0.022 C 
ATOM      3  C   UNL     1      34.980 -16.444 -23.272  0.00  0.00    +0.158 C 
ATOM      4  C   UNL     1      35.328 -17.248 -22.192  0.00  0.00    +0.040 C 
ATOM      5  C   UNL     1      34.501 -19.128 -23.391  0.00  0.00    +0.099 C 
ATOM      6  C   UNL     1      34.398 -17.054 -24.373  0.00  0.00    +0.136 C 
ENDROOT
BRANCH   2  10
ATOM      7  N   UNL     1      35.080 -22.340 -17.807  0.00  0.00    -0.280 N 
ATOM      8  N   UNL     1      36.349 -21.932 -18.002  0.00  0.00    -0.173 NA
ATOM      9  C   UNL     1      34.904 -20.977 -19.472  0.00  0.00    +0.032 A 
ATOM     10  C   UNL     1      35.437 -19.477 -21.139  0.00  0.00    +0.002 C 
ATOM     11  C   UNL     1      36.276 -21.077 -19.038  0.00  0.00    +0.102 A 
ATOM     12  C   UNL     1      34.405 -20.202 -20.511  0.00  0.00    +0.003 C 
ATOM     13  C   UNL     1      34.168 -21.796 -18.664  0.00  0.00    +0.053 A 
ATOM     14  C   UNL     1      36.811 -19.542 -20.747  0.00  0.00    +0.002 C 
ATOM     15  C   UNL     1      37.287 -20.341 -19.684  0.00  0.00    +0.021 C 
ATOM     16  C   UNL     1      32.735 -22.131 -18.595  0.00  0.00    +0.051 C 
ATOM     17  H   UNL     1      34.830 -22.978 -17.101  0.00  0.00    +0.189 HD
ENDBRANCH   2  10
BRANCH   3  18
ATOM     18  O   UNL     1      35.202 -15.108 -23.248  0.00  0.00    -0.476 OA
BRANCH  18  19
ATOM     19  C   UNL     1      34.195 -14.286 -22.653  0.00  0.00    +0.184 C 
BRANCH  19  20
ATOM     20  C   UNL     1      33.784 -13.166 -23.617  0.00  0.00    -0.017 C 
BRANCH  20  21
ATOM     21  N   UNL     1      33.050 -13.767 -24.735  0.00  0.00    +0.384 N 
ATOM     22  H   UNL     1      33.447 -13.442 -25.615  0.00  0.00    -0.089 HD
ATOM     23  H   UNL     1      32.069 -13.492 -24.683  0.00  0.00    -0.089 HD
ATOM     24  H   UNL     1      33.122 -14.783 -24.682  0.00  0.00    -0.089 HD
ENDBRANCH  20  21
BRANCH  20  25
ATOM     25  C   UNL     1      32.880 -12.102 -22.960  0.00  0.00    +0.008 C 
BRANCH  25  27
ATOM     26 BR   UNL     1      34.643  -6.271 -23.941  0.00  0.00    -0.049 Br
ATOM     27  C   UNL     1      33.311 -10.675 -23.199  0.00  0.00    -0.024 C 
ATOM     28  C   UNL     1      32.575  -9.640 -22.643  0.00  0.00    -0.004 C 
ATOM     29  C   UNL     1      34.434 -10.427 -23.971  0.00  0.00    -0.004 C 
ATOM     30  C   UNL     1      32.974  -8.322 -22.865  0.00  0.00    +0.006 C 
ATOM     31  C   UNL     1      34.833  -9.109 -24.193  0.00  0.00    +0.006 C 
ATOM     32  C   UNL     1      34.103  -8.057 -23.640  0.00  0.00    +0.035 C 
ENDBRANCH  25  27
ENDBRANCH  20  25
ENDBRANCH  19  20
ENDBRANCH  18  19
ENDBRANCH   3  18
TORSDOF 7
ENDMDL
MODEL 3
REMARK VINA RESULT:     -11.1      6.034     12.554
REMARK  Name = 16122642
REMARK  7 active torsions:
REMARK  status: ('A' for Active; 'I' for Inactive)
REMARK    1  A    between atoms: C_2  and  C_10
REMARK    2  A    between atoms: C_3  and  O_18
REMARK    3  A    between atoms: O_18  and  C_19
REMARK    4  A    between atoms: C_19  and  C_20
REMARK    5  A    between atoms: C_20  and  N_21
REMARK    6  A    between atoms: C_20  and  C_25
REMARK    7  A    between atoms: C_25  and  C_27
REMARK                            x       y       z     vdW  Elec       q    Type
REMARK                         _______ _______ _______ _____ _____    ______ ____
ROOT
ATOM      1  N   UNL     1      31.435 -23.410 -14.895  0.00  0.00    -0.239 NA
ATOM      2  C   UNL     1      33.846 -23.461 -14.893  0.00  0.00    +0.022 C 
ATOM      3  C   UNL     1      32.668 -23.058 -16.944  0.00  0.00    +0.158 C 
ATOM      4  C   UNL     1      33.867 -23.210 -16.257  0.00  0.00    +0.040 C 
ATOM      5  C   UNL     1      32.621 -23.551 -14.260  0.00  0.00    +0.099 C 
ATOM      6  C   UNL     1      31.490 -23.166 -16.223  0.00  0.00    +0.136 C 
ENDROOT
BRANCH   2  10
ATOM      7  N   UNL     1      37.881 -24.364 -10.827  0.00  0.00    -0.280 N 
ATOM      8  N   UNL     1      38.515 -24.095 -11.985  0.00  0.00    -0.173 NA
ATOM      9  C   UNL     1      36.256 -24.057 -12.213  0.00  0.00    +0.032 A 
ATOM     10  C   UNL     1      35.081 -23.623 -14.148  0.00  0.00    +0.002 C 
ATOM     11  C   UNL     1      37.528 -23.898 -12.876  0.00  0.00    +0.102 A 
ATOM     12  C   UNL     1      34.992 -23.937 -12.778  0.00  0.00    +0.003 C 
ATOM     13  C   UNL     1      36.519 -24.355 -10.906  0.00  0.00    +0.053 A 
ATOM     14  C   UNL     1      36.316 -23.454 -14.850  0.00  0.00    +0.002 C 
ATOM     15  C   UNL     1      37.586 -23.584 -14.246  0.00  0.00    +0.021 C 
ATOM     16  C   UNL     1      35.667 -24.629  -9.737  0.00  0.00    +0.051 C 
ATOM     17  H   UNL     1      38.363 -24.552  -9.990  0.00  0.00    +0.189 HD
ENDBRANCH   2  10
BRANCH   3  18
ATOM     18  O   UNL     1      32.653 -22.811 -18.277  0.00  0.00    -0.476 OA
BRANCH  18  19
ATOM     19  C   UNL     1      33.910 -22.571 -18.914  0.00  0.00    +0.184 C 
BRANCH  19  20
ATOM     20  C   UNL     1      33.778 -21.441 -19.942  0.00  0.00    -0.017 C 
BRANCH  20  21
ATOM     21  N   UNL     1      32.651 -20.590 -19.549  0.00  0.00    +0.384 N 
ATOM     22  H   UNL     1      32.053 -20.424 -20.358  0.00  0.00    -0.089 HD
ATOM     23  H   UNL     1      33.003 -19.699 -19.199  0.00  0.00    -0.089 HD
ATOM     24  H   UNL     1      32.113 -21.054 -18.817  0.00  0.00    -0.089 HD
ENDBRANCH  20  21
BRANCH  20  25
ATOM     25  C   UNL     1      35.040 -20.558 -20.039  0.00  0.00    +0.008 C 
BRANCH  25  27
ATOM     26 BR   UNL     1      34.810 -16.216 -24.417  0.00  0.00    -0.049 Br
ATOM     27  C   UNL     1      34.985 -19.496 -21.109  0.00  0.00    -0.024 C 
ATOM     28  C   UNL     1      35.431 -18.216 -20.820  0.00  0.00    -0.004 C 
ATOM     29  C   UNL     1      34.488 -19.820 -22.361  0.00  0.00    -0.004 C 
ATOM     30  C   UNL     1      35.378 -17.234 -21.810  0.00  0.00    +0.006 C 
ATOM     31  C   UNL     1      34.436 -18.839 -23.351  0.00  0.00    +0.006 C 
ATOM     32  C   UNL     1      34.881 -17.546 -23.076  0.00  0.00    +0.035 C 
ENDBRANCH  25  27
ENDBRANCH  20  25
ENDBRANCH  19  20
ENDBRANCH  18  19
ENDBRANCH   3  18
TORSDOF 7
ENDMDL
MODEL 4
REMARK VINA RESULT:     -11.0      5.925     12.906
REMARK  Name = 16122642
REMARK  7 active torsions:
REMARK  status: ('A' for Active; 'I' for Inactive)
REMARK    1  A    between atoms: C_2  and  C_10
REMARK    2  A    between atoms: C_3  and  O_18
REMARK    3  A    between atoms: O_18  and  C_19
REMARK    4  A    between atoms: C_19  and  C_20
REMARK    5  A    between atoms: C_20  and  N_21
REMARK    6  A    between atoms: C_20  and  C_25
REMARK    7  A    between atoms: C_25  and  C_27
REMARK                            x       y       z     vdW  Elec       q    Type
REMARK                         _______ _______ _______ _____ _____    ______ ____
ROOT
ATOM      1  N   UNL     1      31.372 -23.183 -15.199  0.00  0.00    -0.239 NA
ATOM      2  C   UNL     1      33.644 -23.886 -14.801  0.00  0.00    +0.022 C 
ATOM      3  C   UNL     1      32.998 -23.136 -16.987  0.00  0.00    +0.158 C 
ATOM      4  C   UNL     1      33.973 -23.623 -16.122  0.00  0.00    +0.040 C 
ATOM      5  C   UNL     1      32.346 -23.653 -14.388  0.00  0.00    +0.099 C 
ATOM      6  C   UNL     1      31.724 -22.935 -16.480  0.00  0.00    +0.136 C 
ENDROOT
BRANCH   2  10
ATOM      7  N   UNL     1      38.236 -26.397 -12.304  0.00  0.00    -0.280 N 
ATOM      8  N   UNL     1      37.483 -25.853 -11.329  0.00  0.00    -0.173 NA
ATOM      9  C   UNL     1      36.593 -25.518 -13.392  0.00  0.00    +0.032 A 
ATOM     10  C   UNL     1      34.639 -24.394 -13.875  0.00  0.00    +0.002 C 
ATOM     11  C   UNL     1      36.444 -25.293 -11.974  0.00  0.00    +0.102 A 
ATOM     12  C   UNL     1      35.737 -25.101 -14.403  0.00  0.00    +0.003 C 
ATOM     13  C   UNL     1      37.748 -26.226 -13.566  0.00  0.00    +0.053 A 
ATOM     14  C   UNL     1      34.447 -24.145 -12.479  0.00  0.00    +0.002 C 
ATOM     15  C   UNL     1      35.337 -24.582 -11.475  0.00  0.00    +0.021 C 
ATOM     16  C   UNL     1      38.444 -26.755 -14.751  0.00  0.00    +0.051 C 
ATOM     17  H   UNL     1      39.073 -26.882 -12.120  0.00  0.00    +0.189 HD
ENDBRANCH   2  10
BRANCH   3  18
ATOM     18  O   UNL     1      33.286 -22.868 -18.284  0.00  0.00    -0.476 OA
BRANCH  18  19
ATOM     19  C   UNL     1      34.482 -22.133 -18.551  0.00  0.00    +0.184 C 
BRANCH  19  20
ATOM     20  C   UNL     1      34.336 -21.335 -19.853  0.00  0.00    -0.017 C 
BRANCH  20  21
ATOM     21  N   UNL     1      33.142 -20.491 -19.745  0.00  0.00    +0.384 N 
ATOM     22  H   UNL     1      32.434 -20.973 -19.192  0.00  0.00    -0.089 HD
ATOM     23  H   UNL     1      32.773 -20.303 -20.677  0.00  0.00    -0.089 HD
ATOM     24  H   UNL     1      33.387 -19.611 -19.292  0.00  0.00    -0.089 HD
ENDBRANCH  20  21
BRANCH  20  25
ATOM     25  C   UNL     1      35.547 -20.423 -20.146  0.00  0.00    +0.008 C 
BRANCH  25  27
ATOM     26 BR   UNL     1      34.551 -16.114 -24.448  0.00  0.00    -0.049 Br
ATOM     27  C   UNL     1      35.302 -19.370 -21.199  0.00  0.00    -0.024 C 
ATOM     28  C   UNL     1      34.813 -19.748 -22.439  0.00  0.00    -0.004 C 
ATOM     29  C   UNL     1      35.572 -18.043 -20.905  0.00  0.00    -0.004 C 
ATOM     30  C   UNL     1      34.588 -18.774 -23.411  0.00  0.00    +0.006 C 
ATOM     31  C   UNL     1      35.348 -17.069 -21.878  0.00  0.00    +0.006 C 
ATOM     32  C   UNL     1      34.855 -17.434 -23.130  0.00  0.00    +0.035 C 
ENDBRANCH  25  27
ENDBRANCH  20  25
ENDBRANCH  19  20
ENDBRANCH  18  19
ENDBRANCH   3  18
TORSDOF 7
ENDMDL
MODEL 5
REMARK VINA RESULT:     -11.0      3.837     10.209
REMARK  Name = 16122642
REMARK  7 active torsions:
REMARK  status: ('A' for Active; 'I' for Inactive)
REMARK    1  A    between atoms: C_2  and  C_10
REMARK    2  A    between atoms: C_3  and  O_18
REMARK    3  A    between atoms: O_18  and  C_19
REMARK    4  A    between atoms: C_19  and  C_20
REMARK    5  A    between atoms: C_20  and  N_21
REMARK    6  A    between atoms: C_20  and  C_25
REMARK    7  A    between atoms: C_25  and  C_27
REMARK                            x       y       z     vdW  Elec       q    Type
REMARK                         _______ _______ _______ _____ _____    ______ ____
ROOT
ATOM      1  N   UNL     1      34.080 -16.770 -25.038  0.00  0.00    -0.239 NA
ATOM      2  C   UNL     1      34.932 -17.247 -22.833  0.00  0.00    +0.022 C 
ATOM      3  C   UNL     1      34.411 -14.985 -23.441  0.00  0.00    +0.158 C 
ATOM      4  C   UNL     1      34.870 -15.902 -22.501  0.00  0.00    +0.040 C 
ATOM      5  C   UNL     1      34.531 -17.631 -24.098  0.00  0.00    +0.099 C 
ATOM      6  C   UNL     1      34.031 -15.466 -24.684  0.00  0.00    +0.136 C 
ENDROOT
BRANCH   2  10
ATOM      7  N   UNL     1      35.434 -21.512 -18.935  0.00  0.00    -0.280 N 
ATOM      8  N   UNL     1      36.665 -21.013 -19.162  0.00  0.00    -0.173 NA
ATOM      9  C   UNL     1      35.070 -19.957 -20.388  0.00  0.00    +0.032 A 
ATOM     10  C   UNL     1      35.406 -18.227 -21.873  0.00  0.00    +0.002 C 
ATOM     11  C   UNL     1      36.475 -20.037 -20.067  0.00  0.00    +0.102 A 
ATOM     12  C   UNL     1      34.459 -19.083 -21.278  0.00  0.00    +0.003 C 
ATOM     13  C   UNL     1      34.435 -20.914 -19.647  0.00  0.00    +0.053 A 
ATOM     14  C   UNL     1      36.808 -18.266 -21.590  0.00  0.00    +0.002 C 
ATOM     15  C   UNL     1      37.398 -19.169 -20.679  0.00  0.00    +0.021 C 
ATOM     16  C   UNL     1      33.029 -21.333 -19.524  0.00  0.00    +0.051 C 
ATOM     17  H   UNL     1      35.268 -22.249 -18.305  0.00  0.00    +0.189 HD
ENDBRANCH   2  10
BRANCH   3  18
ATOM     18  O   UNL     1      34.337 -13.664 -23.149  0.00  0.00    -0.476 OA
BRANCH  18  19
ATOM     19  C   UNL     1      33.612 -12.831 -24.058  0.00  0.00    +0.184 C 
BRANCH  19  20
ATOM     20  C   UNL     1      33.993 -11.360 -23.850  0.00  0.00    -0.017 C 
BRANCH  20  21
ATOM     21  N   UNL     1      34.916 -10.967 -24.919  0.00  0.00    +0.384 N 
ATOM     22  H   UNL     1      34.429 -10.369 -25.585  0.00  0.00    -0.089 HD
ATOM     23  H   UNL     1      35.257 -11.801 -25.398  0.00  0.00    -0.089 HD
ATOM     24  H   UNL     1      35.705 -10.459 -24.518  0.00  0.00    -0.089 HD
ENDBRANCH  20  21
BRANCH  20  25
ATOM     25  C   UNL     1      32.779 -10.408 -23.885  0.00  0.00    +0.008 C 
BRANCH  25  27
ATOM     26 BR   UNL     1      32.688  -6.189 -19.383  0.00  0.00    -0.049 Br
ATOM     27  C   UNL     1      32.756  -9.375 -22.785  0.00  0.00    -0.024 C 
ATOM     28  C   UNL     1      33.496  -8.212 -22.929  0.00  0.00    -0.004 C 
ATOM     29  C   UNL     1      31.998  -9.610 -21.650  0.00  0.00    -0.004 C 
ATOM     30  C   UNL     1      33.475  -7.258 -21.912  0.00  0.00    +0.006 C 
ATOM     31  C   UNL     1      31.977  -8.657 -20.633  0.00  0.00    +0.006 C 
ATOM     32  C   UNL     1      32.715  -7.481 -20.763  0.00  0.00    +0.035 C 
ENDBRANCH  25  27
ENDBRANCH  20  25
ENDBRANCH  19  20
ENDBRANCH  18  19
ENDBRANCH   3  18
TORSDOF 7
ENDMDL
MODEL 6
REMARK VINA RESULT:     -11.0      5.046     12.074
REMARK  Name = 16122642
REMARK  7 active torsions:
REMARK  status: ('A' for Active; 'I' for Inactive)
REMARK    1  A    between atoms: C_2  and  C_10
REMARK    2  A    between atoms: C_3  and  O_18
REMARK    3  A    between atoms: O_18  and  C_19
REMARK    4  A    between atoms: C_19  and  C_20
REMARK    5  A    between atoms: C_20  and  N_21
REMARK    6  A    between atoms: C_20  and  C_25
REMARK    7  A    between atoms: C_25  and  C_27
REMARK                            x       y       z     vdW  Elec       q    Type
REMARK                         _______ _______ _______ _____ _____    ______ ____
ROOT
ATOM      1  N   UNL     1      32.639 -22.635 -18.155  0.00  0.00    -0.239 NA
ATOM      2  C   UNL     1      34.389 -22.987 -16.535  0.00  0.00    +0.022 C 
ATOM      3  C   UNL     1      34.824 -21.652 -18.481  0.00  0.00    +0.158 C 
ATOM      4  C   UNL     1      35.263 -22.217 -17.288  0.00  0.00    +0.040 C 
ATOM      5  C   UNL     1      33.101 -23.166 -17.001  0.00  0.00    +0.099 C 
ATOM      6  C   UNL     1      33.514 -21.890 -18.867  0.00  0.00    +0.136 C 
ENDROOT
BRANCH   2  10
ATOM      7  N   UNL     1      37.361 -25.490 -12.229  0.00  0.00    -0.280 N 
ATOM      8  N   UNL     1      36.100 -25.291 -11.799  0.00  0.00    -0.173 NA
ATOM      9  C   UNL     1      36.406 -24.565 -13.929  0.00  0.00    +0.032 A 
ATOM     10  C   UNL     1      34.818 -23.588 -15.285  0.00  0.00    +0.002 C 
ATOM     11  C   UNL     1      35.473 -24.712 -12.838  0.00  0.00    +0.102 A 
ATOM     12  C   UNL     1      36.157 -24.014 -15.180  0.00  0.00    +0.003 C 
ATOM     13  C   UNL     1      37.601 -25.071 -13.505  0.00  0.00    +0.053 A 
ATOM     14  C   UNL     1      33.856 -23.711 -14.234  0.00  0.00    +0.002 C 
ATOM     15  C   UNL     1      34.141 -24.276 -12.972  0.00  0.00    +0.021 C 
ATOM     16  C   UNL     1      38.925 -25.211 -14.136  0.00  0.00    +0.051 C 
ATOM     17  H   UNL     1      38.054 -25.905 -11.667  0.00  0.00    +0.189 HD
ENDBRANCH   2  10
BRANCH   3  18
ATOM     18  O   UNL     1      35.651 -20.895 -19.242  0.00  0.00    -0.476 OA
BRANCH  18  19
ATOM     19  C   UNL     1      35.131 -20.392 -20.474  0.00  0.00    +0.184 C 
BRANCH  19  20
ATOM     20  C   UNL     1      35.760 -19.032 -20.801  0.00  0.00    -0.017 C 
BRANCH  20  21
ATOM     21  N   UNL     1      37.108 -18.997 -20.227  0.00  0.00    +0.384 N 
ATOM     22  H   UNL     1      37.426 -18.031 -20.164  0.00  0.00    -0.089 HD
ATOM     23  H   UNL     1      37.745 -19.526 -20.823  0.00  0.00    -0.089 HD
ATOM     24  H   UNL     1      37.092 -19.411 -19.295  0.00  0.00    -0.089 HD
ENDBRANCH  20  21
BRANCH  20  25
ATOM     25  C   UNL     1      35.872 -18.763 -22.317  0.00  0.00    +0.008 C 
BRANCH  25  27
ATOM     26 BR   UNL     1      33.333 -13.459 -24.186  0.00  0.00    -0.049 Br
ATOM     27  C   UNL     1      35.250 -17.466 -22.774  0.00  0.00    -0.024 C 
ATOM     28  C   UNL     1      34.742 -17.372 -24.060  0.00  0.00    -0.004 C 
ATOM     29  C   UNL     1      35.200 -16.393 -21.900  0.00  0.00    -0.004 C 
ATOM     30  C   UNL     1      34.168 -16.173 -24.483  0.00  0.00    +0.006 C 
ATOM     31  C   UNL     1      34.626 -15.194 -22.322  0.00  0.00    +0.006 C 
ATOM     32  C   UNL     1      34.110 -15.084 -23.613  0.00  0.00    +0.035 C 
ENDBRANCH  25  27
ENDBRANCH  20  25
ENDBRANCH  19  20
ENDBRANCH  18  19
ENDBRANCH   3  18
TORSDOF 7
ENDMDL
MODEL 7
REMARK VINA RESULT:     -11.0      3.516      6.580
REMARK  Name = 16122642
REMARK  7 active torsions:
REMARK  status: ('A' for Active; 'I' for Inactive)
REMARK    1  A    between atoms: C_2  and  C_10
REMARK    2  A    between atoms: C_3  and  O_18
REMARK    3  A    between atoms: O_18  and  C_19
REMARK    4  A    between atoms: C_19  and  C_20
REMARK    5  A    between atoms: C_20  and  N_21
REMARK    6  A    between atoms: C_20  and  C_25
REMARK    7  A    between atoms: C_25  and  C_27
REMARK                            x       y       z     vdW  Elec       q    Type
REMARK                         _______ _______ _______ _____ _____    ______ ____
ROOT
ATOM      1  N   UNL     1      37.436 -19.817 -19.293  0.00  0.00    -0.239 NA
ATOM      2  C   UNL     1      35.717 -19.468 -20.948  0.00  0.00    +0.022 C 
ATOM      3  C   UNL     1      35.539 -21.309 -19.419  0.00  0.00    +0.158 C 
ATOM      4  C   UNL     1      35.025 -20.576 -20.484  0.00  0.00    +0.040 C 
ATOM      5  C   UNL     1      36.905 -19.128 -20.329  0.00  0.00    +0.099 C 
ATOM      6  C   UNL     1      36.738 -20.891 -18.864  0.00  0.00    +0.136 C 
ENDROOT
BRANCH   2  10
ATOM      7  N   UNL     1      33.907 -15.236 -24.476  0.00  0.00    -0.280 N 
ATOM      8  N   UNL     1      33.773 -16.406 -25.132  0.00  0.00    -0.173 NA
ATOM      9  C   UNL     1      34.614 -16.684 -23.040  0.00  0.00    +0.032 A 
ATOM     10  C   UNL     1      35.205 -18.683 -22.056  0.00  0.00    +0.002 C 
ATOM     11  C   UNL     1      34.208 -17.335 -24.262  0.00  0.00    +0.102 A 
ATOM     12  C   UNL     1      35.122 -17.286 -21.896  0.00  0.00    +0.003 C 
ATOM     13  C   UNL     1      34.409 -15.344 -23.212  0.00  0.00    +0.053 A 
ATOM     14  C   UNL     1      34.815 -19.375 -23.245  0.00  0.00    +0.002 C 
ATOM     15  C   UNL     1      34.302 -18.733 -24.394  0.00  0.00    +0.021 C 
ATOM     16  C   UNL     1      34.621 -14.168 -22.353  0.00  0.00    +0.051 C 
ATOM     17  H   UNL     1      33.660 -14.372 -24.877  0.00  0.00    +0.189 HD
ENDBRANCH   2  10
BRANCH   3  18
ATOM     18  O   UNL     1      34.888 -22.397 -18.941  0.00  0.00    -0.476 OA
BRANCH  18  19
ATOM     19  C   UNL     1      33.467 -22.307 -18.810  0.00  0.00    +0.184 C 
BRANCH  19  20
ATOM     20  C   UNL     1      33.054 -22.517 -17.348  0.00  0.00    -0.017 C 
BRANCH  20  21
ATOM     21  N   UNL     1      31.589 -22.518 -17.279  0.00  0.00    +0.384 N 
ATOM     22  H   UNL     1      31.260 -23.461 -17.078  0.00  0.00    -0.089 HD
ATOM     23  H   UNL     1      31.207 -22.207 -18.171  0.00  0.00    -0.089 HD
ATOM     24  H   UNL     1      31.284 -21.886 -16.539  0.00  0.00    -0.089 HD
ENDBRANCH  20  21
BRANCH  20  25
ATOM     25  C   UNL     1      33.567 -23.848 -16.758  0.00  0.00    +0.008 C 
BRANCH  25  27
ATOM     26 BR   UNL     1      37.155 -23.243 -11.774  0.00  0.00    -0.049 Br
ATOM     27  C   UNL     1      34.445 -23.698 -15.539  0.00  0.00    -0.024 C 
ATOM     28  C   UNL     1      35.618 -22.967 -15.632  0.00  0.00    -0.004 C 
ATOM     29  C   UNL     1      34.061 -24.297 -14.351  0.00  0.00    -0.004 C 
ATOM     30  C   UNL     1      36.429 -22.830 -14.505  0.00  0.00    +0.006 C 
ATOM     31  C   UNL     1      34.872 -24.161 -13.224  0.00  0.00    +0.006 C 
ATOM     32  C   UNL     1      36.056 -23.427 -13.301  0.00  0.00    +0.035 C 
ENDBRANCH  25  27
ENDBRANCH  20  25
ENDBRANCH  19  20
ENDBRANCH  18  19
ENDBRANCH   3  18
TORSDOF 7
ENDMDL
MODEL 8
REMARK VINA RESULT:     -10.9      4.494     11.208
REMARK  Name = 16122642
REMARK  7 active torsions:
REMARK  status: ('A' for Active; 'I' for Inactive)
REMARK    1  A    between atoms: C_2  and  C_10
REMARK    2  A    between atoms: C_3  and  O_18
REMARK    3  A    between atoms: O_18  and  C_19
REMARK    4  A    between atoms: C_19  and  C_20
REMARK    5  A    between atoms: C_20  and  N_21
REMARK    6  A    between atoms: C_20  and  C_25
REMARK    7  A    between atoms: C_25  and  C_27
REMARK                            x       y       z     vdW  Elec       q    Type
REMARK                         _______ _______ _______ _____ _____    ______ ____
ROOT
ATOM      1  N   UNL     1      36.729 -21.420 -18.955  0.00  0.00    -0.239 NA
ATOM      2  C   UNL     1      34.586 -22.001 -18.013  0.00  0.00    +0.022 C 
ATOM      3  C   UNL     1      34.686 -20.665 -20.004  0.00  0.00    +0.158 C 
ATOM      4  C   UNL     1      33.937 -21.306 -19.022  0.00  0.00    +0.040 C 
ATOM      5  C   UNL     1      35.968 -22.032 -18.019  0.00  0.00    +0.099 C 
ATOM      6  C   UNL     1      36.067 -20.752 -19.925  0.00  0.00    +0.136 C 
ENDROOT
BRANCH   2  10
ATOM      7  N   UNL     1      32.875 -24.892 -13.286  0.00  0.00    -0.280 N 
ATOM      8  N   UNL     1      31.779 -24.609 -14.016  0.00  0.00    -0.173 NA
ATOM      9  C   UNL     1      33.681 -23.831 -14.984  0.00  0.00    +0.032 A 
ATOM     10  C   UNL     1      33.832 -22.680 -16.976  0.00  0.00    +0.002 C 
ATOM     11  C   UNL     1      32.246 -23.944 -15.087  0.00  0.00    +0.102 A 
ATOM     12  C   UNL     1      34.543 -23.216 -15.883  0.00  0.00    +0.003 C 
ATOM     13  C   UNL     1      34.048 -24.448 -13.822  0.00  0.00    +0.053 A 
ATOM     14  C   UNL     1      32.412 -22.766 -17.124  0.00  0.00    +0.002 C 
ATOM     15  C   UNL     1      31.563 -23.398 -16.190  0.00  0.00    +0.021 C 
ATOM     16  C   UNL     1      35.344 -24.669 -13.158  0.00  0.00    +0.051 C 
ATOM     17  H   UNL     1      32.833 -25.383 -12.434  0.00  0.00    +0.189 HD
ENDBRANCH   2  10
BRANCH   3  18
ATOM     18  O   UNL     1      34.084 -19.978 -21.005  0.00  0.00    -0.476 OA
BRANCH  18  19
ATOM     19  C   UNL     1      34.820 -19.805 -22.217  0.00  0.00    +0.184 C 
BRANCH  19  20
ATOM     20  C   UNL     1      35.302 -18.354 -22.344  0.00  0.00    -0.017 C 
BRANCH  20  21
ATOM     21  N   UNL     1      36.765 -18.345 -22.266  0.00  0.00    +0.384 N 
ATOM     22  H   UNL     1      37.110 -17.405 -22.460  0.00  0.00    -0.089 HD
ATOM     23  H   UNL     1      37.146 -18.995 -22.954  0.00  0.00    -0.089 HD
ATOM     24  H   UNL     1      37.058 -18.629 -21.332  0.00  0.00    -0.089 HD
ENDBRANCH  20  21
BRANCH  20  25
ATOM     25  C   UNL     1      34.883 -17.690 -23.673  0.00  0.00    +0.008 C 
BRANCH  25  27
ATOM     26 BR   UNL     1      33.270 -11.754 -23.185  0.00  0.00    -0.049 Br
ATOM     27  C   UNL     1      34.488 -16.238 -23.554  0.00  0.00    -0.024 C 
ATOM     28  C   UNL     1      33.833 -15.623 -24.609  0.00  0.00    -0.004 C 
ATOM     29  C   UNL     1      34.787 -15.547 -22.391  0.00  0.00    -0.004 C 
ATOM     30  C   UNL     1      33.469 -14.281 -24.499  0.00  0.00    +0.006 C 
ATOM     31  C   UNL     1      34.423 -14.205 -22.281  0.00  0.00    +0.006 C 
ATOM     32  C   UNL     1      33.763 -13.572 -23.334  0.00  0.00    +0.035 C 
ENDBRANCH  25  27
ENDBRANCH  20  25
ENDBRANCH  19  20
ENDBRANCH  18  19
ENDBRANCH   3  18
TORSDOF 7
ENDMDL
MODEL 9
REMARK VINA RESULT:     -10.8      3.720     10.238
REMARK  Name = 16122642
REMARK  7 active torsions:
REMARK  status: ('A' for Active; 'I' for Inactive)
REMARK    1  A    between atoms: C_2  and  C_10
REMARK    2  A    between atoms: C_3  and  O_18
REMARK    3  A    between atoms: O_18  and  C_19
REMARK    4  A    between atoms: C_19  and  C_20
REMARK    5  A    between atoms: C_20  and  N_21
REMARK    6  A    between atoms: C_20  and  C_25
REMARK    7  A    between atoms: C_25  and  C_27
REMARK                            x       y       z     vdW  Elec       q    Type
REMARK                         _______ _______ _______ _____ _____    ______ ____
ROOT
ATOM      1  N   UNL     1      37.646 -18.908 -21.212  0.00  0.00    -0.239 NA
ATOM      2  C   UNL     1      35.811 -20.093 -20.192  0.00  0.00    +0.022 C 
ATOM      3  C   UNL     1      35.396 -18.635 -22.052  0.00  0.00    +0.158 C 
ATOM      4  C   UNL     1      34.922 -19.519 -21.088  0.00  0.00    +0.040 C 
ATOM      5  C   UNL     1      37.149 -19.763 -20.291  0.00  0.00    +0.099 C 
ATOM      6  C   UNL     1      36.755 -18.366 -22.072  0.00  0.00    +0.136 C 
ENDROOT
BRANCH   2  10
ATOM      7  N   UNL     1      35.289 -23.628 -15.624  0.00  0.00    -0.280 N 
ATOM      8  N   UNL     1      34.113 -23.626 -16.281  0.00  0.00    -0.173 NA
ATOM      9  C   UNL     1      35.653 -22.282 -17.272  0.00  0.00    +0.032 A 
ATOM     10  C   UNL     1      35.347 -21.020 -19.176  0.00  0.00    +0.002 C 
ATOM     11  C   UNL     1      34.304 -22.793 -17.319  0.00  0.00    +0.102 A 
ATOM     12  C   UNL     1      36.248 -21.395 -18.160  0.00  0.00    +0.003 C 
ATOM     13  C   UNL     1      36.253 -22.836 -16.177  0.00  0.00    +0.053 A 
ATOM     14  C   UNL     1      34.002 -21.497 -19.267  0.00  0.00    +0.002 C 
ATOM     15  C   UNL     1      33.426 -22.400 -18.346  0.00  0.00    +0.021 C 
ATOM     16  C   UNL     1      37.598 -22.718 -15.589  0.00  0.00    +0.051 C 
ATOM     17  H   UNL     1      35.441 -24.159 -14.810  0.00  0.00    +0.189 HD
ENDBRANCH   2  10
BRANCH   3  18
ATOM     18  O   UNL     1      34.555 -18.057 -22.943  0.00  0.00    -0.476 OA
BRANCH  18  19
ATOM     19  C   UNL     1      35.140 -17.264 -23.979  0.00  0.00    +0.184 C 
BRANCH  19  20
ATOM     20  C   UNL     1      34.606 -15.828 -23.915  0.00  0.00    -0.017 C 
BRANCH  20  21
ATOM     21  N   UNL     1      33.245 -15.817 -24.459  0.00  0.00    +0.384 N 
ATOM     22  H   UNL     1      32.581 -16.034 -23.716  0.00  0.00    -0.089 HD
ATOM     23  H   UNL     1      33.169 -16.516 -25.198  0.00  0.00    -0.089 HD
ATOM     24  H   UNL     1      33.038 -14.894 -24.840  0.00  0.00    -0.089 HD
ENDBRANCH  20  21
BRANCH  20  25
ATOM     25  C   UNL     1      34.559 -15.261 -22.480  0.00  0.00    +0.008 C 
BRANCH  25  27
ATOM     26 BR   UNL     1      31.459  -9.957 -21.904  0.00  0.00    -0.049 Br
ATOM     27  C   UNL     1      33.800 -13.963 -22.340  0.00  0.00    -0.024 C 
ATOM     28  C   UNL     1      33.979 -12.966 -23.286  0.00  0.00    -0.004 C 
ATOM     29  C   UNL     1      32.940 -13.794 -21.268  0.00  0.00    -0.004 C 
ATOM     30  C   UNL     1      33.279 -11.767 -23.155  0.00  0.00    +0.006 C 
ATOM     31  C   UNL     1      32.239 -12.595 -21.138  0.00  0.00    +0.006 C 
ATOM     32  C   UNL     1      32.408 -11.582 -22.081  0.00  0.00    +0.035 C 
ENDBRANCH  25  27
ENDBRANCH  20  25
ENDBRANCH  19  20
ENDBRANCH  18  19
ENDBRANCH   3  18
TORSDOF 7
ENDMDL
