MODEL 1
REMARK VINA RESULT:     -12.1      0.000      0.000
REMARK  Name = 60870
REMARK  7 active torsions:
REMARK  status: ('A' for Active; 'I' for Inactive)
REMARK    1  A    between atoms: C_2  and  C_4
REMARK    2  A    between atoms: C_2  and  C_18
REMARK    3  A    between atoms: C_3  and  C_9
REMARK    4  A    between atoms: C_9  and  C_14
REMARK    5  A    between atoms: C_18  and  C_19
REMARK    6  A    between atoms: C_19  and  C_22
REMARK    7  A    between atoms: C_24  and  C_26
REMARK                            x       y       z     vdW  Elec       q    Type
REMARK                         _______ _______ _______ _____ _____    ______ ____
ROOT
ATOM      1  O   UNL     1      34.443 -15.998 -25.125  0.00  0.00    -0.291 OA
ATOM      2  C   UNL     1      34.588 -15.961 -23.886  0.00  0.00    +0.173 C 
ENDROOT
BRANCH   2   4
ATOM      3  C   UNL     1      35.150 -19.514 -21.665  0.00  0.00    -0.021 C 
ATOM      4  C   UNL     1      34.783 -17.183 -23.122  0.00  0.00    +0.035 C 
ATOM      5  C   UNL     1      34.599 -19.585 -22.936  0.00  0.00    -0.004 C 
ATOM      6  C   UNL     1      35.522 -18.299 -21.111  0.00  0.00    -0.004 C 
ATOM      7  C   UNL     1      34.414 -18.412 -23.669  0.00  0.00    +0.003 C 
ATOM      8  C   UNL     1      35.337 -17.126 -21.844  0.00  0.00    +0.003 C 
BRANCH   3   9
ATOM      9  C   UNL     1      35.352 -20.781 -20.874  0.00  0.00    +0.047 C 
BRANCH   9  14
ATOM     10  S   UNL     1      35.359 -21.918 -18.365  0.00  0.00    -0.048 S 
ATOM     11  O   UNL     1      32.388 -20.593 -20.441  0.00  0.00    -0.274 OA
ATOM     12  O   UNL     1      33.746 -23.706 -17.312  0.00  0.00    -0.263 OA
ATOM     13  N   UNL     1      32.871 -22.213 -18.863  0.00  0.00    -0.246 N 
ATOM     14  C   UNL     1      34.626 -20.739 -19.540  0.00  0.00    +0.137 C 
ATOM     15  C   UNL     1      33.178 -21.149 -19.686  0.00  0.00    +0.239 C 
ATOM     16  C   UNL     1      33.854 -22.767 -18.085  0.00  0.00    +0.279 C 
ATOM     17  H   UNL     1      31.955 -22.570 -18.834  0.00  0.00    +0.158 HD
ENDBRANCH   9  14
ENDBRANCH   3   9
ENDBRANCH   2   4
BRANCH   2  18
ATOM     18  C   UNL     1      34.562 -14.599 -23.165  0.00  0.00    +0.076 C 
BRANCH  18  19
ATOM     19  C   UNL     1      33.214 -13.880 -23.268  0.00  0.00    +0.066 C 
BRANCH  19  22
ATOM     20  O   UNL     1      33.575 -10.714 -25.052  0.00  0.00    -0.449 OA
ATOM     21  N   UNL     1      33.371 -11.436 -22.918  0.00  0.00    -0.373 NA
ATOM     22  C   UNL     1      33.355 -12.479 -23.786  0.00  0.00    +0.130 C 
ATOM     23  C   UNL     1      33.476 -12.073 -25.072  0.00  0.00    +0.216 C 
ATOM     24  C   UNL     1      33.505 -10.410 -23.728  0.00  0.00    +0.277 C 
ATOM     25  C   UNL     1      33.520 -12.726 -26.385  0.00  0.00    +0.055 C 
BRANCH  24  26
ATOM     26  C   UNL     1      33.587  -9.009 -23.417  0.00  0.00    +0.066 C 
ATOM     27  C   UNL     1      32.444  -8.307 -23.026  0.00  0.00    +0.006 C 
ATOM     28  C   UNL     1      34.811  -8.340 -23.507  0.00  0.00    +0.006 C 
ATOM     29  C   UNL     1      32.523  -6.946 -22.726  0.00  0.00    +0.000 C 
ATOM     30  C   UNL     1      34.891  -6.980 -23.206  0.00  0.00    +0.000 C 
ATOM     31  C   UNL     1      33.746  -6.283 -22.816  0.00  0.00    +0.000 C 
ENDBRANCH  24  26
ENDBRANCH  19  22
ENDBRANCH  18  19
ENDBRANCH   2  18
TORSDOF 7
ENDMDL
MODEL 2
REMARK VINA RESULT:     -12.1      2.937      5.156
REMARK  Name = 60870
REMARK  7 active torsions:
REMARK  status: ('A' for Active; 'I' for Inactive)
REMARK    1  A    between atoms: C_2  and  C_4
REMARK    2  A    between atoms: C_2  and  C_18
REMARK    3  A    between atoms: C_3  and  C_9
REMARK    4  A    between atoms: C_9  and  C_14
REMARK    5  A    between atoms: C_18  and  C_19
REMARK    6  A    between atoms: C_19  and  C_22
REMARK    7  A    between atoms: C_24  and  C_26
REMARK                            x       y       z     vdW  Elec       q    Type
REMARK                         _______ _______ _______ _____ _____    ______ ____
ROOT
ATOM      1  O   UNL     1      36.857 -19.232 -20.273  0.00  0.00    -0.291 OA
ATOM      2  C   UNL     1      35.721 -19.648 -20.581  0.00  0.00    +0.173 C 
ENDROOT
BRANCH   2   4
ATOM      3  C   UNL     1      33.723 -22.478 -18.157  0.00  0.00    -0.021 C 
ATOM      4  C   UNL     1      35.034 -20.621 -19.746  0.00  0.00    +0.035 C 
ATOM      5  C   UNL     1      35.103 -22.363 -18.074  0.00  0.00    -0.004 C 
ATOM      6  C   UNL     1      32.987 -21.679 -19.020  0.00  0.00    -0.004 C 
ATOM      7  C   UNL     1      35.762 -21.429 -18.874  0.00  0.00    +0.003 C 
ATOM      8  C   UNL     1      33.647 -20.745 -19.819  0.00  0.00    +0.003 C 
BRANCH   3   9
ATOM      9  C   UNL     1      33.011 -23.486 -17.292  0.00  0.00    +0.047 C 
BRANCH   9  14
ATOM     10  S   UNL     1      33.271 -23.678 -14.557  0.00  0.00    -0.048 S 
ATOM     11  O   UNL     1      30.192 -22.676 -16.657  0.00  0.00    -0.274 OA
ATOM     12  O   UNL     1      31.640 -24.706 -12.769  0.00  0.00    -0.263 OA
ATOM     13  N   UNL     1      30.719 -23.712 -14.658  0.00  0.00    -0.246 N 
ATOM     14  C   UNL     1      32.509 -22.870 -15.998  0.00  0.00    +0.137 C 
ATOM     15  C   UNL     1      31.018 -23.061 -15.837  0.00  0.00    +0.239 C 
ATOM     16  C   UNL     1      31.737 -24.120 -13.837  0.00  0.00    +0.279 C 
ATOM     17  H   UNL     1      29.783 -23.883 -14.409  0.00  0.00    +0.158 HD
ENDBRANCH   9  14
ENDBRANCH   3   9
ENDBRANCH   2   4
BRANCH   2  18
ATOM     18  C   UNL     1      35.046 -19.119 -21.861  0.00  0.00    +0.076 C 
BRANCH  18  19
ATOM     19  C   UNL     1      35.859 -18.036 -22.577  0.00  0.00    +0.066 C 
BRANCH  19  22
ATOM     20  O   UNL     1      33.493 -16.205 -24.670  0.00  0.00    -0.449 OA
ATOM     21  N   UNL     1      35.154 -15.749 -23.204  0.00  0.00    -0.373 NA
ATOM     22  C   UNL     1      34.989 -17.088 -23.348  0.00  0.00    +0.130 C 
ATOM     23  C   UNL     1      33.999 -17.388 -24.222  0.00  0.00    +0.216 C 
ATOM     24  C   UNL     1      34.237 -15.272 -24.015  0.00  0.00    +0.277 C 
ATOM     25  C   UNL     1      33.395 -18.615 -24.753  0.00  0.00    +0.055 C 
BRANCH  24  26
ATOM     26  C   UNL     1      33.904 -13.906 -24.311  0.00  0.00    +0.066 C 
ATOM     27  C   UNL     1      33.536 -13.536 -25.607  0.00  0.00    +0.006 C 
ATOM     28  C   UNL     1      33.949 -12.938 -23.303  0.00  0.00    +0.006 C 
ATOM     29  C   UNL     1      33.214 -12.209 -25.894  0.00  0.00    +0.000 C 
ATOM     30  C   UNL     1      33.627 -11.611 -23.590  0.00  0.00    +0.000 C 
ATOM     31  C   UNL     1      33.260 -11.247 -24.885  0.00  0.00    +0.000 C 
ENDBRANCH  24  26
ENDBRANCH  19  22
ENDBRANCH  18  19
ENDBRANCH   2  18
TORSDOF 7
ENDMDL
MODEL 3
REMARK VINA RESULT:     -12.0      3.719     11.216
REMARK  Name = 60870
REMARK  7 active torsions:
REMARK  status: ('A' for Active; 'I' for Inactive)
REMARK    1  A    between atoms: C_2  and  C_4
REMARK    2  A    between atoms: C_2  and  C_18
REMARK    3  A    between atoms: C_3  and  C_9
REMARK    4  A    between atoms: C_9  and  C_14
REMARK    5  A    between atoms: C_18  and  C_19
REMARK    6  A    between atoms: C_19  and  C_22
REMARK    7  A    between atoms: C_24  and  C_26
REMARK                            x       y       z     vdW  Elec       q    Type
REMARK                         _______ _______ _______ _____ _____    ______ ____
ROOT
ATOM      1  O   UNL     1      34.670 -15.078 -20.587  0.00  0.00    -0.291 OA
ATOM      2  C   UNL     1      34.265 -14.694 -21.703  0.00  0.00    +0.173 C 
ENDROOT
BRANCH   2   4
ATOM      3  C   UNL     1      32.068 -11.102 -22.091  0.00  0.00    -0.021 C 
ATOM      4  C   UNL     1      33.510 -13.458 -21.836  0.00  0.00    +0.035 C 
ATOM      5  C   UNL     1      31.800 -11.954 -21.029  0.00  0.00    -0.004 C 
ATOM      6  C   UNL     1      33.045 -11.408 -23.027  0.00  0.00    -0.004 C 
ATOM      7  C   UNL     1      32.526 -13.139 -20.901  0.00  0.00    +0.003 C 
ATOM      8  C   UNL     1      33.770 -12.593 -22.899  0.00  0.00    +0.003 C 
BRANCH   3   9
ATOM      9  C   UNL     1      31.285  -9.822 -22.229  0.00  0.00    +0.047 C 
BRANCH   9  14
ATOM     10  S   UNL     1      32.586  -7.990 -20.635  0.00  0.00    -0.048 S 
ATOM     11  O   UNL     1      31.082  -7.533 -24.160  0.00  0.00    -0.274 OA
ATOM     12  O   UNL     1      32.011  -5.475 -20.131  0.00  0.00    -0.263 OA
ATOM     13  N   UNL     1      31.477  -6.328 -22.226  0.00  0.00    -0.246 N 
ATOM     14  C   UNL     1      32.193  -8.607 -22.301  0.00  0.00    +0.137 C 
ATOM     15  C   UNL     1      31.522  -7.457 -23.018  0.00  0.00    +0.239 C 
ATOM     16  C   UNL     1      31.979  -6.379 -20.952  0.00  0.00    +0.279 C 
ATOM     17  H   UNL     1      31.089  -5.493 -22.573  0.00  0.00    +0.158 HD
ENDBRANCH   9  14
ENDBRANCH   3   9
ENDBRANCH   2   4
BRANCH   2  18
ATOM     18  C   UNL     1      34.575 -15.544 -22.950  0.00  0.00    +0.076 C 
BRANCH  18  19
ATOM     19  C   UNL     1      35.693 -16.567 -22.729  0.00  0.00    +0.066 C 
BRANCH  19  22
ATOM     20  O   UNL     1      34.187 -19.860 -22.257  0.00  0.00    -0.449 OA
ATOM     21  N   UNL     1      35.401 -18.371 -21.063  0.00  0.00    -0.373 NA
ATOM     22  C   UNL     1      35.163 -17.908 -22.315  0.00  0.00    +0.130 C 
ATOM     23  C   UNL     1      34.437 -18.782 -23.051  0.00  0.00    +0.216 C 
ATOM     24  C   UNL     1      34.796 -19.538 -21.083  0.00  0.00    +0.277 C 
ATOM     25  C   UNL     1      33.900 -18.821 -24.416  0.00  0.00    +0.055 C 
BRANCH  24  26
ATOM     26  C   UNL     1      34.685 -20.525 -20.045  0.00  0.00    +0.066 C 
ATOM     27  C   UNL     1      35.834 -21.055 -19.452  0.00  0.00    +0.006 C 
ATOM     28  C   UNL     1      33.426 -20.962 -19.623  0.00  0.00    +0.006 C 
ATOM     29  C   UNL     1      35.726 -22.015 -18.445  0.00  0.00    +0.000 C 
ATOM     30  C   UNL     1      33.317 -21.922 -18.616  0.00  0.00    +0.000 C 
ATOM     31  C   UNL     1      34.468 -22.448 -18.028  0.00  0.00    +0.000 C 
ENDBRANCH  24  26
ENDBRANCH  19  22
ENDBRANCH  18  19
ENDBRANCH   2  18
TORSDOF 7
ENDMDL
MODEL 4
REMARK VINA RESULT:     -11.9      5.253     13.125
REMARK  Name = 60870
REMARK  7 active torsions:
REMARK  status: ('A' for Active; 'I' for Inactive)
REMARK    1  A    between atoms: C_2  and  C_4
REMARK    2  A    between atoms: C_2  and  C_18
REMARK    3  A    between atoms: C_3  and  C_9
REMARK    4  A    between atoms: C_9  and  C_14
REMARK    5  A    between atoms: C_18  and  C_19
REMARK    6  A    between atoms: C_19  and  C_22
REMARK    7  A    between atoms: C_24  and  C_26
REMARK                            x       y       z     vdW  Elec       q    Type
REMARK                         _______ _______ _______ _____ _____    ______ ____
ROOT
ATOM      1  O   UNL     1      33.463 -24.317 -17.858  0.00  0.00    -0.291 OA
ATOM      2  C   UNL     1      33.251 -23.095 -17.722  0.00  0.00    +0.173 C 
ENDROOT
BRANCH   2   4
ATOM      3  C   UNL     1      35.057 -20.284 -20.315  0.00  0.00    -0.021 C 
ATOM      4  C   UNL     1      33.872 -22.128 -18.615  0.00  0.00    +0.035 C 
ATOM      5  C   UNL     1      35.858 -21.110 -19.541  0.00  0.00    -0.004 C 
ATOM      6  C   UNL     1      33.673 -20.365 -20.254  0.00  0.00    -0.004 C 
ATOM      7  C   UNL     1      35.262 -22.038 -18.686  0.00  0.00    +0.003 C 
ATOM      8  C   UNL     1      33.078 -21.293 -19.399  0.00  0.00    +0.003 C 
BRANCH   3   9
ATOM      9  C   UNL     1      35.700 -19.283 -21.239  0.00  0.00    +0.047 C 
BRANCH   9  14
ATOM     10  S   UNL     1      34.544 -18.533 -23.624  0.00  0.00    -0.048 S 
ATOM     11  O   UNL     1      35.339 -16.394 -20.512  0.00  0.00    -0.274 OA
ATOM     12  O   UNL     1      34.964 -16.409 -25.115  0.00  0.00    -0.263 OA
ATOM     13  N   UNL     1      35.188 -16.199 -22.811  0.00  0.00    -0.246 N 
ATOM     14  C   UNL     1      34.685 -18.316 -21.823  0.00  0.00    +0.137 C 
ATOM     15  C   UNL     1      35.107 -16.879 -21.614  0.00  0.00    +0.239 C 
ATOM     16  C   UNL     1      34.932 -16.864 -23.981  0.00  0.00    +0.279 C 
ATOM     17  H   UNL     1      35.428 -15.245 -22.825  0.00  0.00    +0.158 HD
ENDBRANCH   9  14
ENDBRANCH   3   9
ENDBRANCH   2   4
BRANCH   2  18
ATOM     18  C   UNL     1      32.319 -22.612 -16.595  0.00  0.00    +0.076 C 
BRANCH  18  19
ATOM     19  C   UNL     1      31.702 -23.754 -15.782  0.00  0.00    +0.066 C 
BRANCH  19  22
ATOM     20  O   UNL     1      33.103 -24.640 -12.528  0.00  0.00    -0.449 OA
ATOM     21  N   UNL     1      33.830 -23.866 -14.526  0.00  0.00    -0.373 NA
ATOM     22  C   UNL     1      32.486 -24.055 -14.539  0.00  0.00    +0.130 C 
ATOM     23  C   UNL     1      32.026 -24.519 -13.354  0.00  0.00    +0.216 C 
ATOM     24  C   UNL     1      34.144 -24.229 -13.302  0.00  0.00    +0.277 C 
ATOM     25  C   UNL     1      30.718 -24.893 -12.803  0.00  0.00    +0.055 C 
BRANCH  24  26
ATOM     26  C   UNL     1      35.430 -24.258 -12.663  0.00  0.00    +0.066 C 
ATOM     27  C   UNL     1      35.549 -23.945 -11.306  0.00  0.00    +0.006 C 
ATOM     28  C   UNL     1      36.572 -24.597 -13.396  0.00  0.00    +0.006 C 
ATOM     29  C   UNL     1      36.799 -23.972 -10.686  0.00  0.00    +0.000 C 
ATOM     30  C   UNL     1      37.821 -24.624 -12.775  0.00  0.00    +0.000 C 
ATOM     31  C   UNL     1      37.934 -24.311 -11.420  0.00  0.00    +0.000 C 
ENDBRANCH  24  26
ENDBRANCH  19  22
ENDBRANCH  18  19
ENDBRANCH   2  18
TORSDOF 7
ENDMDL
MODEL 5
REMARK VINA RESULT:     -11.9      2.774      4.731
REMARK  Name = 60870
REMARK  7 active torsions:
REMARK  status: ('A' for Active; 'I' for Inactive)
REMARK    1  A    between atoms: C_2  and  C_4
REMARK    2  A    between atoms: C_2  and  C_18
REMARK    3  A    between atoms: C_3  and  C_9
REMARK    4  A    between atoms: C_9  and  C_14
REMARK    5  A    between atoms: C_18  and  C_19
REMARK    6  A    between atoms: C_19  and  C_22
REMARK    7  A    between atoms: C_24  and  C_26
REMARK                            x       y       z     vdW  Elec       q    Type
REMARK                         _______ _______ _______ _____ _____    ______ ____
ROOT
ATOM      1  O   UNL     1      37.218 -19.414 -20.599  0.00  0.00    -0.291 OA
ATOM      2  C   UNL     1      35.974 -19.508 -20.635  0.00  0.00    +0.173 C 
ENDROOT
BRANCH   2   4
ATOM      3  C   UNL     1      33.955 -22.405 -18.310  0.00  0.00    -0.021 C 
ATOM      4  C   UNL     1      35.279 -20.504 -19.834  0.00  0.00    +0.035 C 
ATOM      5  C   UNL     1      35.334 -22.297 -18.217  0.00  0.00    -0.004 C 
ATOM      6  C   UNL     1      33.226 -21.578 -19.151  0.00  0.00    -0.004 C 
ATOM      7  C   UNL     1      36.001 -21.341 -18.984  0.00  0.00    +0.003 C 
ATOM      8  C   UNL     1      33.892 -20.621 -19.918  0.00  0.00    +0.003 C 
BRANCH   3   9
ATOM      9  C   UNL     1      33.235 -23.438 -17.481  0.00  0.00    +0.047 C 
BRANCH   9  14
ATOM     10  S   UNL     1      33.747 -23.703 -14.787  0.00  0.00    -0.048 S 
ATOM     11  O   UNL     1      30.448 -22.795 -16.573  0.00  0.00    -0.274 OA
ATOM     12  O   UNL     1      32.334 -24.870 -12.903  0.00  0.00    -0.263 OA
ATOM     13  N   UNL     1      31.201 -23.866 -14.666  0.00  0.00    -0.246 N 
ATOM     14  C   UNL     1      32.821 -22.890 -16.126  0.00  0.00    +0.137 C 
ATOM     15  C   UNL     1      31.361 -23.163 -15.842  0.00  0.00    +0.239 C 
ATOM     16  C   UNL     1      32.307 -24.246 -13.953  0.00  0.00    +0.279 C 
ATOM     17  H   UNL     1      30.300 -24.092 -14.343  0.00  0.00    +0.158 HD
ENDBRANCH   9  14
ENDBRANCH   3   9
ENDBRANCH   2   4
BRANCH   2  18
ATOM     18  C   UNL     1      35.173 -18.551 -21.538  0.00  0.00    +0.076 C 
BRANCH  18  19
ATOM     19  C   UNL     1      35.912 -17.248 -21.856  0.00  0.00    +0.066 C 
BRANCH  19  22
ATOM     20  O   UNL     1      33.667 -15.020 -23.681  0.00  0.00    -0.449 OA
ATOM     21  N   UNL     1      34.679 -15.113 -21.660  0.00  0.00    -0.373 NA
ATOM     22  C   UNL     1      34.998 -16.197 -22.412  0.00  0.00    +0.130 C 
ATOM     23  C   UNL     1      34.404 -16.165 -23.628  0.00  0.00    +0.216 C 
ATOM     24  C   UNL     1      33.885 -14.445 -22.467  0.00  0.00    +0.277 C 
ATOM     25  C   UNL     1      34.380 -17.029 -24.813  0.00  0.00    +0.055 C 
BRANCH  24  26
ATOM     26  C   UNL     1      33.209 -13.196 -22.252  0.00  0.00    +0.066 C 
ATOM     27  C   UNL     1      32.358 -13.034 -21.156  0.00  0.00    +0.006 C 
ATOM     28  C   UNL     1      33.399 -12.133 -23.142  0.00  0.00    +0.006 C 
ATOM     29  C   UNL     1      31.702 -11.821 -20.948  0.00  0.00    +0.000 C 
ATOM     30  C   UNL     1      32.742 -10.920 -22.934  0.00  0.00    +0.000 C 
ATOM     31  C   UNL     1      31.894 -10.764 -21.838  0.00  0.00    +0.000 C 
ENDBRANCH  24  26
ENDBRANCH  19  22
ENDBRANCH  18  19
ENDBRANCH   2  18
TORSDOF 7
ENDMDL
MODEL 6
REMARK VINA RESULT:     -11.8      3.976     11.244
REMARK  Name = 60870
REMARK  7 active torsions:
REMARK  status: ('A' for Active; 'I' for Inactive)
REMARK    1  A    between atoms: C_2  and  C_4
REMARK    2  A    between atoms: C_2  and  C_18
REMARK    3  A    between atoms: C_3  and  C_9
REMARK    4  A    between atoms: C_9  and  C_14
REMARK    5  A    between atoms: C_18  and  C_19
REMARK    6  A    between atoms: C_19  and  C_22
REMARK    7  A    between atoms: C_24  and  C_26
REMARK                            x       y       z     vdW  Elec       q    Type
REMARK                         _______ _______ _______ _____ _____    ______ ____
ROOT
ATOM      1  O   UNL     1      33.202 -14.703 -24.730  0.00  0.00    -0.291 OA
ATOM      2  C   UNL     1      33.641 -14.139 -23.707  0.00  0.00    +0.173 C 
ENDROOT
BRANCH   2   4
ATOM      3  C   UNL     1      33.266  -9.957 -23.209  0.00  0.00    -0.021 C 
ATOM      4  C   UNL     1      33.511 -12.700 -23.536  0.00  0.00    +0.035 C 
ATOM      5  C   UNL     1      34.070 -10.453 -24.224  0.00  0.00    -0.004 C 
ATOM      6  C   UNL     1      32.581 -10.809 -22.355  0.00  0.00    -0.004 C 
ATOM      7  C   UNL     1      34.194 -11.833 -24.389  0.00  0.00    +0.003 C 
ATOM      8  C   UNL     1      32.704 -12.189 -22.520  0.00  0.00    +0.003 C 
BRANCH   3   9
ATOM      9  C   UNL     1      33.131  -8.466 -23.032  0.00  0.00    +0.047 C 
BRANCH   9  14
ATOM     10  S   UNL     1      30.926  -6.820 -23.156  0.00  0.00    -0.048 S 
ATOM     11  O   UNL     1      32.870  -8.077 -20.068  0.00  0.00    -0.274 OA
ATOM     12  O   UNL     1      30.389  -4.609 -21.841  0.00  0.00    -0.263 OA
ATOM     13  N   UNL     1      31.643  -6.248 -20.772  0.00  0.00    -0.246 N 
ATOM     14  C   UNL     1      31.871  -8.097 -22.269  0.00  0.00    +0.137 C 
ATOM     15  C   UNL     1      32.199  -7.502 -20.918  0.00  0.00    +0.239 C 
ATOM     16  C   UNL     1      30.935  -5.701 -21.811  0.00  0.00    +0.279 C 
ATOM     17  H   UNL     1      31.753  -5.750 -19.931  0.00  0.00    +0.158 HD
ENDBRANCH   9  14
ENDBRANCH   3   9
ENDBRANCH   2   4
BRANCH   2  18
ATOM     18  C   UNL     1      34.325 -14.985 -22.616  0.00  0.00    +0.076 C 
BRANCH  18  19
ATOM     19  C   UNL     1      35.328 -16.001 -23.170  0.00  0.00    +0.066 C 
BRANCH  19  22
ATOM     20  O   UNL     1      34.327 -19.468 -22.614  0.00  0.00    -0.449 OA
ATOM     21  N   UNL     1      35.422 -17.828 -21.506  0.00  0.00    -0.373 NA
ATOM     22  C   UNL     1      35.021 -17.401 -22.729  0.00  0.00    +0.130 C 
ATOM     23  C   UNL     1      34.362 -18.366 -23.414  0.00  0.00    +0.216 C 
ATOM     24  C   UNL     1      34.981 -19.066 -21.490  0.00  0.00    +0.277 C 
ATOM     25  C   UNL     1      33.725 -18.477 -24.731  0.00  0.00    +0.055 C 
BRANCH  24  26
ATOM     26  C   UNL     1      35.091 -20.059 -20.458  0.00  0.00    +0.066 C 
ATOM     27  C   UNL     1      33.944 -20.671 -19.944  0.00  0.00    +0.006 C 
ATOM     28  C   UNL     1      36.347 -20.419 -19.960  0.00  0.00    +0.006 C 
ATOM     29  C   UNL     1      34.051 -21.634 -18.941  0.00  0.00    +0.000 C 
ATOM     30  C   UNL     1      36.454 -21.382 -18.956  0.00  0.00    +0.000 C 
ATOM     31  C   UNL     1      35.305 -21.990 -18.447  0.00  0.00    +0.000 C 
ENDBRANCH  24  26
ENDBRANCH  19  22
ENDBRANCH  18  19
ENDBRANCH   2  18
TORSDOF 7
ENDMDL
MODEL 7
REMARK VINA RESULT:     -11.4      6.294     10.511
REMARK  Name = 60870
REMARK  7 active torsions:
REMARK  status: ('A' for Active; 'I' for Inactive)
REMARK    1  A    between atoms: C_2  and  C_4
REMARK    2  A    between atoms: C_2  and  C_18
REMARK    3  A    between atoms: C_3  and  C_9
REMARK    4  A    between atoms: C_9  and  C_14
REMARK    5  A    between atoms: C_18  and  C_19
REMARK    6  A    between atoms: C_19  and  C_22
REMARK    7  A    between atoms: C_24  and  C_26
REMARK                            x       y       z     vdW  Elec       q    Type
REMARK                         _______ _______ _______ _____ _____    ______ ____
ROOT
ATOM      1  O   UNL     1      32.072 -23.866 -15.027  0.00  0.00    -0.291 OA
ATOM      2  C   UNL     1      33.083 -23.457 -15.635  0.00  0.00    +0.173 C 
ENDROOT
BRANCH   2   4
ATOM      3  C   UNL     1      36.960 -24.155 -14.099  0.00  0.00    -0.021 C 
ATOM      4  C   UNL     1      34.416 -23.698 -15.105  0.00  0.00    +0.035 C 
ATOM      5  C   UNL     1      36.420 -22.880 -14.032  0.00  0.00    -0.004 C 
ATOM      6  C   UNL     1      36.250 -25.206 -14.661  0.00  0.00    -0.004 C 
ATOM      7  C   UNL     1      35.140 -22.650 -14.538  0.00  0.00    +0.003 C 
ATOM      8  C   UNL     1      34.970 -24.976 -15.167  0.00  0.00    +0.003 C 
BRANCH   3   9
ATOM      9  C   UNL     1      38.342 -24.404 -13.551  0.00  0.00    +0.047 C 
BRANCH   9  14
ATOM     10  S   UNL     1      37.051 -25.964 -11.684  0.00  0.00    -0.048 S 
ATOM     11  O   UNL     1      38.563 -22.435 -11.298  0.00  0.00    -0.274 OA
ATOM     12  O   UNL     1      35.234 -25.314  -9.900  0.00  0.00    -0.263 OA
ATOM     13  N   UNL     1      36.839 -23.730 -10.464  0.00  0.00    -0.246 N 
ATOM     14  C   UNL     1      38.316 -24.713 -12.065  0.00  0.00    +0.137 C 
ATOM     15  C   UNL     1      37.945 -23.492 -11.253  0.00  0.00    +0.239 C 
ATOM     16  C   UNL     1      36.217 -24.950 -10.527  0.00  0.00    +0.279 C 
ATOM     17  H   UNL     1      36.498 -23.030  -9.862  0.00  0.00    +0.158 HD
ENDBRANCH   9  14
ENDBRANCH   3   9
ENDBRANCH   2   4
BRANCH   2  18
ATOM     18  C   UNL     1      32.907 -22.693 -16.960  0.00  0.00    +0.076 C 
BRANCH  18  19
ATOM     19  C   UNL     1      33.815 -23.201 -18.083  0.00  0.00    +0.066 C 
BRANCH  19  22
ATOM     20  O   UNL     1      36.117 -20.639 -19.296  0.00  0.00    -0.449 OA
ATOM     21  N   UNL     1      34.034 -21.391 -19.755  0.00  0.00    -0.373 NA
ATOM     22  C   UNL     1      34.589 -22.093 -18.735  0.00  0.00    +0.130 C 
ATOM     23  C   UNL     1      35.837 -21.662 -18.440  0.00  0.00    +0.216 C 
ATOM     24  C   UNL     1      34.989 -20.537 -20.049  0.00  0.00    +0.277 C 
ATOM     25  C   UNL     1      36.880 -22.028 -17.475  0.00  0.00    +0.055 C 
BRANCH  24  26
ATOM     26  C   UNL     1      35.015 -19.511 -21.055  0.00  0.00    +0.066 C 
ATOM     27  C   UNL     1      35.602 -18.273 -20.782  0.00  0.00    +0.006 C 
ATOM     28  C   UNL     1      34.450 -19.745 -22.312  0.00  0.00    +0.006 C 
ATOM     29  C   UNL     1      35.626 -17.276 -21.758  0.00  0.00    +0.000 C 
ATOM     30  C   UNL     1      34.474 -18.749 -23.288  0.00  0.00    +0.000 C 
ATOM     31  C   UNL     1      35.062 -17.514 -23.011  0.00  0.00    +0.000 C 
ENDBRANCH  24  26
ENDBRANCH  19  22
ENDBRANCH  18  19
ENDBRANCH   2  18
TORSDOF 7
ENDMDL
MODEL 8
REMARK VINA RESULT:     -11.4      5.837     10.077
REMARK  Name = 60870
REMARK  7 active torsions:
REMARK  status: ('A' for Active; 'I' for Inactive)
REMARK    1  A    between atoms: C_2  and  C_4
REMARK    2  A    between atoms: C_2  and  C_18
REMARK    3  A    between atoms: C_3  and  C_9
REMARK    4  A    between atoms: C_9  and  C_14
REMARK    5  A    between atoms: C_18  and  C_19
REMARK    6  A    between atoms: C_19  and  C_22
REMARK    7  A    between atoms: C_24  and  C_26
REMARK                            x       y       z     vdW  Elec       q    Type
REMARK                         _______ _______ _______ _____ _____    ______ ____
ROOT
ATOM      1  O   UNL     1      30.352 -22.816 -16.797  0.00  0.00    -0.291 OA
ATOM      2  C   UNL     1      31.593 -22.684 -16.815  0.00  0.00    +0.173 C 
ENDROOT
BRANCH   2   4
ATOM      3  C   UNL     1      33.993 -24.376 -13.773  0.00  0.00    -0.021 C 
ATOM      4  C   UNL     1      32.419 -23.267 -15.768  0.00  0.00    +0.035 C 
ATOM      5  C   UNL     1      32.692 -23.994 -13.481  0.00  0.00    -0.004 C 
ATOM      6  C   UNL     1      34.520 -24.213 -15.045  0.00  0.00    -0.004 C 
ATOM      7  C   UNL     1      31.900 -23.437 -14.485  0.00  0.00    +0.003 C 
ATOM      8  C   UNL     1      33.728 -23.655 -16.049  0.00  0.00    +0.003 C 
BRANCH   3   9
ATOM      9  C   UNL     1      34.849 -24.979 -12.688  0.00  0.00    +0.047 C 
BRANCH   9  14
ATOM     10  S   UNL     1      36.863 -23.111 -12.495  0.00  0.00    -0.048 S 
ATOM     11  O   UNL     1      35.187 -25.197  -9.714  0.00  0.00    -0.274 OA
ATOM     12  O   UNL     1      39.093 -23.164 -11.105  0.00  0.00    -0.263 OA
ATOM     13  N   UNL     1      37.225 -24.235 -10.230  0.00  0.00    -0.246 N 
ATOM     14  C   UNL     1      35.412 -23.922 -11.755  0.00  0.00    +0.137 C 
ATOM     15  C   UNL     1      35.898 -24.531 -10.459  0.00  0.00    +0.239 C 
ATOM     16  C   UNL     1      37.921 -23.504 -11.157  0.00  0.00    +0.279 C 
ATOM     17  H   UNL     1      37.669 -24.547  -9.409  0.00  0.00    +0.158 HD
ENDBRANCH   9  14
ENDBRANCH   3   9
ENDBRANCH   2   4
BRANCH   2  18
ATOM     18  C   UNL     1      32.250 -21.895 -17.963  0.00  0.00    +0.076 C 
BRANCH  18  19
ATOM     19  C   UNL     1      33.588 -22.483 -18.421  0.00  0.00    +0.066 C 
BRANCH  19  22
ATOM     20  O   UNL     1      36.032 -20.248 -19.960  0.00  0.00    -0.449 OA
ATOM     21  N   UNL     1      33.835 -20.747 -20.165  0.00  0.00    -0.373 NA
ATOM     22  C   UNL     1      34.412 -21.492 -19.189  0.00  0.00    +0.130 C 
ATOM     23  C   UNL     1      35.728 -21.212 -19.046  0.00  0.00    +0.216 C 
ATOM     24  C   UNL     1      34.847 -20.023 -20.590  0.00  0.00    +0.277 C 
ATOM     25  C   UNL     1      36.820 -21.684 -18.187  0.00  0.00    +0.055 C 
BRANCH  24  26
ATOM     26  C   UNL     1      34.884 -19.028 -21.625  0.00  0.00    +0.066 C 
ATOM     27  C   UNL     1      35.371 -17.747 -21.354  0.00  0.00    +0.006 C 
ATOM     28  C   UNL     1      34.430 -19.336 -22.912  0.00  0.00    +0.006 C 
ATOM     29  C   UNL     1      35.406 -16.781 -22.360  0.00  0.00    +0.000 C 
ATOM     30  C   UNL     1      34.464 -18.370 -23.918  0.00  0.00    +0.000 C 
ATOM     31  C   UNL     1      34.952 -17.092 -23.641  0.00  0.00    +0.000 C 
ENDBRANCH  24  26
ENDBRANCH  19  22
ENDBRANCH  18  19
ENDBRANCH   2  18
TORSDOF 7
ENDMDL
MODEL 9
REMARK VINA RESULT:     -11.3      3.224     11.180
REMARK  Name = 60870
REMARK  7 active torsions:
REMARK  status: ('A' for Active; 'I' for Inactive)
REMARK    1  A    between atoms: C_2  and  C_4
REMARK    2  A    between atoms: C_2  and  C_18
REMARK    3  A    between atoms: C_3  and  C_9
REMARK    4  A    between atoms: C_9  and  C_14
REMARK    5  A    between atoms: C_18  and  C_19
REMARK    6  A    between atoms: C_19  and  C_22
REMARK    7  A    between atoms: C_24  and  C_26
REMARK                            x       y       z     vdW  Elec       q    Type
REMARK                         _______ _______ _______ _____ _____    ______ ____
ROOT
ATOM      1  O   UNL     1      33.834 -16.387 -25.144  0.00  0.00    -0.291 OA
ATOM      2  C   UNL     1      34.217 -15.902 -24.060  0.00  0.00    +0.173 C 
ENDROOT
BRANCH   2   4
ATOM      3  C   UNL     1      33.116 -11.977 -22.937  0.00  0.00    -0.021 C 
ATOM      4  C   UNL     1      33.837 -14.552 -23.673  0.00  0.00    +0.035 C 
ATOM      5  C   UNL     1      33.117 -12.327 -24.278  0.00  0.00    -0.004 C 
ATOM      6  C   UNL     1      33.469 -12.893 -21.956  0.00  0.00    -0.004 C 
ATOM      7  C   UNL     1      33.479 -13.622 -24.649  0.00  0.00    +0.003 C 
ATOM      8  C   UNL     1      33.832 -14.188 -22.327  0.00  0.00    +0.003 C 
BRANCH   3   9
ATOM      9  C   UNL     1      32.724 -10.578 -22.536  0.00  0.00    +0.047 C 
BRANCH   9  14
ATOM     10  S   UNL     1      34.657  -9.048 -23.764  0.00  0.00    -0.048 S 
ATOM     11  O   UNL     1      30.895  -8.324 -23.295  0.00  0.00    -0.274 OA
ATOM     12  O   UNL     1      35.108  -6.462 -23.627  0.00  0.00    -0.263 OA
ATOM     13  N   UNL     1      32.914  -7.207 -23.452  0.00  0.00    -0.246 N 
ATOM     14  C   UNL     1      32.921  -9.587 -23.669  0.00  0.00    +0.137 C 
ATOM     15  C   UNL     1      32.111  -8.329 -23.449  0.00  0.00    +0.239 C 
ATOM     16  C   UNL     1      34.268  -7.348 -23.605  0.00  0.00    +0.279 C 
ATOM     17  H   UNL     1      32.517  -6.313 -23.345  0.00  0.00    +0.158 HD
ENDBRANCH   9  14
ENDBRANCH   3   9
ENDBRANCH   2   4
BRANCH   2  18
ATOM     18  C   UNL     1      35.099 -16.751 -23.125  0.00  0.00    +0.076 C 
BRANCH  18  19
ATOM     19  C   UNL     1      34.876 -18.258 -23.277  0.00  0.00    +0.066 C 
BRANCH  19  22
ATOM     20  O   UNL     1      36.137 -19.856 -20.246  0.00  0.00    -0.449 OA
ATOM     21  N   UNL     1      34.212 -19.763 -21.430  0.00  0.00    -0.373 NA
ATOM     22  C   UNL     1      35.177 -19.008 -22.014  0.00  0.00    +0.130 C 
ATOM     23  C   UNL     1      36.341 -19.047 -21.323  0.00  0.00    +0.216 C 
ATOM     24  C   UNL     1      34.841 -20.245 -20.381  0.00  0.00    +0.277 C 
ATOM     25  C   UNL     1      37.674 -18.453 -21.469  0.00  0.00    +0.055 C 
BRANCH  24  26
ATOM     26  C   UNL     1      34.355 -21.124 -19.353  0.00  0.00    +0.066 C 
ATOM     27  C   UNL     1      32.983 -21.239 -19.115  0.00  0.00    +0.006 C 
ATOM     28  C   UNL     1      35.254 -21.868 -18.583  0.00  0.00    +0.006 C 
ATOM     29  C   UNL     1      32.513 -22.091 -18.115  0.00  0.00    +0.000 C 
ATOM     30  C   UNL     1      34.784 -22.721 -17.584  0.00  0.00    +0.000 C 
ATOM     31  C   UNL     1      33.413 -22.832 -17.350  0.00  0.00    +0.000 C 
ENDBRANCH  24  26
ENDBRANCH  19  22
ENDBRANCH  18  19
ENDBRANCH   2  18
TORSDOF 7
ENDMDL
