MODEL 1
REMARK VINA RESULT:     -11.7      0.000      0.000
REMARK  Name = 24779724
REMARK  3 active torsions:
REMARK  status: ('A' for Active; 'I' for Inactive)
REMARK    1  A    between atoms: C_5  and  C_12
REMARK    2  A    between atoms: C_7  and  S_16
REMARK    3  A    between atoms: S_16  and  C_19
REMARK                            x       y       z     vdW  Elec       q    Type
REMARK                         _______ _______ _______ _____ _____    ______ ____
ROOT
ATOM      1  N   UNL     1      34.561 -21.695 -18.536  0.00  0.00    -0.186 N 
ATOM      2  N   UNL     1      35.600 -22.039 -17.735  0.00  0.00    -0.162 NA
ATOM      3  N   UNL     1      32.538 -21.520 -19.374  0.00  0.00    -0.126 NA
ATOM      4  N   UNL     1      33.405 -20.796 -20.167  0.00  0.00    -0.120 NA
ATOM      5  C   UNL     1      35.261 -22.794 -16.729  0.00  0.00    +0.104 C 
ATOM      6  C   UNL     1      33.241 -22.056 -18.399  0.00  0.00    +0.187 A 
ATOM      7  C   UNL     1      34.609 -20.912 -19.653  0.00  0.00    +0.217 A 
ATOM      8  C   UNL     1      33.867 -23.279 -16.464  0.00  0.00    +0.024 C 
ATOM      9  C   UNL     1      32.907 -22.888 -17.312  0.00  0.00    +0.042 C 
ENDROOT
BRANCH   5  12
ATOM     10  N   UNL     1      37.373 -24.268 -14.170  0.00  0.00    -0.208 N 
ATOM     11  N   UNL     1      38.296 -23.423 -14.660  0.00  0.00    -0.176 NA
ATOM     12  C   UNL     1      36.310 -23.234 -15.774  0.00  0.00    +0.056 C 
ATOM     13  C   UNL     1      36.167 -24.194 -14.802  0.00  0.00    +0.087 C 
ATOM     14  C   UNL     1      37.641 -22.794 -15.640  0.00  0.00    +0.121 C 
ATOM     15  C   UNL     1      37.712 -25.141 -13.071  0.00  0.00    +0.140 C 
ENDBRANCH   5  12
BRANCH   7  16
ATOM     16  S   UNL     1      36.112 -20.177 -20.279  0.00  0.00    -0.051 S 
BRANCH  16  19
ATOM     17  N   UNL     1      33.999 -16.843 -24.729  0.00  0.00    -0.248 NA
ATOM     18  C   UNL     1      34.940 -16.986 -22.516  0.00  0.00    -0.003 C 
ATOM     19  C   UNL     1      35.482 -19.170 -21.605  0.00  0.00    +0.011 C 
ATOM     20  C   UNL     1      34.481 -17.579 -23.711  0.00  0.00    +0.060 C 
ATOM     21  C   UNL     1      35.437 -17.785 -21.472  0.00  0.00    +0.060 C 
ATOM     22  C   UNL     1      35.031 -19.760 -22.779  0.00  0.00    -0.017 C 
ATOM     23  C   UNL     1      34.537 -18.966 -23.817  0.00  0.00    +0.072 C 
ATOM     24  C   UNL     1      34.883 -15.590 -22.409  0.00  0.00    -0.001 C 
ATOM     25  C   UNL     1      34.387 -14.829 -23.457  0.00  0.00    +0.020 C 
ATOM     26  C   UNL     1      33.961 -15.499 -24.586  0.00  0.00    +0.098 C 
ENDBRANCH  16  19
ENDBRANCH   7  16
TORSDOF 3
ENDMDL
MODEL 2
REMARK VINA RESULT:     -11.2      1.215      1.840
REMARK  Name = 24779724
REMARK  3 active torsions:
REMARK  status: ('A' for Active; 'I' for Inactive)
REMARK    1  A    between atoms: C_5  and  C_12
REMARK    2  A    between atoms: C_7  and  S_16
REMARK    3  A    between atoms: S_16  and  C_19
REMARK                            x       y       z     vdW  Elec       q    Type
REMARK                         _______ _______ _______ _____ _____    ______ ____
ROOT
ATOM      1  N   UNL     1      34.342 -22.282 -17.829  0.00  0.00    -0.186 N 
ATOM      2  N   UNL     1      35.283 -22.750 -16.972  0.00  0.00    -0.162 NA
ATOM      3  N   UNL     1      32.405 -21.807 -18.748  0.00  0.00    -0.126 NA
ATOM      4  N   UNL     1      33.407 -21.303 -19.553  0.00  0.00    -0.120 NA
ATOM      5  C   UNL     1      34.789 -23.364 -15.933  0.00  0.00    +0.104 C 
ATOM      6  C   UNL     1      32.976 -22.393 -17.717  0.00  0.00    +0.187 A 
ATOM      7  C   UNL     1      34.557 -21.597 -18.990  0.00  0.00    +0.217 A 
ATOM      8  C   UNL     1      33.325 -23.574 -15.689  0.00  0.00    +0.024 C 
ATOM      9  C   UNL     1      32.472 -23.076 -16.593  0.00  0.00    +0.042 C 
ENDROOT
BRANCH   5  12
ATOM     10  N   UNL     1      36.827 -25.290 -13.626  0.00  0.00    -0.208 N 
ATOM     11  N   UNL     1      37.296 -24.081 -13.270  0.00  0.00    -0.176 NA
ATOM     12  C   UNL     1      35.719 -23.918 -14.916  0.00  0.00    +0.056 C 
ATOM     13  C   UNL     1      35.880 -25.246 -14.608  0.00  0.00    +0.087 C 
ATOM     14  C   UNL     1      36.616 -23.247 -14.061  0.00  0.00    +0.121 C 
ATOM     15  C   UNL     1      37.334 -26.475 -12.977  0.00  0.00    +0.140 C 
ENDBRANCH   5  12
BRANCH   7  16
ATOM     16  S   UNL     1      36.182 -21.185 -19.606  0.00  0.00    -0.051 S 
BRANCH  16  19
ATOM     17  N   UNL     1      34.971 -16.545 -23.125  0.00  0.00    -0.248 NA
ATOM     18  C   UNL     1      34.837 -18.913 -22.702  0.00  0.00    -0.003 C 
ATOM     19  C   UNL     1      35.814 -19.803 -20.666  0.00  0.00    +0.011 C 
ATOM     20  C   UNL     1      35.234 -17.608 -22.343  0.00  0.00    +0.060 C 
ATOM     21  C   UNL     1      35.129 -20.000 -21.861  0.00  0.00    +0.060 C 
ATOM     22  C   UNL     1      36.209 -18.520 -20.307  0.00  0.00    -0.017 C 
ATOM     23  C   UNL     1      35.919 -17.439 -21.142  0.00  0.00    +0.072 C 
ATOM     24  C   UNL     1      34.148 -19.083 -23.910  0.00  0.00    -0.001 C 
ATOM     25  C   UNL     1      33.875 -17.989 -24.719  0.00  0.00    +0.020 C 
ATOM     26  C   UNL     1      34.304 -16.752 -24.283  0.00  0.00    +0.098 C 
ENDBRANCH  16  19
ENDBRANCH   7  16
TORSDOF 3
ENDMDL
MODEL 3
REMARK VINA RESULT:     -10.7      2.278      9.269
REMARK  Name = 24779724
REMARK  3 active torsions:
REMARK  status: ('A' for Active; 'I' for Inactive)
REMARK    1  A    between atoms: C_5  and  C_12
REMARK    2  A    between atoms: C_7  and  S_16
REMARK    3  A    between atoms: S_16  and  C_19
REMARK                            x       y       z     vdW  Elec       q    Type
REMARK                         _______ _______ _______ _____ _____    ______ ____
ROOT
ATOM      1  N   UNL     1      35.403 -20.475 -20.027  0.00  0.00    -0.186 N 
ATOM      2  N   UNL     1      34.731 -19.901 -21.055  0.00  0.00    -0.162 NA
ATOM      3  N   UNL     1      36.985 -20.984 -18.590  0.00  0.00    -0.126 NA
ATOM      4  N   UNL     1      35.865 -21.734 -18.293  0.00  0.00    -0.120 NA
ATOM      5  C   UNL     1      35.430 -19.020 -21.714  0.00  0.00    +0.104 C 
ATOM      6  C   UNL     1      36.698 -20.231 -19.631  0.00  0.00    +0.187 A 
ATOM      7  C   UNL     1      34.931 -21.419 -19.161  0.00  0.00    +0.217 A 
ATOM      8  C   UNL     1      36.855 -18.667 -21.408  0.00  0.00    +0.024 C 
ATOM      9  C   UNL     1      37.435 -19.287 -20.373  0.00  0.00    +0.042 C 
ENDROOT
BRANCH   5  12
ATOM     10  N   UNL     1      34.138 -16.767 -24.252  0.00  0.00    -0.208 N 
ATOM     11  N   UNL     1      33.644 -17.897 -24.785  0.00  0.00    -0.176 NA
ATOM     12  C   UNL     1      34.802 -18.317 -22.862  0.00  0.00    +0.056 C 
ATOM     13  C   UNL     1      34.840 -16.964 -23.098  0.00  0.00    +0.087 C 
ATOM     14  C   UNL     1      34.053 -18.840 -23.933  0.00  0.00    +0.121 C 
ATOM     15  C   UNL     1      33.901 -15.502 -24.904  0.00  0.00    +0.140 C 
ENDBRANCH   5  12
BRANCH   7  16
ATOM     16  S   UNL     1      33.278 -22.090 -19.241  0.00  0.00    -0.051 S 
BRANCH  16  19
ATOM     17  N   UNL     1      32.593 -24.084 -13.679  0.00  0.00    -0.248 NA
ATOM     18  C   UNL     1      31.633 -23.104 -15.660  0.00  0.00    -0.003 C 
ATOM     19  C   UNL     1      33.062 -22.686 -17.577  0.00  0.00    +0.011 C 
ATOM     20  C   UNL     1      32.726 -23.629 -14.938  0.00  0.00    +0.060 C 
ATOM     21  C   UNL     1      31.809 -22.637 -16.973  0.00  0.00    +0.060 C 
ATOM     22  C   UNL     1      34.142 -23.200 -16.872  0.00  0.00    -0.017 C 
ATOM     23  C   UNL     1      33.969 -23.665 -15.566  0.00  0.00    +0.072 C 
ATOM     24  C   UNL     1      30.383 -23.068 -15.027  0.00  0.00    -0.001 C 
ATOM     25  C   UNL     1      30.243 -23.537 -13.729  0.00  0.00    +0.020 C 
ATOM     26  C   UNL     1      31.370 -24.031 -13.105  0.00  0.00    +0.098 C 
ENDBRANCH  16  19
ENDBRANCH   7  16
TORSDOF 3
ENDMDL
MODEL 4
REMARK VINA RESULT:     -10.6      2.937      4.159
REMARK  Name = 24779724
REMARK  3 active torsions:
REMARK  status: ('A' for Active; 'I' for Inactive)
REMARK    1  A    between atoms: C_5  and  C_12
REMARK    2  A    between atoms: C_7  and  S_16
REMARK    3  A    between atoms: S_16  and  C_19
REMARK                            x       y       z     vdW  Elec       q    Type
REMARK                         _______ _______ _______ _____ _____    ______ ____
ROOT
ATOM      1  N   UNL     1      32.854 -23.495 -15.550  0.00  0.00    -0.186 N 
ATOM      2  N   UNL     1      33.931 -24.016 -14.911  0.00  0.00    -0.162 NA
ATOM      3  N   UNL     1      30.895 -22.580 -15.937  0.00  0.00    -0.126 NA
ATOM      4  N   UNL     1      31.520 -22.804 -17.147  0.00  0.00    -0.120 NA
ATOM      5  C   UNL     1      33.820 -24.021 -13.613  0.00  0.00    +0.104 C 
ATOM      6  C   UNL     1      31.703 -22.997 -14.986  0.00  0.00    +0.187 A 
ATOM      7  C   UNL     1      32.688 -23.353 -16.898  0.00  0.00    +0.217 A 
ATOM      8  C   UNL     1      32.619 -23.528 -12.862  0.00  0.00    +0.024 C 
ATOM      9  C   UNL     1      31.604 -23.032 -13.581  0.00  0.00    +0.042 C 
ENDROOT
BRANCH   5  12
ATOM     10  N   UNL     1      36.833 -25.462 -12.188  0.00  0.00    -0.208 N 
ATOM     11  N   UNL     1      36.220 -25.204 -11.019  0.00  0.00    -0.176 NA
ATOM     12  C   UNL     1      34.938 -24.562 -12.798  0.00  0.00    +0.056 C 
ATOM     13  C   UNL     1      36.106 -25.097 -13.283  0.00  0.00    +0.087 C 
ATOM     14  C   UNL     1      35.064 -24.654 -11.398  0.00  0.00    +0.121 C 
ATOM     15  C   UNL     1      38.140 -26.073 -12.192  0.00  0.00    +0.140 C 
ENDBRANCH   5  12
BRANCH   7  16
ATOM     16  S   UNL     1      33.911 -23.852 -18.100  0.00  0.00    -0.051 S 
BRANCH  16  19
ATOM     17  N   UNL     1      34.781 -18.750 -21.032  0.00  0.00    -0.248 NA
ATOM     18  C   UNL     1      35.692 -20.626 -19.825  0.00  0.00    -0.003 C 
ATOM     19  C   UNL     1      34.182 -22.326 -18.977  0.00  0.00    +0.011 C 
ATOM     20  C   UNL     1      34.606 -19.906 -20.366  0.00  0.00    +0.060 C 
ATOM     21  C   UNL     1      35.473 -21.830 -19.135  0.00  0.00    +0.060 C 
ATOM     22  C   UNL     1      33.108 -21.622 -19.506  0.00  0.00    -0.017 C 
ATOM     23  C   UNL     1      33.325 -20.425 -20.192  0.00  0.00    +0.072 C 
ATOM     24  C   UNL     1      36.981 -20.103 -20.000  0.00  0.00    -0.001 C 
ATOM     25  C   UNL     1      37.164 -18.912 -20.686  0.00  0.00    +0.020 C 
ATOM     26  C   UNL     1      36.040 -18.280 -21.178  0.00  0.00    +0.098 C 
ENDBRANCH  16  19
ENDBRANCH   7  16
TORSDOF 3
ENDMDL
MODEL 5
REMARK VINA RESULT:     -10.3      3.641      6.259
REMARK  Name = 24779724
REMARK  3 active torsions:
REMARK  status: ('A' for Active; 'I' for Inactive)
REMARK    1  A    between atoms: C_5  and  C_12
REMARK    2  A    between atoms: C_7  and  S_16
REMARK    3  A    between atoms: S_16  and  C_19
REMARK                            x       y       z     vdW  Elec       q    Type
REMARK                         _______ _______ _______ _____ _____    ______ ____
ROOT
ATOM      1  N   UNL     1      32.720 -23.231 -16.020  0.00  0.00    -0.186 N 
ATOM      2  N   UNL     1      31.422 -23.141 -16.400  0.00  0.00    -0.162 NA
ATOM      3  N   UNL     1      34.533 -23.330 -14.783  0.00  0.00    -0.126 NA
ATOM      4  N   UNL     1      34.902 -23.419 -16.110  0.00  0.00    -0.120 NA
ATOM      5  C   UNL     1      30.588 -23.037 -15.404  0.00  0.00    +0.104 C 
ATOM      6  C   UNL     1      33.222 -23.218 -14.739  0.00  0.00    +0.187 A 
ATOM      7  C   UNL     1      33.808 -23.357 -16.835  0.00  0.00    +0.217 A 
ATOM      8  C   UNL     1      30.992 -22.992 -13.961  0.00  0.00    +0.024 C 
ATOM      9  C   UNL     1      32.299 -23.087 -13.683  0.00  0.00    +0.042 C 
ENDROOT
BRANCH   5  12
ATOM     10  N   UNL     1      27.003 -22.478 -15.543  0.00  0.00    -0.208 N 
ATOM     11  N   UNL     1      27.099 -23.139 -16.709  0.00  0.00    -0.176 NA
ATOM     12  C   UNL     1      29.134 -22.937 -15.690  0.00  0.00    +0.056 C 
ATOM     13  C   UNL     1      28.194 -22.331 -14.893  0.00  0.00    +0.087 C 
ATOM     14  C   UNL     1      28.402 -23.417 -16.794  0.00  0.00    +0.121 C 
ATOM     15  C   UNL     1      25.717 -22.002 -15.092  0.00  0.00    +0.140 C 
ENDBRANCH   5  12
BRANCH   7  16
ATOM     16  S   UNL     1      33.703 -23.424 -18.616  0.00  0.00    -0.051 S 
BRANCH  16  19
ATOM     17  N   UNL     1      37.390 -19.012 -20.143  0.00  0.00    -0.248 NA
ATOM     18  C   UNL     1      35.316 -20.189 -20.486  0.00  0.00    -0.003 C 
ATOM     19  C   UNL     1      34.799 -22.099 -19.081  0.00  0.00    +0.011 C 
ATOM     20  C   UNL     1      36.541 -20.003 -19.813  0.00  0.00    +0.060 C 
ATOM     21  C   UNL     1      34.454 -21.235 -20.116  0.00  0.00    +0.060 C 
ATOM     22  C   UNL     1      36.005 -21.923 -18.414  0.00  0.00    -0.017 C 
ATOM     23  C   UNL     1      36.862 -20.883 -18.782  0.00  0.00    +0.072 C 
ATOM     24  C   UNL     1      34.993 -19.304 -21.524  0.00  0.00    -0.001 C 
ATOM     25  C   UNL     1      35.866 -18.281 -21.866  0.00  0.00    +0.020 C 
ATOM     26  C   UNL     1      37.041 -18.180 -21.150  0.00  0.00    +0.098 C 
ENDBRANCH  16  19
ENDBRANCH   7  16
TORSDOF 3
ENDMDL
MODEL 6
REMARK VINA RESULT:     -10.0      5.678     12.011
REMARK  Name = 24779724
REMARK  3 active torsions:
REMARK  status: ('A' for Active; 'I' for Inactive)
REMARK    1  A    between atoms: C_5  and  C_12
REMARK    2  A    between atoms: C_7  and  S_16
REMARK    3  A    between atoms: S_16  and  C_19
REMARK                            x       y       z     vdW  Elec       q    Type
REMARK                         _______ _______ _______ _____ _____    ______ ____
ROOT
ATOM      1  N   UNL     1      32.569 -11.710 -22.108  0.00  0.00    -0.186 N 
ATOM      2  N   UNL     1      32.726 -10.592 -22.858  0.00  0.00    -0.162 NA
ATOM      3  N   UNL     1      31.998 -13.072 -20.481  0.00  0.00    -0.126 NA
ATOM      4  N   UNL     1      32.660 -13.799 -21.450  0.00  0.00    -0.120 NA
ATOM      5  C   UNL     1      32.209  -9.522 -22.322  0.00  0.00    +0.104 C 
ATOM      6  C   UNL     1      31.949 -11.820 -20.885  0.00  0.00    +0.187 A 
ATOM      7  C   UNL     1      32.995 -12.971 -22.413  0.00  0.00    +0.217 A 
ATOM      8  C   UNL     1      31.521  -9.489 -20.990  0.00  0.00    +0.024 C 
ATOM      9  C   UNL     1      31.415 -10.644 -20.322  0.00  0.00    +0.042 C 
ENDROOT
BRANCH   5  12
ATOM     10  N   UNL     1      33.087  -6.408 -23.970  0.00  0.00    -0.208 N 
ATOM     11  N   UNL     1      31.769  -6.351 -24.228  0.00  0.00    -0.176 NA
ATOM     12  C   UNL     1      32.311  -8.232 -23.050  0.00  0.00    +0.056 C 
ATOM     13  C   UNL     1      33.462  -7.515 -23.266  0.00  0.00    +0.087 C 
ATOM     14  C   UNL     1      31.300  -7.467 -23.665  0.00  0.00    +0.121 C 
ATOM     15  C   UNL     1      33.954  -5.351 -24.432  0.00  0.00    +0.140 C 
ENDBRANCH   5  12
BRANCH   7  16
ATOM     16  S   UNL     1      33.872 -13.379 -23.914  0.00  0.00    -0.051 S 
BRANCH  16  19
ATOM     17  N   UNL     1      35.014 -19.159 -23.095  0.00  0.00    -0.248 NA
ATOM     18  C   UNL     1      35.072 -16.899 -22.262  0.00  0.00    -0.003 C 
ATOM     19  C   UNL     1      34.217 -15.107 -23.659  0.00  0.00    +0.011 C 
ATOM     20  C   UNL     1      34.763 -17.847 -23.260  0.00  0.00    +0.060 C 
ATOM     21  C   UNL     1      34.797 -15.537 -22.468  0.00  0.00    +0.060 C 
ATOM     22  C   UNL     1      33.912 -16.035 -24.646  0.00  0.00    -0.017 C 
ATOM     23  C   UNL     1      34.185 -17.389 -24.441  0.00  0.00    +0.072 C 
ATOM     24  C   UNL     1      35.654 -17.359 -21.074  0.00  0.00    -0.001 C 
ATOM     25  C   UNL     1      35.913 -18.711 -20.900  0.00  0.00    +0.020 C 
ATOM     26  C   UNL     1      35.577 -19.562 -21.934  0.00  0.00    +0.098 C 
ENDBRANCH  16  19
ENDBRANCH   7  16
TORSDOF 3
ENDMDL
MODEL 7
REMARK VINA RESULT:     -10.0      1.928      9.465
REMARK  Name = 24779724
REMARK  3 active torsions:
REMARK  status: ('A' for Active; 'I' for Inactive)
REMARK    1  A    between atoms: C_5  and  C_12
REMARK    2  A    between atoms: C_7  and  S_16
REMARK    3  A    between atoms: S_16  and  C_19
REMARK                            x       y       z     vdW  Elec       q    Type
REMARK                         _______ _______ _______ _____ _____    ______ ____
ROOT
ATOM      1  N   UNL     1      35.052 -21.778 -18.234  0.00  0.00    -0.186 N 
ATOM      2  N   UNL     1      35.538 -20.845 -19.089  0.00  0.00    -0.162 NA
ATOM      3  N   UNL     1      33.713 -23.214 -17.249  0.00  0.00    -0.126 NA
ATOM      4  N   UNL     1      34.922 -23.215 -16.584  0.00  0.00    -0.120 NA
ATOM      5  C   UNL     1      34.688 -20.480 -20.008  0.00  0.00    +0.104 C 
ATOM      6  C   UNL     1      33.801 -22.348 -18.238  0.00  0.00    +0.187 A 
ATOM      7  C   UNL     1      35.709 -22.351 -17.183  0.00  0.00    +0.217 A 
ATOM      8  C   UNL     1      33.288 -21.003 -20.123  0.00  0.00    +0.024 C 
ATOM      9  C   UNL     1      32.898 -21.922 -19.231  0.00  0.00    +0.042 C 
ENDROOT
BRANCH   5  12
ATOM     10  N   UNL     1      35.164 -18.167 -22.767  0.00  0.00    -0.208 N 
ATOM     11  N   UNL     1      36.286 -17.844 -22.102  0.00  0.00    -0.176 NA
ATOM     12  C   UNL     1      35.104 -19.466 -21.011  0.00  0.00    +0.056 C 
ATOM     13  C   UNL     1      34.421 -19.135 -22.155  0.00  0.00    +0.087 C 
ATOM     14  C   UNL     1      36.244 -18.640 -21.030  0.00  0.00    +0.121 C 
ATOM     15  C   UNL     1      34.849 -17.503 -24.009  0.00  0.00    +0.140 C 
ENDBRANCH   5  12
BRANCH   7  16
ATOM     16  S   UNL     1      37.391 -21.950 -16.736  0.00  0.00    -0.051 S 
BRANCH  16  19
ATOM     17  N   UNL     1      38.217 -25.437 -11.988  0.00  0.00    -0.248 NA
ATOM     18  C   UNL     1      37.027 -23.630 -13.047  0.00  0.00    -0.003 C 
ATOM     19  C   UNL     1      37.630 -22.989 -15.309  0.00  0.00    +0.011 C 
ATOM     20  C   UNL     1      38.014 -24.638 -13.052  0.00  0.00    +0.060 C 
ATOM     21  C   UNL     1      36.842 -22.813 -14.175  0.00  0.00    +0.060 C 
ATOM     22  C   UNL     1      38.603 -23.980 -15.320  0.00  0.00    -0.017 C 
ATOM     23  C   UNL     1      38.788 -24.792 -14.199  0.00  0.00    +0.072 C 
ATOM     24  C   UNL     1      36.249 -23.475 -11.893  0.00  0.00    -0.001 C 
ATOM     25  C   UNL     1      36.456 -24.297 -10.795  0.00  0.00    +0.020 C 
ATOM     26  C   UNL     1      37.444 -25.255 -10.893  0.00  0.00    +0.098 C 
ENDBRANCH  16  19
ENDBRANCH   7  16
TORSDOF 3
ENDMDL
MODEL 8
REMARK VINA RESULT:      -9.9      5.276      9.928
REMARK  Name = 24779724
REMARK  3 active torsions:
REMARK  status: ('A' for Active; 'I' for Inactive)
REMARK    1  A    between atoms: C_5  and  C_12
REMARK    2  A    between atoms: C_7  and  S_16
REMARK    3  A    between atoms: S_16  and  C_19
REMARK                            x       y       z     vdW  Elec       q    Type
REMARK                         _______ _______ _______ _____ _____    ______ ____
ROOT
ATOM      1  N   UNL     1      34.308 -23.294 -15.848  0.00  0.00    -0.186 N 
ATOM      2  N   UNL     1      33.066 -23.573 -15.380  0.00  0.00    -0.162 NA
ATOM      3  N   UNL     1      35.950 -22.583 -17.122  0.00  0.00    -0.126 NA
ATOM      4  N   UNL     1      36.491 -23.149 -15.985  0.00  0.00    -0.120 NA
ATOM      5  C   UNL     1      32.107 -23.187 -16.173  0.00  0.00    +0.104 C 
ATOM      6  C   UNL     1      34.640 -22.674 -17.029  0.00  0.00    +0.187 A 
ATOM      7  C   UNL     1      35.497 -23.570 -15.236  0.00  0.00    +0.217 A 
ATOM      8  C   UNL     1      32.319 -22.517 -17.498  0.00  0.00    +0.024 C 
ATOM      9  C   UNL     1      33.583 -22.284 -17.875  0.00  0.00    +0.042 C 
ENDROOT
BRANCH   5  12
ATOM     10  N   UNL     1      28.549 -23.203 -15.445  0.00  0.00    -0.208 N 
ATOM     11  N   UNL     1      28.819 -24.408 -14.914  0.00  0.00    -0.176 NA
ATOM     12  C   UNL     1      30.698 -23.431 -15.770  0.00  0.00    +0.056 C 
ATOM     13  C   UNL     1      29.641 -22.576 -15.970  0.00  0.00    +0.087 C 
ATOM     14  C   UNL     1      30.132 -24.542 -15.116  0.00  0.00    +0.121 C 
ATOM     15  C   UNL     1      27.199 -22.694 -15.419  0.00  0.00    +0.140 C 
ENDBRANCH   5  12
BRANCH   7  16
ATOM     16  S   UNL     1      35.625 -24.383 -13.651  0.00  0.00    -0.051 S 
BRANCH  16  19
ATOM     17  N   UNL     1      40.993 -26.915 -14.049  0.00  0.00    -0.248 NA
ATOM     18  C   UNL     1      38.719 -26.749 -14.829  0.00  0.00    -0.003 C 
ATOM     19  C   UNL     1      37.229 -25.147 -13.779  0.00  0.00    +0.011 C 
ATOM     20  C   UNL     1      39.772 -26.355 -13.976  0.00  0.00    +0.060 C 
ATOM     21  C   UNL     1      37.456 -26.143 -14.724  0.00  0.00    +0.060 C 
ATOM     22  C   UNL     1      38.260 -24.754 -12.936  0.00  0.00    -0.017 C 
ATOM     23  C   UNL     1      39.516 -25.357 -13.039  0.00  0.00    +0.072 C 
ATOM     24  C   UNL     1      38.976 -27.754 -15.771  0.00  0.00    -0.001 C 
ATOM     25  C   UNL     1      40.234 -28.333 -15.850  0.00  0.00    +0.020 C 
ATOM     26  C   UNL     1      41.200 -27.881 -14.973  0.00  0.00    +0.098 C 
ENDBRANCH  16  19
ENDBRANCH   7  16
TORSDOF 3
ENDMDL
MODEL 9
REMARK VINA RESULT:      -9.8      6.100     12.525
REMARK  Name = 24779724
REMARK  3 active torsions:
REMARK  status: ('A' for Active; 'I' for Inactive)
REMARK    1  A    between atoms: C_5  and  C_12
REMARK    2  A    between atoms: C_7  and  S_16
REMARK    3  A    between atoms: S_16  and  C_19
REMARK                            x       y       z     vdW  Elec       q    Type
REMARK                         _______ _______ _______ _____ _____    ______ ____
ROOT
ATOM      1  N   UNL     1      32.634 -10.929 -22.392  0.00  0.00    -0.186 N 
ATOM      2  N   UNL     1      33.186  -9.898 -23.077  0.00  0.00    -0.162 NA
ATOM      3  N   UNL     1      31.527 -12.083 -20.886  0.00  0.00    -0.126 NA
ATOM      4  N   UNL     1      32.045 -12.961 -21.816  0.00  0.00    -0.120 NA
ATOM      5  C   UNL     1      32.951  -8.730 -22.548  0.00  0.00    +0.104 C 
ATOM      6  C   UNL     1      31.886 -10.867 -21.240  0.00  0.00    +0.187 A 
ATOM      7  C   UNL     1      32.704 -12.256 -22.708  0.00  0.00    +0.217 A 
ATOM      8  C   UNL     1      32.169  -8.511 -21.288  0.00  0.00    +0.024 C 
ATOM      9  C   UNL     1      31.662  -9.593 -20.682  0.00  0.00    +0.042 C 
ENDROOT
BRANCH   5  12
ATOM     10  N   UNL     1      33.672  -5.598 -24.240  0.00  0.00    -0.208 N 
ATOM     11  N   UNL     1      34.950  -5.977 -24.069  0.00  0.00    -0.176 NA
ATOM     12  C   UNL     1      33.498  -7.517 -23.209  0.00  0.00    +0.056 C 
ATOM     13  C   UNL     1      32.763  -6.487 -23.743  0.00  0.00    +0.087 C 
ATOM     14  C   UNL     1      34.838  -7.149 -23.439  0.00  0.00    +0.121 C 
ATOM     15  C   UNL     1      33.376  -4.350 -24.900  0.00  0.00    +0.140 C 
ENDBRANCH   5  12
BRANCH   7  16
ATOM     16  S   UNL     1      33.574 -12.885 -24.135  0.00  0.00    -0.051 S 
BRANCH  16  19
ATOM     17  N   UNL     1      35.251 -18.246 -22.174  0.00  0.00    -0.248 NA
ATOM     18  C   UNL     1      34.221 -16.895 -23.884  0.00  0.00    -0.003 C 
ATOM     19  C   UNL     1      34.073 -14.495 -23.558  0.00  0.00    +0.011 C 
ATOM     20  C   UNL     1      34.864 -17.042 -22.637  0.00  0.00    +0.060 C 
ATOM     21  C   UNL     1      33.831 -15.623 -24.335  0.00  0.00    +0.060 C 
ATOM     22  C   UNL     1      34.705 -14.632 -22.328  0.00  0.00    -0.017 C 
ATOM     23  C   UNL     1      35.093 -15.896 -21.879  0.00  0.00    +0.072 C 
ATOM     24  C   UNL     1      33.991 -18.048 -24.646  0.00  0.00    -0.001 C 
ATOM     25  C   UNL     1      34.388 -19.290 -24.173  0.00  0.00    +0.020 C 
ATOM     26  C   UNL     1      35.009 -19.333 -22.941  0.00  0.00    +0.098 C 
ENDBRANCH  16  19
ENDBRANCH   7  16
TORSDOF 3
ENDMDL
