MODEL 1
REMARK VINA RESULT:     -12.6      0.000      0.000
REMARK  Name = 9808844
REMARK  5 active torsions:
REMARK  status: ('A' for Active; 'I' for Inactive)
REMARK    1  A    between atoms: N_2  and  C_13
REMARK    2  A    between atoms: C_8  and  O_19
REMARK    3  A    between atoms: O_19  and  C_20
REMARK    4  A    between atoms: C_20  and  C_22
REMARK    5  A    between atoms: C_25  and  C_29
REMARK                            x       y       z     vdW  Elec       q    Type
REMARK                         _______ _______ _______ _____ _____    ______ ____
ROOT
ATOM      1  O   UNL     1      35.361 -23.020 -16.727  0.00  0.00    -0.446 OA
ATOM      2  N   UNL     1      35.663 -19.902 -20.224  0.00  0.00    -0.296 N 
ATOM      3  N   UNL     1      33.595 -21.007 -19.761  0.00  0.00    -0.130 NA
ATOM      4  N   UNL     1      32.812 -21.898 -19.037  0.00  0.00    -0.106 NA
ATOM      5  C   UNL     1      35.465 -21.526 -18.418  0.00  0.00    +0.076 A 
ATOM      6  C   UNL     1      34.654 -22.408 -17.717  0.00  0.00    +0.202 A 
ATOM      7  C   UNL     1      34.902 -20.812 -19.470  0.00  0.00    +0.157 A 
ATOM      8  C   UNL     1      33.322 -22.608 -18.011  0.00  0.00    +0.279 A 
ATOM      9  C   UNL     1      36.745 -21.614 -17.811  0.00  0.00    +0.047 C 
ATOM     10  C   UNL     1      36.628 -22.532 -16.792  0.00  0.00    +0.180 C 
ATOM     11  H   UNL     1      36.600 -19.835 -19.932  0.00  0.00    +0.154 HD
ENDROOT
BRANCH   2  13
ATOM     12 CL   UNL     1      34.354 -16.391 -24.808  0.00  0.00    -0.082 Cl
ATOM     13  C   UNL     1      35.351 -19.065 -21.317  0.00  0.00    +0.049 C 
ATOM     14  C   UNL     1      34.789 -19.607 -22.472  0.00  0.00    +0.016 C 
ATOM     15  C   UNL     1      35.605 -17.696 -21.241  0.00  0.00    +0.016 C 
ATOM     16  C   UNL     1      34.480 -18.781 -23.552  0.00  0.00    +0.013 C 
ATOM     17  C   UNL     1      35.296 -16.869 -22.320  0.00  0.00    +0.013 C 
ATOM     18  C   UNL     1      34.734 -17.411 -23.475  0.00  0.00    +0.058 C 
ENDBRANCH   2  13
BRANCH   8  19
ATOM     19  O   UNL     1      32.514 -23.476 -17.325  0.00  0.00    -0.452 OA
BRANCH  19  20
ATOM     20  C   UNL     1      31.669 -22.913 -16.329  0.00  0.00    +0.234 C 
BRANCH  20  22
ATOM     21  N   UNL     1      32.235 -25.036 -12.649  0.00  0.00    -0.239 NA
ATOM     22  C   UNL     1      31.868 -23.656 -15.040  0.00  0.00    +0.024 C 
ATOM     23  C   UNL     1      33.080 -23.571 -14.376  0.00  0.00    +0.023 C 
ATOM     24  C   UNL     1      30.837 -24.425 -14.523  0.00  0.00    +0.020 C 
ATOM     25  C   UNL     1      33.213 -24.275 -13.190  0.00  0.00    +0.134 C 
ATOM     26  C   UNL     1      31.070 -25.092 -13.332  0.00  0.00    +0.099 C 
BRANCH  25  29
ATOM     27  O   UNL     1      34.600 -24.896 -11.404  0.00  0.00    -0.268 OA
ATOM     28  N   UNL     1      35.479 -23.420 -12.962  0.00  0.00    -0.298 N 
ATOM     29  C   UNL     1      34.458 -24.226 -12.444  0.00  0.00    +0.264 C 
ATOM     30  C   UNL     1      36.781 -23.287 -12.349  0.00  0.00    +0.111 C 
ATOM     31  H   UNL     1      35.301 -22.918 -13.789  0.00  0.00    +0.150 HD
ENDBRANCH  25  29
ENDBRANCH  20  22
ENDBRANCH  19  20
ENDBRANCH   8  19
TORSDOF 5
ENDMDL
MODEL 2
REMARK VINA RESULT:     -12.3      2.435      3.969
REMARK  Name = 9808844
REMARK  5 active torsions:
REMARK  status: ('A' for Active; 'I' for Inactive)
REMARK    1  A    between atoms: N_2  and  C_13
REMARK    2  A    between atoms: C_8  and  O_19
REMARK    3  A    between atoms: O_19  and  C_20
REMARK    4  A    between atoms: C_20  and  C_22
REMARK    5  A    between atoms: C_25  and  C_29
REMARK                            x       y       z     vdW  Elec       q    Type
REMARK                         _______ _______ _______ _____ _____    ______ ____
ROOT
ATOM      1  O   UNL     1      35.350 -23.090 -16.557  0.00  0.00    -0.446 OA
ATOM      2  N   UNL     1      35.686 -20.026 -20.098  0.00  0.00    -0.296 N 
ATOM      3  N   UNL     1      33.609 -21.111 -19.627  0.00  0.00    -0.130 NA
ATOM      4  N   UNL     1      32.818 -21.986 -18.893  0.00  0.00    -0.106 NA
ATOM      5  C   UNL     1      35.470 -21.622 -18.269  0.00  0.00    +0.076 A 
ATOM      6  C   UNL     1      34.651 -22.488 -17.558  0.00  0.00    +0.202 A 
ATOM      7  C   UNL     1      34.916 -20.920 -19.334  0.00  0.00    +0.157 A 
ATOM      8  C   UNL     1      33.319 -22.684 -17.855  0.00  0.00    +0.279 A 
ATOM      9  C   UNL     1      36.747 -21.709 -17.656  0.00  0.00    +0.047 C 
ATOM     10  C   UNL     1      36.620 -22.611 -16.623  0.00  0.00    +0.180 C 
ATOM     11  H   UNL     1      36.622 -19.961 -19.803  0.00  0.00    +0.154 HD
ENDROOT
BRANCH   2  13
ATOM     12 CL   UNL     1      34.418 -16.575 -24.739  0.00  0.00    -0.082 Cl
ATOM     13  C   UNL     1      35.383 -19.204 -21.205  0.00  0.00    +0.049 C 
ATOM     14  C   UNL     1      34.774 -19.750 -22.334  0.00  0.00    +0.016 C 
ATOM     15  C   UNL     1      35.693 -17.844 -21.168  0.00  0.00    +0.016 C 
ATOM     16  C   UNL     1      34.476 -18.938 -23.427  0.00  0.00    +0.013 C 
ATOM     17  C   UNL     1      35.394 -17.032 -22.261  0.00  0.00    +0.013 C 
ATOM     18  C   UNL     1      34.786 -17.578 -23.390  0.00  0.00    +0.058 C 
ENDBRANCH   2  13
BRANCH   8  19
ATOM     19  O   UNL     1      32.503 -23.537 -17.159  0.00  0.00    -0.452 OA
BRANCH  19  20
ATOM     20  C   UNL     1      32.190 -23.174 -15.819  0.00  0.00    +0.234 C 
BRANCH  20  22
ATOM     21  N   UNL     1      28.276 -24.630 -14.854  0.00  0.00    -0.239 NA
ATOM     22  C   UNL     1      30.819 -23.683 -15.481  0.00  0.00    +0.024 C 
ATOM     23  C   UNL     1      29.704 -22.930 -15.809  0.00  0.00    +0.023 C 
ATOM     24  C   UNL     1      30.678 -24.905 -14.842  0.00  0.00    +0.020 C 
ATOM     25  C   UNL     1      28.462 -23.444 -15.476  0.00  0.00    +0.134 C 
ATOM     26  C   UNL     1      29.392 -25.331 -14.552  0.00  0.00    +0.099 C 
BRANCH  25  29
ATOM     27  O   UNL     1      26.397 -22.484 -14.917  0.00  0.00    -0.268 OA
ATOM     28  N   UNL     1      27.116 -22.240 -17.107  0.00  0.00    -0.298 N 
ATOM     29  C   UNL     1      27.253 -22.704 -15.793  0.00  0.00    +0.264 C 
ATOM     30  C   UNL     1      25.984 -21.469 -17.570  0.00  0.00    +0.111 C 
ATOM     31  H   UNL     1      27.831 -22.448 -17.751  0.00  0.00    +0.150 HD
ENDBRANCH  25  29
ENDBRANCH  20  22
ENDBRANCH  19  20
ENDBRANCH   8  19
TORSDOF 5
ENDMDL
MODEL 3
REMARK VINA RESULT:     -11.1      4.576     10.124
REMARK  Name = 9808844
REMARK  5 active torsions:
REMARK  status: ('A' for Active; 'I' for Inactive)
REMARK    1  A    between atoms: N_2  and  C_13
REMARK    2  A    between atoms: C_8  and  O_19
REMARK    3  A    between atoms: O_19  and  C_20
REMARK    4  A    between atoms: C_20  and  C_22
REMARK    5  A    between atoms: C_25  and  C_29
REMARK                            x       y       z     vdW  Elec       q    Type
REMARK                         _______ _______ _______ _____ _____    ______ ____
ROOT
ATOM      1  O   UNL     1      33.587 -20.424 -20.557  0.00  0.00    -0.446 OA
ATOM      2  N   UNL     1      34.903 -22.749 -16.697  0.00  0.00    -0.296 N 
ATOM      3  N   UNL     1      36.524 -21.630 -18.050  0.00  0.00    -0.130 NA
ATOM      4  N   UNL     1      36.890 -20.861 -19.148  0.00  0.00    -0.106 NA
ATOM      5  C   UNL     1      34.260 -21.532 -18.708  0.00  0.00    +0.076 A 
ATOM      6  C   UNL     1      34.661 -20.765 -19.793  0.00  0.00    +0.202 A 
ATOM      7  C   UNL     1      35.236 -21.970 -17.818  0.00  0.00    +0.157 A 
ATOM      8  C   UNL     1      35.974 -20.418 -20.031  0.00  0.00    +0.279 A 
ATOM      9  C   UNL     1      32.852 -21.661 -18.826  0.00  0.00    +0.047 C 
ATOM     10  C   UNL     1      32.494 -20.971 -19.962  0.00  0.00    +0.180 C 
ATOM     11  H   UNL     1      33.940 -22.940 -16.621  0.00  0.00    +0.154 HD
ENDROOT
BRANCH   2  13
ATOM     12 CL   UNL     1      38.138 -25.115 -12.339  0.00  0.00    -0.082 Cl
ATOM     13  C   UNL     1      35.674 -23.313 -15.658  0.00  0.00    +0.049 C 
ATOM     14  C   UNL     1      36.813 -22.653 -15.199  0.00  0.00    +0.016 C 
ATOM     15  C   UNL     1      35.296 -24.530 -15.091  0.00  0.00    +0.016 C 
ATOM     16  C   UNL     1      37.575 -23.210 -14.172  0.00  0.00    +0.013 C 
ATOM     17  C   UNL     1      36.058 -25.087 -14.064  0.00  0.00    +0.013 C 
ATOM     18  C   UNL     1      37.197 -24.427 -13.605  0.00  0.00    +0.058 C 
ENDBRANCH   2  13
BRANCH   8  19
ATOM     19  O   UNL     1      36.379 -19.663 -21.100  0.00  0.00    -0.452 OA
BRANCH  19  20
ATOM     20  C   UNL     1      35.987 -18.295 -21.103  0.00  0.00    +0.234 C 
BRANCH  20  22
ATOM     21  N   UNL     1      33.871 -17.459 -24.736  0.00  0.00    -0.239 NA
ATOM     22  C   UNL     1      35.246 -18.001 -22.375  0.00  0.00    +0.024 C 
ATOM     23  C   UNL     1      34.980 -16.689 -22.731  0.00  0.00    +0.023 C 
ATOM     24  C   UNL     1      34.830 -19.046 -23.186  0.00  0.00    +0.020 C 
ATOM     25  C   UNL     1      34.294 -16.472 -23.915  0.00  0.00    +0.134 C 
ATOM     26  C   UNL     1      34.151 -18.724 -24.349  0.00  0.00    +0.099 C 
BRANCH  25  29
ATOM     27  O   UNL     1      33.652 -14.890 -25.523  0.00  0.00    -0.268 OA
ATOM     28  N   UNL     1      34.058 -14.111 -23.377  0.00  0.00    -0.298 N 
ATOM     29  C   UNL     1      33.985 -15.120 -24.345  0.00  0.00    +0.264 C 
ATOM     30  C   UNL     1      33.757 -12.722 -23.644  0.00  0.00    +0.111 C 
ATOM     31  H   UNL     1      34.327 -14.361 -22.464  0.00  0.00    +0.150 HD
ENDBRANCH  25  29
ENDBRANCH  20  22
ENDBRANCH  19  20
ENDBRANCH   8  19
TORSDOF 5
ENDMDL
MODEL 4
REMARK VINA RESULT:     -11.1      2.671      4.854
REMARK  Name = 9808844
REMARK  5 active torsions:
REMARK  status: ('A' for Active; 'I' for Inactive)
REMARK    1  A    between atoms: N_2  and  C_13
REMARK    2  A    between atoms: C_8  and  O_19
REMARK    3  A    between atoms: O_19  and  C_20
REMARK    4  A    between atoms: C_20  and  C_22
REMARK    5  A    between atoms: C_25  and  C_29
REMARK                            x       y       z     vdW  Elec       q    Type
REMARK                         _______ _______ _______ _____ _____    ______ ____
ROOT
ATOM      1  O   UNL     1      31.592 -24.445 -14.465  0.00  0.00    -0.446 OA
ATOM      2  N   UNL     1      32.731 -21.874 -18.225  0.00  0.00    -0.296 N 
ATOM      3  N   UNL     1      34.431 -22.919 -16.911  0.00  0.00    -0.130 NA
ATOM      4  N   UNL     1      34.853 -23.702 -15.843  0.00  0.00    -0.106 NA
ATOM      5  C   UNL     1      32.181 -23.217 -16.267  0.00  0.00    +0.076 A 
ATOM      6  C   UNL     1      32.638 -23.993 -15.211  0.00  0.00    +0.202 A 
ATOM      7  C   UNL     1      33.121 -22.670 -17.134  0.00  0.00    +0.157 A 
ATOM      8  C   UNL     1      33.973 -24.248 -14.981  0.00  0.00    +0.279 A 
ATOM      9  C   UNL     1      30.766 -23.200 -16.149  0.00  0.00    +0.047 C 
ATOM     10  C   UNL     1      30.461 -23.960 -15.043  0.00  0.00    +0.180 C 
ATOM     11  H   UNL     1      31.756 -21.755 -18.297  0.00  0.00    +0.154 HD
ENDROOT
BRANCH   2  13
ATOM     12 CL   UNL     1      35.780 -19.098 -22.473  0.00  0.00    -0.082 Cl
ATOM     13  C   UNL     1      33.457 -21.212 -19.237  0.00  0.00    +0.049 C 
ATOM     14  C   UNL     1      32.781 -20.533 -20.250  0.00  0.00    +0.016 C 
ATOM     15  C   UNL     1      34.852 -21.237 -19.225  0.00  0.00    +0.016 C 
ATOM     16  C   UNL     1      33.499 -19.879 -21.251  0.00  0.00    +0.013 C 
ATOM     17  C   UNL     1      35.570 -20.583 -20.225  0.00  0.00    +0.013 C 
ATOM     18  C   UNL     1      34.893 -19.904 -21.238  0.00  0.00    +0.058 C 
ENDBRANCH   2  13
BRANCH   8  19
ATOM     19  O   UNL     1      34.434 -25.012 -13.942  0.00  0.00    -0.452 OA
BRANCH  19  20
ATOM     20  C   UNL     1      34.648 -24.346 -12.703  0.00  0.00    +0.234 C 
BRANCH  20  22
ATOM     21  N   UNL     1      38.863 -24.060 -11.979  0.00  0.00    -0.239 NA
ATOM     22  C   UNL     1      36.125 -24.246 -12.450  0.00  0.00    +0.024 C 
ATOM     23  C   UNL     1      37.009 -24.958 -13.243  0.00  0.00    +0.023 C 
ATOM     24  C   UNL     1      36.594 -23.443 -11.422  0.00  0.00    +0.020 C 
ATOM     25  C   UNL     1      38.361 -24.831 -12.969  0.00  0.00    +0.134 C 
ATOM     26  C   UNL     1      37.964 -23.385 -11.229  0.00  0.00    +0.099 C 
BRANCH  25  29
ATOM     27  O   UNL     1      40.523 -25.164 -13.815  0.00  0.00    -0.268 OA
ATOM     28  N   UNL     1      38.897 -26.694 -14.441  0.00  0.00    -0.298 N 
ATOM     29  C   UNL     1      39.341 -25.550 -13.765  0.00  0.00    +0.264 C 
ATOM     30  C   UNL     1      39.755 -27.527 -15.252  0.00  0.00    +0.111 C 
ATOM     31  H   UNL     1      37.949 -26.944 -14.358  0.00  0.00    +0.150 HD
ENDBRANCH  25  29
ENDBRANCH  20  22
ENDBRANCH  19  20
ENDBRANCH   8  19
TORSDOF 5
ENDMDL
MODEL 5
REMARK VINA RESULT:     -11.0      6.012     11.553
REMARK  Name = 9808844
REMARK  5 active torsions:
REMARK  status: ('A' for Active; 'I' for Inactive)
REMARK    1  A    between atoms: N_2  and  C_13
REMARK    2  A    between atoms: C_8  and  O_19
REMARK    3  A    between atoms: O_19  and  C_20
REMARK    4  A    between atoms: C_20  and  C_22
REMARK    5  A    between atoms: C_25  and  C_29
REMARK                            x       y       z     vdW  Elec       q    Type
REMARK                         _______ _______ _______ _____ _____    ______ ____
ROOT
ATOM      1  O   UNL     1      34.534 -17.552 -24.169  0.00  0.00    -0.446 OA
ATOM      2  N   UNL     1      35.074 -20.663 -20.696  0.00  0.00    -0.296 N 
ATOM      3  N   UNL     1      35.421 -18.332 -20.299  0.00  0.00    -0.130 NA
ATOM      4  N   UNL     1      35.457 -17.006 -20.714  0.00  0.00    -0.106 NA
ATOM      5  C   UNL     1      34.804 -19.017 -22.472  0.00  0.00    +0.076 A 
ATOM      6  C   UNL     1      34.850 -17.682 -22.851  0.00  0.00    +0.202 A 
ATOM      7  C   UNL     1      35.102 -19.334 -21.151  0.00  0.00    +0.157 A 
ATOM      8  C   UNL     1      35.176 -16.660 -21.985  0.00  0.00    +0.279 A 
ATOM      9  C   UNL     1      34.435 -19.737 -23.638  0.00  0.00    +0.047 C 
ATOM     10  C   UNL     1      34.284 -18.803 -24.638  0.00  0.00    +0.180 C 
ATOM     11  H   UNL     1      34.831 -21.314 -21.393  0.00  0.00    +0.154 HD
ENDROOT
BRANCH   2  13
ATOM     12 CL   UNL     1      36.130 -23.133 -15.419  0.00  0.00    -0.082 Cl
ATOM     13  C   UNL     1      35.326 -21.252 -19.438  0.00  0.00    +0.049 C 
ATOM     14  C   UNL     1      36.600 -21.178 -18.876  0.00  0.00    +0.016 C 
ATOM     15  C   UNL     1      34.300 -21.907 -18.757  0.00  0.00    +0.016 C 
ATOM     16  C   UNL     1      36.849 -21.759 -17.633  0.00  0.00    +0.013 C 
ATOM     17  C   UNL     1      34.549 -22.489 -17.514  0.00  0.00    +0.013 C 
ATOM     18  C   UNL     1      35.823 -22.414 -16.953  0.00  0.00    +0.058 C 
ENDBRANCH   2  13
BRANCH   8  19
ATOM     19  O   UNL     1      35.225 -15.341 -22.351  0.00  0.00    -0.452 OA
BRANCH  19  20
ATOM     20  C   UNL     1      34.084 -14.548 -22.043  0.00  0.00    +0.234 C 
BRANCH  20  22
ATOM     21  N   UNL     1      33.346 -11.844 -25.286  0.00  0.00    -0.239 NA
ATOM     22  C   UNL     1      33.826 -13.600 -23.178  0.00  0.00    +0.024 C 
ATOM     23  C   UNL     1      33.808 -12.235 -22.946  0.00  0.00    +0.023 C 
ATOM     24  C   UNL     1      33.605 -14.098 -24.453  0.00  0.00    +0.020 C 
ATOM     25  C   UNL     1      33.566 -11.404 -24.027  0.00  0.00    +0.134 C 
ATOM     26  C   UNL     1      33.371 -13.184 -25.466  0.00  0.00    +0.099 C 
BRANCH  25  29
ATOM     27  O   UNL     1      32.451  -9.351 -23.813  0.00  0.00    -0.268 OA
ATOM     28  N   UNL     1      34.766  -9.312 -23.704  0.00  0.00    -0.298 N 
ATOM     29  C   UNL     1      33.535  -9.962 -23.851  0.00  0.00    +0.264 C 
ATOM     30  C   UNL     1      34.900  -7.888 -23.497  0.00  0.00    +0.111 C 
ATOM     31  H   UNL     1      35.586  -9.855 -23.742  0.00  0.00    +0.150 HD
ENDBRANCH  25  29
ENDBRANCH  20  22
ENDBRANCH  19  20
ENDBRANCH   8  19
TORSDOF 5
ENDMDL
MODEL 6
REMARK VINA RESULT:     -11.0      7.473     11.181
REMARK  Name = 9808844
REMARK  5 active torsions:
REMARK  status: ('A' for Active; 'I' for Inactive)
REMARK    1  A    between atoms: N_2  and  C_13
REMARK    2  A    between atoms: C_8  and  O_19
REMARK    3  A    between atoms: O_19  and  C_20
REMARK    4  A    between atoms: C_20  and  C_22
REMARK    5  A    between atoms: C_25  and  C_29
REMARK                            x       y       z     vdW  Elec       q    Type
REMARK                         _______ _______ _______ _____ _____    ______ ____
ROOT
ATOM      1  O   UNL     1      32.495 -13.793 -21.289  0.00  0.00    -0.446 OA
ATOM      2  N   UNL     1      32.375  -9.245 -22.451  0.00  0.00    -0.296 N 
ATOM      3  N   UNL     1      33.227 -10.866 -23.986  0.00  0.00    -0.130 NA
ATOM      4  N   UNL     1      33.550 -12.169 -24.345  0.00  0.00    -0.106 NA
ATOM      5  C   UNL     1      32.454 -11.615 -21.886  0.00  0.00    +0.076 A 
ATOM      6  C   UNL     1      32.788 -12.904 -22.278  0.00  0.00    +0.202 A 
ATOM      7  C   UNL     1      32.688 -10.575 -22.780  0.00  0.00    +0.157 A 
ATOM      8  C   UNL     1      33.338 -13.202 -23.506  0.00  0.00    +0.279 A 
ATOM      9  C   UNL     1      31.925 -11.736 -20.574  0.00  0.00    +0.047 C 
ATOM     10  C   UNL     1      31.972 -13.075 -20.260  0.00  0.00    +0.180 C 
ATOM     11  H   UNL     1      31.987  -9.143 -21.551  0.00  0.00    +0.154 HD
ENDROOT
BRANCH   2  13
ATOM     12 CL   UNL     1      32.916  -4.138 -25.396  0.00  0.00    -0.082 Cl
ATOM     13  C   UNL     1      32.503  -8.028 -23.152  0.00  0.00    +0.049 C 
ATOM     14  C   UNL     1      31.391  -7.459 -23.771  0.00  0.00    +0.016 C 
ATOM     15  C   UNL     1      33.744  -7.394 -23.227  0.00  0.00    +0.016 C 
ATOM     16  C   UNL     1      31.518  -6.256 -24.464  0.00  0.00    +0.013 C 
ATOM     17  C   UNL     1      33.871  -6.191 -23.920  0.00  0.00    +0.013 C 
ATOM     18  C   UNL     1      32.758  -5.622 -24.539  0.00  0.00    +0.058 C 
ENDBRANCH   2  13
BRANCH   8  19
ATOM     19  O   UNL     1      33.672 -14.471 -23.902  0.00  0.00    -0.452 OA
BRANCH  19  20
ATOM     20  C   UNL     1      34.924 -14.973 -23.451  0.00  0.00    +0.234 C 
BRANCH  20  22
ATOM     21  N   UNL     1      34.651 -19.231 -23.034  0.00  0.00    -0.239 NA
ATOM     22  C   UNL     1      34.829 -16.464 -23.304  0.00  0.00    +0.024 C 
ATOM     23  C   UNL     1      35.348 -17.080 -22.178  0.00  0.00    +0.023 C 
ATOM     24  C   UNL     1      34.223 -17.216 -24.299  0.00  0.00    +0.020 C 
ATOM     25  C   UNL     1      35.234 -18.458 -22.090  0.00  0.00    +0.134 C 
ATOM     26  C   UNL     1      34.160 -18.588 -24.117  0.00  0.00    +0.099 C 
BRANCH  25  29
ATOM     27  O   UNL     1      36.712 -18.700 -20.285  0.00  0.00    -0.268 OA
ATOM     28  N   UNL     1      35.124 -20.363 -20.580  0.00  0.00    -0.298 N 
ATOM     29  C   UNL     1      35.757 -19.165 -20.934  0.00  0.00    +0.264 C 
ATOM     30  C   UNL     1      35.512 -21.168 -19.444  0.00  0.00    +0.111 C 
ATOM     31  H   UNL     1      34.374 -20.675 -21.136  0.00  0.00    +0.150 HD
ENDBRANCH  25  29
ENDBRANCH  20  22
ENDBRANCH  19  20
ENDBRANCH   8  19
TORSDOF 5
ENDMDL
MODEL 7
REMARK VINA RESULT:     -10.8      2.752      4.284
REMARK  Name = 9808844
REMARK  5 active torsions:
REMARK  status: ('A' for Active; 'I' for Inactive)
REMARK    1  A    between atoms: N_2  and  C_13
REMARK    2  A    between atoms: C_8  and  O_19
REMARK    3  A    between atoms: O_19  and  C_20
REMARK    4  A    between atoms: C_20  and  C_22
REMARK    5  A    between atoms: C_25  and  C_29
REMARK                            x       y       z     vdW  Elec       q    Type
REMARK                         _______ _______ _______ _____ _____    ______ ____
ROOT
ATOM      1  O   UNL     1      34.791 -23.202 -17.081  0.00  0.00    -0.446 OA
ATOM      2  N   UNL     1      34.227 -20.246 -20.684  0.00  0.00    -0.296 N 
ATOM      3  N   UNL     1      36.295 -20.319 -19.489  0.00  0.00    -0.130 NA
ATOM      4  N   UNL     1      37.120 -20.818 -18.488  0.00  0.00    -0.106 NA
ATOM      5  C   UNL     1      34.560 -21.766 -18.809  0.00  0.00    +0.076 A 
ATOM      6  C   UNL     1      35.411 -22.241 -17.821  0.00  0.00    +0.202 A 
ATOM      7  C   UNL     1      35.033 -20.774 -19.661  0.00  0.00    +0.157 A 
ATOM      8  C   UNL     1      36.698 -21.779 -17.644  0.00  0.00    +0.279 A 
ATOM      9  C   UNL     1      33.348 -22.489 -18.654  0.00  0.00    +0.047 C 
ATOM     10  C   UNL     1      33.541 -23.346 -17.595  0.00  0.00    +0.180 C 
ATOM     11  H   UNL     1      33.328 -20.645 -20.723  0.00  0.00    +0.154 HD
ENDROOT
BRANCH   2  13
ATOM     12 CL   UNL     1      35.162 -16.103 -24.810  0.00  0.00    -0.082 Cl
ATOM     13  C   UNL     1      34.450 -19.258 -21.668  0.00  0.00    +0.049 C 
ATOM     14  C   UNL     1      35.103 -18.073 -21.330  0.00  0.00    +0.016 C 
ATOM     15  C   UNL     1      34.017 -19.469 -22.977  0.00  0.00    +0.016 C 
ATOM     16  C   UNL     1      35.323 -17.098 -22.301  0.00  0.00    +0.013 C 
ATOM     17  C   UNL     1      34.238 -18.493 -23.949  0.00  0.00    +0.013 C 
ATOM     18  C   UNL     1      34.891 -17.308 -23.611  0.00  0.00    +0.058 C 
ENDBRANCH   2  13
BRANCH   8  19
ATOM     19  O   UNL     1      37.544 -22.241 -16.671  0.00  0.00    -0.452 OA
BRANCH  19  20
ATOM     20  C   UNL     1      37.122 -22.074 -15.322  0.00  0.00    +0.234 C 
BRANCH  20  22
ATOM     21  N   UNL     1      38.113 -25.603 -13.099  0.00  0.00    -0.239 NA
ATOM     22  C   UNL     1      37.470 -23.310 -14.544  0.00  0.00    +0.024 C 
ATOM     23  C   UNL     1      38.496 -24.132 -14.979  0.00  0.00    +0.023 C 
ATOM     24  C   UNL     1      36.759 -23.622 -13.395  0.00  0.00    +0.020 C 
ATOM     25  C   UNL     1      38.778 -25.260 -14.225  0.00  0.00    +0.134 C 
ATOM     26  C   UNL     1      37.118 -24.773 -12.713  0.00  0.00    +0.099 C 
BRANCH  25  29
ATOM     27  O   UNL     1      41.030 -25.902 -14.353  0.00  0.00    -0.268 OA
ATOM     28  N   UNL     1      39.469 -27.330 -15.302  0.00  0.00    -0.298 N 
ATOM     29  C   UNL     1      39.843 -26.162 -14.626  0.00  0.00    +0.264 C 
ATOM     30  C   UNL     1      40.408 -28.335 -15.744  0.00  0.00    +0.111 C 
ATOM     31  H   UNL     1      38.513 -27.474 -15.485  0.00  0.00    +0.150 HD
ENDBRANCH  25  29
ENDBRANCH  20  22
ENDBRANCH  19  20
ENDBRANCH   8  19
TORSDOF 5
ENDMDL
MODEL 8
REMARK VINA RESULT:     -10.5      9.476     13.633
REMARK  Name = 9808844
REMARK  5 active torsions:
REMARK  status: ('A' for Active; 'I' for Inactive)
REMARK    1  A    between atoms: N_2  and  C_13
REMARK    2  A    between atoms: C_8  and  O_19
REMARK    3  A    between atoms: O_19  and  C_20
REMARK    4  A    between atoms: C_20  and  C_22
REMARK    5  A    between atoms: C_25  and  C_29
REMARK                            x       y       z     vdW  Elec       q    Type
REMARK                         _______ _______ _______ _____ _____    ______ ____
ROOT
ATOM      1  O   UNL     1      31.902 -10.135 -19.905  0.00  0.00    -0.446 OA
ATOM      2  N   UNL     1      33.113  -6.446 -22.544  0.00  0.00    -0.296 N 
ATOM      3  N   UNL     1      32.948  -8.626 -23.511  0.00  0.00    -0.130 NA
ATOM      4  N   UNL     1      32.696  -9.990 -23.432  0.00  0.00    -0.106 NA
ATOM      5  C   UNL     1      32.487  -8.386 -21.209  0.00  0.00    +0.076 A 
ATOM      6  C   UNL     1      32.243  -9.752 -21.167  0.00  0.00    +0.202 A 
ATOM      7  C   UNL     1      32.851  -7.822 -22.427  0.00  0.00    +0.157 A 
ATOM      8  C   UNL     1      32.342 -10.573 -22.270  0.00  0.00    +0.279 A 
ATOM      9  C   UNL     1      32.280  -7.917 -19.885  0.00  0.00    +0.047 C 
ATOM     10  C   UNL     1      31.927  -9.015 -19.135  0.00  0.00    +0.180 C 
ATOM     11  H   UNL     1      33.014  -5.953 -21.699  0.00  0.00    +0.154 HD
ENDROOT
BRANCH   2  13
ATOM     12 CL   UNL     1      34.694  -3.028 -27.113  0.00  0.00    -0.082 Cl
ATOM     13  C   UNL     1      33.490  -5.631 -23.633  0.00  0.00    +0.049 C 
ATOM     14  C   UNL     1      32.664  -4.583 -24.038  0.00  0.00    +0.016 C 
ATOM     15  C   UNL     1      34.689  -5.874 -24.304  0.00  0.00    +0.016 C 
ATOM     16  C   UNL     1      33.036  -3.778 -25.114  0.00  0.00    +0.013 C 
ATOM     17  C   UNL     1      35.061  -5.069 -25.380  0.00  0.00    +0.013 C 
ATOM     18  C   UNL     1      34.235  -4.021 -25.784  0.00  0.00    +0.058 C 
ENDBRANCH   2  13
BRANCH   8  19
ATOM     19  O   UNL     1      32.103 -11.922 -22.237  0.00  0.00    -0.452 OA
BRANCH  19  20
ATOM     20  C   UNL     1      33.216 -12.762 -21.954  0.00  0.00    +0.234 C 
BRANCH  20  22
ATOM     21  N   UNL     1      33.890 -15.358 -25.297  0.00  0.00    -0.239 NA
ATOM     22  C   UNL     1      33.452 -13.672 -23.124  0.00  0.00    +0.024 C 
ATOM     23  C   UNL     1      33.968 -14.940 -22.918  0.00  0.00    +0.023 C 
ATOM     24  C   UNL     1      33.153 -13.236 -24.406  0.00  0.00    +0.020 C 
ATOM     25  C   UNL     1      34.167 -15.741 -24.031  0.00  0.00    +0.134 C 
ATOM     26  C   UNL     1      33.389 -14.112 -25.452  0.00  0.00    +0.099 C 
BRANCH  25  29
ATOM     27  O   UNL     1      34.434 -17.969 -24.714  0.00  0.00    -0.268 OA
ATOM     28  N   UNL     1      35.546 -17.314 -22.787  0.00  0.00    -0.298 N 
ATOM     29  C   UNL     1      34.704 -17.083 -23.882  0.00  0.00    +0.264 C 
ATOM     30  C   UNL     1      36.176 -18.586 -22.517  0.00  0.00    +0.111 C 
ATOM     31  H   UNL     1      35.718 -16.569 -22.168  0.00  0.00    +0.150 HD
ENDBRANCH  25  29
ENDBRANCH  20  22
ENDBRANCH  19  20
ENDBRANCH   8  19
TORSDOF 5
ENDMDL
MODEL 9
REMARK VINA RESULT:     -10.3      7.169     11.029
REMARK  Name = 9808844
REMARK  5 active torsions:
REMARK  status: ('A' for Active; 'I' for Inactive)
REMARK    1  A    between atoms: N_2  and  C_13
REMARK    2  A    between atoms: C_8  and  O_19
REMARK    3  A    between atoms: O_19  and  C_20
REMARK    4  A    between atoms: C_20  and  C_22
REMARK    5  A    between atoms: C_25  and  C_29
REMARK                            x       y       z     vdW  Elec       q    Type
REMARK                         _______ _______ _______ _____ _____    ______ ____
ROOT
ATOM      1  O   UNL     1      33.707 -13.994 -25.923  0.00  0.00    -0.446 OA
ATOM      2  N   UNL     1      32.936  -9.714 -24.157  0.00  0.00    -0.296 N 
ATOM      3  N   UNL     1      33.148 -11.602 -22.708  0.00  0.00    -0.130 NA
ATOM      4  N   UNL     1      33.346 -12.958 -22.476  0.00  0.00    -0.106 NA
ATOM      5  C   UNL     1      33.337 -11.951 -25.034  0.00  0.00    +0.076 A 
ATOM      6  C   UNL     1      33.532 -13.299 -24.765  0.00  0.00    +0.202 A 
ATOM      7  C   UNL     1      33.140 -11.090 -23.960  0.00  0.00    +0.157 A 
ATOM      8  C   UNL     1      33.541 -13.823 -23.490  0.00  0.00    +0.279 A 
ATOM      9  C   UNL     1      33.399 -11.828 -26.447  0.00  0.00    +0.047 C 
ATOM     10  C   UNL     1      33.625 -13.093 -26.937  0.00  0.00    +0.180 C 
ATOM     11  H   UNL     1      32.948  -9.445 -25.104  0.00  0.00    +0.154 HD
ENDROOT
BRANCH   2  13
ATOM     12 CL   UNL     1      32.020  -5.208 -20.426  0.00  0.00    -0.082 Cl
ATOM     13  C   UNL     1      32.718  -8.640 -23.268  0.00  0.00    +0.049 C 
ATOM     14  C   UNL     1      33.796  -8.048 -22.612  0.00  0.00    +0.016 C 
ATOM     15  C   UNL     1      31.423  -8.171 -23.046  0.00  0.00    +0.016 C 
ATOM     16  C   UNL     1      33.581  -6.986 -21.733  0.00  0.00    +0.013 C 
ATOM     17  C   UNL     1      31.207  -7.109 -22.167  0.00  0.00    +0.013 C 
ATOM     18  C   UNL     1      32.286  -6.518 -21.511  0.00  0.00    +0.058 C 
ENDBRANCH   2  13
BRANCH   8  19
ATOM     19  O   UNL     1      33.732 -15.152 -23.216  0.00  0.00    -0.452 OA
BRANCH  19  20
ATOM     20  C   UNL     1      35.071 -15.631 -23.269  0.00  0.00    +0.234 C 
BRANCH  20  22
ATOM     21  N   UNL     1      35.091 -19.820 -22.365  0.00  0.00    -0.239 NA
ATOM     22  C   UNL     1      35.078 -17.098 -22.952  0.00  0.00    +0.024 C 
ATOM     23  C   UNL     1      35.747 -17.557 -21.829  0.00  0.00    +0.023 C 
ATOM     24  C   UNL     1      34.416 -17.985 -23.786  0.00  0.00    +0.020 C 
ATOM     25  C   UNL     1      35.723 -18.919 -21.581  0.00  0.00    +0.134 C 
ATOM     26  C   UNL     1      34.452 -19.329 -23.450  0.00  0.00    +0.099 C 
BRANCH  25  29
ATOM     27  O   UNL     1      37.393 -18.884 -19.934  0.00  0.00    -0.268 OA
ATOM     28  N   UNL     1      35.885 -20.643 -19.871  0.00  0.00    -0.298 N 
ATOM     29  C   UNL     1      36.405 -19.465 -20.419  0.00  0.00    +0.264 C 
ATOM     30  C   UNL     1      36.436 -21.294 -18.704  0.00  0.00    +0.111 C 
ATOM     31  H   UNL     1      35.100 -21.051 -20.303  0.00  0.00    +0.150 HD
ENDBRANCH  25  29
ENDBRANCH  20  22
ENDBRANCH  19  20
ENDBRANCH   8  19
TORSDOF 5
ENDMDL
