MODEL 1
REMARK VINA RESULT:     -12.0      0.000      0.000
REMARK  Name = 204109
REMARK  5 active torsions:
REMARK  status: ('A' for Active; 'I' for Inactive)
REMARK    1  A    between atoms: C_1  and  C_20
REMARK    2  A    between atoms: C_9  and  O_11
REMARK    3  A    between atoms: O_11  and  C_12
REMARK    4  A    between atoms: C_12  and  C_14
REMARK    5  A    between atoms: C_20  and  C_25
REMARK                            x       y       z     vdW  Elec       q    Type
REMARK                         _______ _______ _______ _____ _____    ______ ____
ROOT
ATOM      1  C   UNL     1      35.897 -19.003 -21.192  0.00  0.00    -0.021 C 
ATOM      2  C   UNL     1      34.495 -20.537 -19.926  0.00  0.00    -0.000 C 
ATOM      3  C   UNL     1      34.638 -19.520 -20.883  0.00  0.00    -0.004 C 
ATOM      4  C   UNL     1      35.647 -21.038 -19.273  0.00  0.00    +0.003 C 
ATOM      5  C   UNL     1      37.029 -19.497 -20.550  0.00  0.00    -0.004 C 
ATOM      6  C   UNL     1      36.906 -20.509 -19.597  0.00  0.00    -0.000 C 
ATOM      7  C   UNL     1      35.505 -22.056 -18.316  0.00  0.00    +0.037 C 
ATOM      8  C   UNL     1      33.236 -21.068 -19.602  0.00  0.00    +0.003 C 
ATOM      9  C   UNL     1      34.245 -22.572 -18.006  0.00  0.00    +0.139 C 
ATOM     10  C   UNL     1      33.113 -22.078 -18.649  0.00  0.00    +0.037 C 
ENDROOT
BRANCH   9  11
ATOM     11  O   UNL     1      34.123 -23.559 -17.077  0.00  0.00    -0.471 OA
BRANCH  11  12
ATOM     12  C   UNL     1      34.172 -23.170 -15.706  0.00  0.00    +0.234 C 
BRANCH  12  14
ATOM     13  F   UNL     1      34.308 -24.858 -13.443  0.00  0.00    -0.204 F 
ATOM     14  C   UNL     1      32.963 -23.619 -14.957  0.00  0.00    +0.049 C 
ATOM     15  C   UNL     1      33.097 -24.452 -13.847  0.00  0.00    +0.140 C 
ATOM     16  C   UNL     1      31.697 -23.204 -15.369  0.00  0.00    +0.002 C 
ATOM     17  C   UNL     1      31.963 -24.871 -13.148  0.00  0.00    +0.029 C 
ATOM     18  C   UNL     1      30.563 -23.622 -14.671  0.00  0.00    -0.000 C 
ATOM     19  C   UNL     1      30.697 -24.455 -13.560  0.00  0.00    +0.002 C 
ENDBRANCH  12  14
ENDBRANCH  11  12
ENDBRANCH   9  11
BRANCH   1  20
ATOM     20  C   UNL     1      36.030 -17.923 -22.212  0.00  0.00    +0.047 C 
BRANCH  20  25
ATOM     21  S   UNL     1      34.341 -17.438 -24.341  0.00  0.00    -0.048 S 
ATOM     22  O   UNL     1      34.928 -15.330 -21.161  0.00  0.00    -0.274 OA
ATOM     23  O   UNL     1      33.870 -15.209 -25.655  0.00  0.00    -0.263 OA
ATOM     24  N   UNL     1      34.373 -15.067 -23.390  0.00  0.00    -0.246 N 
ATOM     25  C   UNL     1      34.686 -17.286 -22.561  0.00  0.00    +0.137 C 
ATOM     26  C   UNL     1      34.685 -15.803 -22.266  0.00  0.00    +0.239 C 
ATOM     27  C   UNL     1      34.152 -15.714 -24.578  0.00  0.00    +0.279 C 
ATOM     28  H   UNL     1      34.311 -14.086 -23.340  0.00  0.00    +0.158 HD
ENDBRANCH  20  25
ENDBRANCH   1  20
TORSDOF 5
ENDMDL
MODEL 2
REMARK VINA RESULT:     -12.0      4.641      9.825
REMARK  Name = 204109
REMARK  5 active torsions:
REMARK  status: ('A' for Active; 'I' for Inactive)
REMARK    1  A    between atoms: C_1  and  C_20
REMARK    2  A    between atoms: C_9  and  O_11
REMARK    3  A    between atoms: O_11  and  C_12
REMARK    4  A    between atoms: C_12  and  C_14
REMARK    5  A    between atoms: C_20  and  C_25
REMARK                            x       y       z     vdW  Elec       q    Type
REMARK                         _______ _______ _______ _____ _____    ______ ____
ROOT
ATOM      1  C   UNL     1      33.769 -22.443 -18.269  0.00  0.00    -0.021 C 
ATOM      2  C   UNL     1      35.410 -21.027 -19.374  0.00  0.00    -0.000 C 
ATOM      3  C   UNL     1      35.094 -22.059 -18.476  0.00  0.00    -0.004 C 
ATOM      4  C   UNL     1      34.366 -20.376 -20.073  0.00  0.00    +0.003 C 
ATOM      5  C   UNL     1      32.743 -21.802 -18.956  0.00  0.00    -0.004 C 
ATOM      6  C   UNL     1      33.037 -20.775 -19.854  0.00  0.00    -0.000 C 
ATOM      7  C   UNL     1      34.681 -19.344 -20.972  0.00  0.00    +0.037 C 
ATOM      8  C   UNL     1      36.738 -20.627 -19.594  0.00  0.00    +0.003 C 
ATOM      9  C   UNL     1      36.006 -18.959 -21.178  0.00  0.00    +0.139 C 
ATOM     10  C   UNL     1      37.033 -19.600 -20.491  0.00  0.00    +0.037 C 
ENDROOT
BRANCH   9  11
ATOM     11  O   UNL     1      36.297 -17.958 -22.054  0.00  0.00    -0.471 OA
BRANCH  11  12
ATOM     12  C   UNL     1      35.289 -17.611 -23.002  0.00  0.00    +0.234 C 
BRANCH  12  14
ATOM     13  F   UNL     1      34.143 -16.056 -25.065  0.00  0.00    -0.204 F 
ATOM     14  C   UNL     1      34.768 -16.232 -22.781  0.00  0.00    +0.049 C 
ATOM     15  C   UNL     1      34.213 -15.515 -23.841  0.00  0.00    +0.140 C 
ATOM     16  C   UNL     1      34.836 -15.659 -21.511  0.00  0.00    +0.002 C 
ATOM     17  C   UNL     1      33.725 -14.225 -23.631  0.00  0.00    +0.029 C 
ATOM     18  C   UNL     1      34.349 -14.369 -21.301  0.00  0.00    -0.000 C 
ATOM     19  C   UNL     1      33.793 -13.652 -22.360  0.00  0.00    +0.002 C 
ENDBRANCH  12  14
ENDBRANCH  11  12
ENDBRANCH   9  11
BRANCH   1  20
ATOM     20  C   UNL     1      33.452 -23.541 -17.310  0.00  0.00    +0.047 C 
BRANCH  20  25
ATOM     21  S   UNL     1      33.827 -23.889 -14.597  0.00  0.00    -0.048 S 
ATOM     22  O   UNL     1      30.643 -22.835 -16.507  0.00  0.00    -0.274 OA
ATOM     23  O   UNL     1      32.293 -25.061 -12.813  0.00  0.00    -0.263 OA
ATOM     24  N   UNL     1      31.274 -23.977 -14.598  0.00  0.00    -0.246 N 
ATOM     25  C   UNL     1      32.989 -23.013 -15.954  0.00  0.00    +0.137 C 
ATOM     26  C   UNL     1      31.510 -23.249 -15.746  0.00  0.00    +0.239 C 
ATOM     27  C   UNL     1      32.334 -24.410 -13.846  0.00  0.00    +0.279 C 
ATOM     28  H   UNL     1      30.352 -24.185 -14.323  0.00  0.00    +0.158 HD
ENDBRANCH  20  25
ENDBRANCH   1  20
TORSDOF 5
ENDMDL
MODEL 3
REMARK VINA RESULT:     -11.9      4.581      9.724
REMARK  Name = 204109
REMARK  5 active torsions:
REMARK  status: ('A' for Active; 'I' for Inactive)
REMARK    1  A    between atoms: C_1  and  C_20
REMARK    2  A    between atoms: C_9  and  O_11
REMARK    3  A    between atoms: O_11  and  C_12
REMARK    4  A    between atoms: C_12  and  C_14
REMARK    5  A    between atoms: C_20  and  C_25
REMARK                            x       y       z     vdW  Elec       q    Type
REMARK                         _______ _______ _______ _____ _____    ______ ____
ROOT
ATOM      1  C   UNL     1      33.555 -22.899 -17.357  0.00  0.00    -0.021 C 
ATOM      2  C   UNL     1      33.567 -21.354 -19.237  0.00  0.00    -0.000 C 
ATOM      3  C   UNL     1      32.871 -22.173 -18.333  0.00  0.00    -0.004 C 
ATOM      4  C   UNL     1      34.977 -21.271 -19.150  0.00  0.00    +0.003 C 
ATOM      5  C   UNL     1      34.941 -22.817 -17.272  0.00  0.00    -0.004 C 
ATOM      6  C   UNL     1      35.650 -22.008 -18.162  0.00  0.00    -0.000 C 
ATOM      7  C   UNL     1      35.673 -20.453 -20.054  0.00  0.00    +0.037 C 
ATOM      8  C   UNL     1      32.895 -20.617 -20.226  0.00  0.00    +0.003 C 
ATOM      9  C   UNL     1      34.989 -19.727 -21.030  0.00  0.00    +0.139 C 
ATOM     10  C   UNL     1      33.603 -19.809 -21.115  0.00  0.00    +0.037 C 
ENDROOT
BRANCH   9  11
ATOM     11  O   UNL     1      35.678 -18.937 -21.899  0.00  0.00    -0.471 OA
BRANCH  11  12
ATOM     12  C   UNL     1      35.861 -17.571 -21.531  0.00  0.00    +0.234 C 
BRANCH  12  14
ATOM     13  F   UNL     1      34.864 -15.064 -20.688  0.00  0.00    -0.204 F 
ATOM     14  C   UNL     1      35.124 -16.646 -22.439  0.00  0.00    +0.049 C 
ATOM     15  C   UNL     1      34.657 -15.422 -21.963  0.00  0.00    +0.140 C 
ATOM     16  C   UNL     1      34.903 -17.008 -23.768  0.00  0.00    +0.002 C 
ATOM     17  C   UNL     1      33.969 -14.558 -22.816  0.00  0.00    +0.029 C 
ATOM     18  C   UNL     1      34.214 -16.146 -24.621  0.00  0.00    -0.000 C 
ATOM     19  C   UNL     1      33.747 -14.920 -24.145  0.00  0.00    +0.002 C 
ENDBRANCH  12  14
ENDBRANCH  11  12
ENDBRANCH   9  11
BRANCH   1  20
ATOM     20  C   UNL     1      32.799 -23.763 -16.405  0.00  0.00    +0.047 C 
BRANCH  20  25
ATOM     21  S   UNL     1      32.555 -23.541 -13.664  0.00  0.00    -0.048 S 
ATOM     22  O   UNL     1      29.936 -22.847 -16.413  0.00  0.00    -0.274 OA
ATOM     23  O   UNL     1      30.597 -24.281 -12.073  0.00  0.00    -0.263 OA
ATOM     24  N   UNL     1      30.063 -23.576 -14.222  0.00  0.00    -0.246 N 
ATOM     25  C   UNL     1      32.090 -22.953 -15.322  0.00  0.00    +0.137 C 
ATOM     26  C   UNL     1      30.589 -23.110 -15.409  0.00  0.00    +0.239 C 
ATOM     27  C   UNL     1      30.904 -23.863 -13.179  0.00  0.00    +0.279 C 
ATOM     28  H   UNL     1      29.091 -23.703 -14.125  0.00  0.00    +0.158 HD
ENDBRANCH  20  25
ENDBRANCH   1  20
TORSDOF 5
ENDMDL
MODEL 4
REMARK VINA RESULT:     -11.8      4.574      9.967
REMARK  Name = 204109
REMARK  5 active torsions:
REMARK  status: ('A' for Active; 'I' for Inactive)
REMARK    1  A    between atoms: C_1  and  C_20
REMARK    2  A    between atoms: C_9  and  O_11
REMARK    3  A    between atoms: O_11  and  C_12
REMARK    4  A    between atoms: C_12  and  C_14
REMARK    5  A    between atoms: C_20  and  C_25
REMARK                            x       y       z     vdW  Elec       q    Type
REMARK                         _______ _______ _______ _____ _____    ______ ____
ROOT
ATOM      1  C   UNL     1      34.262 -22.825 -17.378  0.00  0.00    -0.021 C 
ATOM      2  C   UNL     1      35.305 -21.335 -18.994  0.00  0.00    -0.000 C 
ATOM      3  C   UNL     1      35.403 -22.232 -17.918  0.00  0.00    -0.004 C 
ATOM      4  C   UNL     1      34.030 -21.036 -19.530  0.00  0.00    +0.003 C 
ATOM      5  C   UNL     1      33.008 -22.530 -17.905  0.00  0.00    -0.004 C 
ATOM      6  C   UNL     1      32.891 -21.642 -18.975  0.00  0.00    -0.000 C 
ATOM      7  C   UNL     1      33.931 -20.140 -20.606  0.00  0.00    +0.037 C 
ATOM      8  C   UNL     1      36.443 -20.729 -19.550  0.00  0.00    +0.003 C 
ATOM      9  C   UNL     1      35.073 -19.546 -21.146  0.00  0.00    +0.139 C 
ATOM     10  C   UNL     1      36.326 -19.841 -20.619  0.00  0.00    +0.037 C 
ENDROOT
BRANCH   9  11
ATOM     11  O   UNL     1      34.961 -18.679 -22.190  0.00  0.00    -0.471 OA
BRANCH  11  12
ATOM     12  C   UNL     1      35.687 -17.455 -22.098  0.00  0.00    +0.234 C 
BRANCH  12  14
ATOM     13  F   UNL     1      34.920 -15.212 -20.559  0.00  0.00    -0.204 F 
ATOM     14  C   UNL     1      34.918 -16.309 -22.665  0.00  0.00    +0.049 C 
ATOM     15  C   UNL     1      34.570 -15.231 -21.852  0.00  0.00    +0.140 C 
ATOM     16  C   UNL     1      34.548 -16.319 -24.009  0.00  0.00    +0.002 C 
ATOM     17  C   UNL     1      33.851 -14.160 -22.385  0.00  0.00    +0.029 C 
ATOM     18  C   UNL     1      33.828 -15.248 -24.542  0.00  0.00    -0.000 C 
ATOM     19  C   UNL     1      33.481 -14.169 -23.730  0.00  0.00    +0.002 C 
ENDBRANCH  12  14
ENDBRANCH  11  12
ENDBRANCH   9  11
BRANCH   1  20
ATOM     20  C   UNL     1      34.385 -23.776 -16.235  0.00  0.00    +0.047 C 
BRANCH  20  25
ATOM     21  S   UNL     1      35.678 -23.697 -13.796  0.00  0.00    -0.048 S 
ATOM     22  O   UNL     1      31.961 -23.051 -14.611  0.00  0.00    -0.274 OA
ATOM     23  O   UNL     1      34.937 -24.637 -11.456  0.00  0.00    -0.263 OA
ATOM     24  N   UNL     1      33.290 -23.870 -12.906  0.00  0.00    -0.246 N 
ATOM     25  C   UNL     1      34.363 -23.065 -14.883  0.00  0.00    +0.137 C 
ATOM     26  C   UNL     1      33.065 -23.316 -14.149  0.00  0.00    +0.239 C 
ATOM     27  C   UNL     1      34.574 -24.148 -12.515  0.00  0.00    +0.279 C 
ATOM     28  H   UNL     1      32.536 -24.065 -12.305  0.00  0.00    +0.158 HD
ENDBRANCH  20  25
ENDBRANCH   1  20
TORSDOF 5
ENDMDL
MODEL 5
REMARK VINA RESULT:     -11.7      1.834      2.707
REMARK  Name = 204109
REMARK  5 active torsions:
REMARK  status: ('A' for Active; 'I' for Inactive)
REMARK    1  A    between atoms: C_1  and  C_20
REMARK    2  A    between atoms: C_9  and  O_11
REMARK    3  A    between atoms: O_11  and  C_12
REMARK    4  A    between atoms: C_12  and  C_14
REMARK    5  A    between atoms: C_20  and  C_25
REMARK                            x       y       z     vdW  Elec       q    Type
REMARK                         _______ _______ _______ _____ _____    ______ ____
ROOT
ATOM      1  C   UNL     1      35.908 -19.062 -21.221  0.00  0.00    -0.021 C 
ATOM      2  C   UNL     1      34.519 -20.569 -19.909  0.00  0.00    -0.000 C 
ATOM      3  C   UNL     1      34.653 -19.578 -20.895  0.00  0.00    -0.004 C 
ATOM      4  C   UNL     1      35.675 -21.044 -19.245  0.00  0.00    +0.003 C 
ATOM      5  C   UNL     1      37.044 -19.530 -20.568  0.00  0.00    -0.004 C 
ATOM      6  C   UNL     1      36.931 -20.515 -19.587  0.00  0.00    -0.000 C 
ATOM      7  C   UNL     1      35.542 -22.035 -18.260  0.00  0.00    +0.037 C 
ATOM      8  C   UNL     1      33.265 -21.098 -19.567  0.00  0.00    +0.003 C 
ATOM      9  C   UNL     1      34.287 -22.550 -17.933  0.00  0.00    +0.139 C 
ATOM     10  C   UNL     1      33.151 -22.083 -18.586  0.00  0.00    +0.037 C 
ENDROOT
BRANCH   9  11
ATOM     11  O   UNL     1      34.174 -23.512 -16.975  0.00  0.00    -0.471 OA
BRANCH  11  12
ATOM     12  C   UNL     1      34.521 -23.145 -15.642  0.00  0.00    +0.234 C 
BRANCH  12  14
ATOM     13  F   UNL     1      37.119 -22.059 -15.400  0.00  0.00    -0.204 F 
ATOM     14  C   UNL     1      35.682 -23.931 -15.133  0.00  0.00    +0.049 C 
ATOM     15  C   UNL     1      36.940 -23.337 -15.038  0.00  0.00    +0.140 C 
ATOM     16  C   UNL     1      35.508 -25.261 -14.754  0.00  0.00    +0.002 C 
ATOM     17  C   UNL     1      38.025 -24.074 -14.561  0.00  0.00    +0.029 C 
ATOM     18  C   UNL     1      36.592 -25.999 -14.278  0.00  0.00    -0.000 C 
ATOM     19  C   UNL     1      37.851 -25.405 -14.181  0.00  0.00    +0.002 C 
ENDBRANCH  12  14
ENDBRANCH  11  12
ENDBRANCH   9  11
BRANCH   1  20
ATOM     20  C   UNL     1      36.031 -18.010 -22.271  0.00  0.00    +0.047 C 
BRANCH  20  25
ATOM     21  S   UNL     1      34.322 -17.475 -24.373  0.00  0.00    -0.048 S 
ATOM     22  O   UNL     1      34.972 -15.420 -21.170  0.00  0.00    -0.274 OA
ATOM     23  O   UNL     1      33.860 -15.223 -25.648  0.00  0.00    -0.263 OA
ATOM     24  N   UNL     1      34.393 -15.119 -23.388  0.00  0.00    -0.246 N 
ATOM     25  C   UNL     1      34.691 -17.353 -22.595  0.00  0.00    +0.137 C 
ATOM     26  C   UNL     1      34.710 -15.874 -22.279  0.00  0.00    +0.239 C 
ATOM     27  C   UNL     1      34.150 -15.746 -24.582  0.00  0.00    +0.279 C 
ATOM     28  H   UNL     1      34.342 -14.138 -23.324  0.00  0.00    +0.158 HD
ENDBRANCH  20  25
ENDBRANCH   1  20
TORSDOF 5
ENDMDL
MODEL 6
REMARK VINA RESULT:     -11.7      1.320      2.322
REMARK  Name = 204109
REMARK  5 active torsions:
REMARK  status: ('A' for Active; 'I' for Inactive)
REMARK    1  A    between atoms: C_1  and  C_20
REMARK    2  A    between atoms: C_9  and  O_11
REMARK    3  A    between atoms: O_11  and  C_12
REMARK    4  A    between atoms: C_12  and  C_14
REMARK    5  A    between atoms: C_20  and  C_25
REMARK                            x       y       z     vdW  Elec       q    Type
REMARK                         _______ _______ _______ _____ _____    ______ ____
ROOT
ATOM      1  C   UNL     1      35.106 -20.517 -20.285  0.00  0.00    -0.021 C 
ATOM      2  C   UNL     1      35.451 -21.733 -18.205  0.00  0.00    -0.000 C 
ATOM      3  C   UNL     1      35.951 -20.961 -19.267  0.00  0.00    -0.004 C 
ATOM      4  C   UNL     1      34.074 -22.058 -18.176  0.00  0.00    +0.003 C 
ATOM      5  C   UNL     1      33.753 -20.838 -20.256  0.00  0.00    -0.004 C 
ATOM      6  C   UNL     1      33.237 -21.603 -19.208  0.00  0.00    -0.000 C 
ATOM      7  C   UNL     1      33.573 -22.829 -17.115  0.00  0.00    +0.037 C 
ATOM      8  C   UNL     1      36.286 -22.188 -17.172  0.00  0.00    +0.003 C 
ATOM      9  C   UNL     1      34.418 -23.274 -16.097  0.00  0.00    +0.139 C 
ATOM     10  C   UNL     1      35.772 -22.953 -16.125  0.00  0.00    +0.037 C 
ENDROOT
BRANCH   9  11
ATOM     11  O   UNL     1      33.918 -24.020 -15.073  0.00  0.00    -0.471 OA
BRANCH  11  12
ATOM     12  C   UNL     1      32.995 -23.381 -14.193  0.00  0.00    +0.234 C 
BRANCH  12  14
ATOM     13  F   UNL     1      31.943 -25.697 -12.962  0.00  0.00    -0.204 F 
ATOM     14  C   UNL     1      31.598 -23.851 -14.415  0.00  0.00    +0.049 C 
ATOM     15  C   UNL     1      31.138 -25.003 -13.778  0.00  0.00    +0.140 C 
ATOM     16  C   UNL     1      30.751 -23.137 -15.263  0.00  0.00    +0.002 C 
ATOM     17  C   UNL     1      29.829 -25.440 -13.987  0.00  0.00    +0.029 C 
ATOM     18  C   UNL     1      29.443 -23.574 -15.473  0.00  0.00    -0.000 C 
ATOM     19  C   UNL     1      28.982 -24.725 -14.834  0.00  0.00    +0.002 C 
ENDBRANCH  12  14
ENDBRANCH  11  12
ENDBRANCH   9  11
BRANCH   1  20
ATOM     20  C   UNL     1      35.655 -19.699 -21.404  0.00  0.00    +0.047 C 
BRANCH  20  25
ATOM     21  S   UNL     1      34.479 -18.670 -23.681  0.00  0.00    -0.048 S 
ATOM     22  O   UNL     1      35.468 -16.866 -20.415  0.00  0.00    -0.274 OA
ATOM     23  O   UNL     1      34.982 -16.445 -24.988  0.00  0.00    -0.263 OA
ATOM     24  N   UNL     1      35.273 -16.457 -22.682  0.00  0.00    -0.246 N 
ATOM     25  C   UNL     1      34.676 -18.625 -21.873  0.00  0.00    +0.137 C 
ATOM     26  C   UNL     1      35.183 -17.237 -21.548  0.00  0.00    +0.239 C 
ATOM     27  C   UNL     1      34.952 -16.999 -23.899  0.00  0.00    +0.279 C 
ATOM     28  H   UNL     1      35.565 -15.520 -22.618  0.00  0.00    +0.158 HD
ENDBRANCH  20  25
ENDBRANCH   1  20
TORSDOF 5
ENDMDL
MODEL 7
REMARK VINA RESULT:     -11.5      5.296     10.155
REMARK  Name = 204109
REMARK  5 active torsions:
REMARK  status: ('A' for Active; 'I' for Inactive)
REMARK    1  A    between atoms: C_1  and  C_20
REMARK    2  A    between atoms: C_9  and  O_11
REMARK    3  A    between atoms: O_11  and  C_12
REMARK    4  A    between atoms: C_12  and  C_14
REMARK    5  A    between atoms: C_20  and  C_25
REMARK                            x       y       z     vdW  Elec       q    Type
REMARK                         _______ _______ _______ _____ _____    ______ ____
ROOT
ATOM      1  C   UNL     1      36.511 -23.224 -15.519  0.00  0.00    -0.021 C 
ATOM      2  C   UNL     1      35.056 -22.460 -17.314  0.00  0.00    -0.000 C 
ATOM      3  C   UNL     1      35.262 -23.202 -16.139  0.00  0.00    -0.004 C 
ATOM      4  C   UNL     1      36.135 -21.730 -17.867  0.00  0.00    +0.003 C 
ATOM      5  C   UNL     1      37.571 -22.507 -16.064  0.00  0.00    -0.004 C 
ATOM      6  C   UNL     1      37.386 -21.762 -17.230  0.00  0.00    -0.000 C 
ATOM      7  C   UNL     1      35.930 -20.988 -19.042  0.00  0.00    +0.037 C 
ATOM      8  C   UNL     1      33.805 -22.427 -17.951  0.00  0.00    +0.003 C 
ATOM      9  C   UNL     1      34.680 -20.966 -19.662  0.00  0.00    +0.139 C 
ATOM     10  C   UNL     1      33.620 -21.684 -19.117  0.00  0.00    +0.037 C 
ENDROOT
BRANCH   9  11
ATOM     11  O   UNL     1      34.496 -20.241 -20.799  0.00  0.00    -0.471 OA
BRANCH  11  12
ATOM     12  C   UNL     1      35.632 -19.557 -21.324  0.00  0.00    +0.234 C 
BRANCH  12  14
ATOM     13  F   UNL     1      34.559 -20.041 -23.894  0.00  0.00    -0.204 F 
ATOM     14  C   UNL     1      35.240 -18.461 -22.257  0.00  0.00    +0.049 C 
ATOM     15  C   UNL     1      34.716 -18.765 -23.513  0.00  0.00    +0.140 C 
ATOM     16  C   UNL     1      35.399 -17.131 -21.871  0.00  0.00    +0.002 C 
ATOM     17  C   UNL     1      34.349 -17.738 -24.383  0.00  0.00    +0.029 C 
ATOM     18  C   UNL     1      35.034 -16.103 -22.741  0.00  0.00    -0.000 C 
ATOM     19  C   UNL     1      34.508 -16.407 -23.996  0.00  0.00    +0.002 C 
ENDBRANCH  12  14
ENDBRANCH  11  12
ENDBRANCH   9  11
BRANCH   1  20
ATOM     20  C   UNL     1      36.711 -24.018 -14.273  0.00  0.00    +0.047 C 
BRANCH  20  25
ATOM     21  S   UNL     1      37.159 -23.242 -11.661  0.00  0.00    -0.048 S 
ATOM     22  O   UNL     1      33.932 -24.599 -13.285  0.00  0.00    -0.274 OA
ATOM     23  O   UNL     1      36.430 -24.381  -9.407  0.00  0.00    -0.263 OA
ATOM     24  N   UNL     1      35.030 -24.591 -11.250  0.00  0.00    -0.246 N 
ATOM     25  C   UNL     1      36.014 -23.391 -13.067  0.00  0.00    +0.137 C 
ATOM     26  C   UNL     1      34.872 -24.255 -12.579  0.00  0.00    +0.239 C 
ATOM     27  C   UNL     1      36.145 -24.168 -10.576  0.00  0.00    +0.279 C 
ATOM     28  H   UNL     1      34.347 -25.131 -10.791  0.00  0.00    +0.158 HD
ENDBRANCH  20  25
ENDBRANCH   1  20
TORSDOF 5
ENDMDL
MODEL 8
REMARK VINA RESULT:     -11.5      4.993     10.129
REMARK  Name = 204109
REMARK  5 active torsions:
REMARK  status: ('A' for Active; 'I' for Inactive)
REMARK    1  A    between atoms: C_1  and  C_20
REMARK    2  A    between atoms: C_9  and  O_11
REMARK    3  A    between atoms: O_11  and  C_12
REMARK    4  A    between atoms: C_12  and  C_14
REMARK    5  A    between atoms: C_20  and  C_25
REMARK                            x       y       z     vdW  Elec       q    Type
REMARK                         _______ _______ _______ _____ _____    ______ ____
ROOT
ATOM      1  C   UNL     1      34.410 -23.440 -16.123  0.00  0.00    -0.021 C 
ATOM      2  C   UNL     1      35.175 -22.064 -17.978  0.00  0.00    -0.000 C 
ATOM      3  C   UNL     1      35.445 -22.829 -16.832  0.00  0.00    -0.004 C 
ATOM      4  C   UNL     1      33.836 -21.917 -18.411  0.00  0.00    +0.003 C 
ATOM      5  C   UNL     1      33.093 -23.295 -16.549  0.00  0.00    -0.004 C 
ATOM      6  C   UNL     1      32.806 -22.539 -17.687  0.00  0.00    -0.000 C 
ATOM      7  C   UNL     1      33.565 -21.152 -19.557  0.00  0.00    +0.037 C 
ATOM      8  C   UNL     1      36.204 -21.442 -18.703  0.00  0.00    +0.003 C 
ATOM      9  C   UNL     1      34.601 -20.540 -20.266  0.00  0.00    +0.139 C 
ATOM     10  C   UNL     1      35.917 -20.686 -19.840  0.00  0.00    +0.037 C 
ENDROOT
BRANCH   9  11
ATOM     11  O   UNL     1      34.323 -19.803 -21.376  0.00  0.00    -0.471 OA
BRANCH  11  12
ATOM     12  C   UNL     1      35.425 -19.180 -22.035  0.00  0.00    +0.234 C 
BRANCH  12  14
ATOM     13  F   UNL     1      34.106 -19.296 -24.532  0.00  0.00    -0.204 F 
ATOM     14  C   UNL     1      35.007 -17.962 -22.787  0.00  0.00    +0.049 C 
ATOM     15  C   UNL     1      34.359 -18.086 -24.015  0.00  0.00    +0.140 C 
ATOM     16  C   UNL     1      35.267 -16.698 -22.259  0.00  0.00    +0.002 C 
ATOM     17  C   UNL     1      33.970 -16.944 -24.717  0.00  0.00    +0.029 C 
ATOM     18  C   UNL     1      34.878 -15.556 -22.960  0.00  0.00    -0.000 C 
ATOM     19  C   UNL     1      34.229 -15.679 -24.188  0.00  0.00    +0.002 C 
ENDBRANCH  12  14
ENDBRANCH  11  12
ENDBRANCH   9  11
BRANCH   1  20
ATOM     20  C   UNL     1      34.715 -24.249 -14.908  0.00  0.00    +0.047 C 
BRANCH  20  25
ATOM     21  S   UNL     1      37.214 -23.450 -14.047  0.00  0.00    -0.048 S 
ATOM     22  O   UNL     1      34.039 -24.183 -11.979  0.00  0.00    -0.274 OA
ATOM     23  O   UNL     1      38.655 -24.293 -12.016  0.00  0.00    -0.263 OA
ATOM     24  N   UNL     1      36.341 -24.299 -11.802  0.00  0.00    -0.246 N 
ATOM     25  C   UNL     1      35.409 -23.429 -13.822  0.00  0.00    +0.137 C 
ATOM     26  C   UNL     1      35.158 -24.007 -12.448  0.00  0.00    +0.239 C 
ATOM     27  C   UNL     1      37.531 -24.085 -12.447  0.00  0.00    +0.279 C 
ATOM     28  H   UNL     1      36.331 -24.660 -10.886  0.00  0.00    +0.158 HD
ENDBRANCH  20  25
ENDBRANCH   1  20
TORSDOF 5
ENDMDL
MODEL 9
REMARK VINA RESULT:     -11.5      4.132      6.870
REMARK  Name = 204109
REMARK  5 active torsions:
REMARK  status: ('A' for Active; 'I' for Inactive)
REMARK    1  A    between atoms: C_1  and  C_20
REMARK    2  A    between atoms: C_9  and  O_11
REMARK    3  A    between atoms: O_11  and  C_12
REMARK    4  A    between atoms: C_12  and  C_14
REMARK    5  A    between atoms: C_20  and  C_25
REMARK                            x       y       z     vdW  Elec       q    Type
REMARK                         _______ _______ _______ _____ _____    ______ ____
ROOT
ATOM      1  C   UNL     1      33.736 -13.152 -23.528  0.00  0.00    -0.021 C 
ATOM      2  C   UNL     1      34.153 -15.525 -23.869  0.00  0.00    -0.000 C 
ATOM      3  C   UNL     1      33.704 -14.283 -24.345  0.00  0.00    -0.004 C 
ATOM      4  C   UNL     1      34.640 -15.622 -22.544  0.00  0.00    +0.003 C 
ATOM      5  C   UNL     1      34.215 -13.249 -22.225  0.00  0.00    -0.004 C 
ATOM      6  C   UNL     1      34.665 -14.475 -21.734  0.00  0.00    -0.000 C 
ATOM      7  C   UNL     1      35.089 -16.864 -22.067  0.00  0.00    +0.037 C 
ATOM      8  C   UNL     1      34.128 -16.673 -24.677  0.00  0.00    +0.003 C 
ATOM      9  C   UNL     1      35.057 -17.995 -22.884  0.00  0.00    +0.139 C 
ATOM     10  C   UNL     1      34.578 -17.899 -24.187  0.00  0.00    +0.037 C 
ENDROOT
BRANCH   9  11
ATOM     11  O   UNL     1      35.496 -19.193 -22.408  0.00  0.00    -0.471 OA
BRANCH  11  12
ATOM     12  C   UNL     1      35.875 -19.246 -21.035  0.00  0.00    +0.234 C 
BRANCH  12  14
ATOM     13  F   UNL     1      36.976 -21.223 -19.341  0.00  0.00    -0.204 F 
ATOM     14  C   UNL     1      35.037 -20.208 -20.263  0.00  0.00    +0.049 C 
ATOM     15  C   UNL     1      35.641 -21.162 -19.444  0.00  0.00    +0.140 C 
ATOM     16  C   UNL     1      33.648 -20.154 -20.363  0.00  0.00    +0.002 C 
ATOM     17  C   UNL     1      34.854 -22.061 -18.722  0.00  0.00    +0.029 C 
ATOM     18  C   UNL     1      32.860 -21.053 -19.643  0.00  0.00    -0.000 C 
ATOM     19  C   UNL     1      33.464 -22.006 -18.822  0.00  0.00    +0.002 C 
ENDBRANCH  12  14
ENDBRANCH  11  12
ENDBRANCH   9  11
BRANCH   1  20
ATOM     20  C   UNL     1      33.255 -11.841 -24.051  0.00  0.00    +0.047 C 
BRANCH  20  25
ATOM     21  S   UNL     1      31.896 -10.168 -22.325  0.00  0.00    -0.048 S 
ATOM     22  O   UNL     1      35.098  -9.487 -24.369  0.00  0.00    -0.274 OA
ATOM     23  O   UNL     1      31.274  -7.626 -22.571  0.00  0.00    -0.263 OA
ATOM     24  N   UNL     1      33.252  -8.373 -23.536  0.00  0.00    -0.246 N 
ATOM     25  C   UNL     1      33.474 -10.703 -23.056  0.00  0.00    +0.137 C 
ATOM     26  C   UNL     1      34.050  -9.480 -23.733  0.00  0.00    +0.239 C 
ATOM     27  C   UNL     1      32.085  -8.502 -22.829  0.00  0.00    +0.279 C 
ATOM     28  H   UNL     1      33.517  -7.498 -23.900  0.00  0.00    +0.158 HD
ENDBRANCH  20  25
ENDBRANCH   1  20
TORSDOF 5
ENDMDL
