MODEL 1
REMARK VINA RESULT:     -11.4      0.000      0.000
REMARK  Name = 10200651
REMARK  5 active torsions:
REMARK  status: ('A' for Active; 'I' for Inactive)
REMARK    1  A    between atoms: C_1  and  C_7
REMARK    2  A    between atoms: C_4  and  C_22
REMARK    3  A    between atoms: C_10  and  C_17
REMARK    4  A    between atoms: N_21  and  C_24
REMARK    5  A    between atoms: C_27  and  C_31
REMARK                            x       y       z     vdW  Elec       q    Type
REMARK                         _______ _______ _______ _____ _____    ______ ____
ROOT
ATOM      1  C   UNL     1      32.641  -9.079 -22.476  0.00  0.00    -0.000 C 
ATOM      2  C   UNL     1      33.678  -9.268 -23.389  0.00  0.00    +0.000 C 
ATOM      3  C   UNL     1      31.902 -10.170 -22.022  0.00  0.00    +0.000 C 
ATOM      4  C   UNL     1      33.230 -11.614 -23.384  0.00  0.00    +0.054 C 
ATOM      5  C   UNL     1      33.976 -10.551 -23.849  0.00  0.00    +0.005 C 
ATOM      6  C   UNL     1      32.200 -11.453 -22.481  0.00  0.00    +0.005 C 
ENDROOT
BRANCH   1   7
ATOM      7  C   UNL     1      32.331  -7.747 -21.999  0.00  0.00    -0.004 C 
ATOM      8  C   UNL     1      32.285  -7.462 -20.634  0.00  0.00    -0.022 C 
ATOM      9  C   UNL     1      32.076  -6.737 -22.929  0.00  0.00    +0.004 C 
ATOM     10  C   UNL     1      31.774  -5.446 -22.495  0.00  0.00    +0.055 C 
ATOM     11  C   UNL     1      31.984  -6.171 -20.199  0.00  0.00    -0.004 C 
ATOM     12  C   UNL     1      31.729  -5.163 -21.129  0.00  0.00    +0.004 C 
ATOM     13  C   UNL     1      32.552  -8.515 -19.608  0.00  0.00    +0.031 C 
BRANCH  10  17
ATOM     14  O   UNL     1      32.192  -4.498 -24.627  0.00  0.00    -0.420 OA
ATOM     15  N   UNL     1      30.713  -3.371 -23.383  0.00  0.00    -0.107 NA
ATOM     16  N   UNL     1      30.855  -2.705 -24.586  0.00  0.00    -0.111 NA
ATOM     17  C   UNL     1      31.510  -4.404 -23.456  0.00  0.00    +0.250 A 
ATOM     18  C   UNL     1      31.728  -3.397 -25.279  0.00  0.00    +0.227 A 
ATOM     19  C   UNL     1      32.256  -3.155 -26.626  0.00  0.00    +0.097 C 
ENDBRANCH  10  17
ENDBRANCH   1   7
BRANCH   4  22
ATOM     20  O   UNL     1      33.450 -13.192 -25.078  0.00  0.00    -0.270 OA
ATOM     21  N   UNL     1      33.952 -13.893 -22.891  0.00  0.00    -0.280 N 
ATOM     22  C   UNL     1      33.547 -12.981 -23.874  0.00  0.00    +0.249 C 
ATOM     23  H   UNL     1      33.973 -13.552 -21.967  0.00  0.00    +0.155 HD
BRANCH  21  24
ATOM     24  C   UNL     1      34.333 -15.225 -23.059  0.00  0.00    +0.051 C 
ATOM     25  C   UNL     1      34.945 -15.914 -22.012  0.00  0.00    +0.025 C 
ATOM     26  C   UNL     1      34.101 -15.869 -24.275  0.00  0.00    +0.015 C 
ATOM     27  C   UNL     1      35.325 -17.246 -22.180  0.00  0.00    +0.070 C 
ATOM     28  C   UNL     1      34.481 -17.200 -24.444  0.00  0.00    +0.002 C 
ATOM     29  C   UNL     1      35.094 -17.888 -23.397  0.00  0.00    +0.010 C 
BRANCH  27  31
ATOM     30  N   UNL     1      36.463 -18.524 -20.236  0.00  0.00    -0.191 NA
ATOM     31  C   UNL     1      35.953 -17.951 -21.108  0.00  0.00    +0.100 C 
ENDBRANCH  27  31
ENDBRANCH  21  24
ENDBRANCH   4  22
TORSDOF 5
ENDMDL
MODEL 2
REMARK VINA RESULT:     -11.3      5.563     11.095
REMARK  Name = 10200651
REMARK  5 active torsions:
REMARK  status: ('A' for Active; 'I' for Inactive)
REMARK    1  A    between atoms: C_1  and  C_7
REMARK    2  A    between atoms: C_4  and  C_22
REMARK    3  A    between atoms: C_10  and  C_17
REMARK    4  A    between atoms: N_21  and  C_24
REMARK    5  A    between atoms: C_27  and  C_31
REMARK                            x       y       z     vdW  Elec       q    Type
REMARK                         _______ _______ _______ _____ _____    ______ ____
ROOT
ATOM      1  C   UNL     1      34.932 -19.460 -21.194  0.00  0.00    -0.000 C 
ATOM      2  C   UNL     1      33.795 -20.095 -20.697  0.00  0.00    +0.000 C 
ATOM      3  C   UNL     1      36.183 -19.736 -20.644  0.00  0.00    +0.000 C 
ATOM      4  C   UNL     1      35.157 -21.263 -19.121  0.00  0.00    +0.054 C 
ATOM      5  C   UNL     1      33.908 -21.007 -19.648  0.00  0.00    +0.005 C 
ATOM      6  C   UNL     1      36.297 -20.649 -19.595  0.00  0.00    +0.005 C 
ENDROOT
BRANCH   1   7
ATOM      7  C   UNL     1      34.814 -18.514 -22.283  0.00  0.00    -0.004 C 
ATOM      8  C   UNL     1      34.847 -18.935 -23.613  0.00  0.00    -0.022 C 
ATOM      9  C   UNL     1      34.665 -17.157 -21.988  0.00  0.00    +0.004 C 
ATOM     10  C   UNL     1      34.550 -16.225 -23.020  0.00  0.00    +0.055 C 
ATOM     11  C   UNL     1      34.732 -18.003 -24.645  0.00  0.00    -0.004 C 
ATOM     12  C   UNL     1      34.583 -16.649 -24.348  0.00  0.00    +0.004 C 
ATOM     13  C   UNL     1      35.005 -20.378 -23.970  0.00  0.00    +0.031 C 
BRANCH  10  17
ATOM     14  O   UNL     1      34.112 -14.019 -23.769  0.00  0.00    -0.420 OA
ATOM     15  N   UNL     1      34.491 -14.195 -21.572  0.00  0.00    -0.107 NA
ATOM     16  N   UNL     1      34.254 -12.863 -21.859  0.00  0.00    -0.111 NA
ATOM     17  C   UNL     1      34.397 -14.824 -22.713  0.00  0.00    +0.250 A 
ATOM     18  C   UNL     1      34.039 -12.808 -23.152  0.00  0.00    +0.227 A 
ATOM     19  C   UNL     1      33.737 -11.650 -24.002  0.00  0.00    +0.097 C 
ENDBRANCH  10  17
ENDBRANCH   1   7
BRANCH   4  22
ATOM     20  O   UNL     1      34.548 -23.220 -18.021  0.00  0.00    -0.270 OA
ATOM     21  N   UNL     1      36.248 -21.925 -17.039  0.00  0.00    -0.280 N 
ATOM     22  C   UNL     1      35.278 -22.235 -18.003  0.00  0.00    +0.249 C 
ATOM     23  H   UNL     1      36.746 -21.087 -17.182  0.00  0.00    +0.155 HD
BRANCH  21  24
ATOM     24  C   UNL     1      36.597 -22.659 -15.904  0.00  0.00    +0.051 C 
ATOM     25  C   UNL     1      35.622 -22.999 -14.967  0.00  0.00    +0.025 C 
ATOM     26  C   UNL     1      37.920 -23.052 -15.708  0.00  0.00    +0.015 C 
ATOM     27  C   UNL     1      35.971 -23.732 -13.832  0.00  0.00    +0.070 C 
ATOM     28  C   UNL     1      38.270 -23.785 -14.575  0.00  0.00    +0.002 C 
ATOM     29  C   UNL     1      37.295 -24.124 -13.637  0.00  0.00    +0.010 C 
BRANCH  27  31
ATOM     30  N   UNL     1      34.162 -24.364 -12.089  0.00  0.00    -0.191 NA
ATOM     31  C   UNL     1      34.973 -24.080 -12.871  0.00  0.00    +0.100 C 
ENDBRANCH  27  31
ENDBRANCH  21  24
ENDBRANCH   4  22
TORSDOF 5
ENDMDL
MODEL 3
REMARK VINA RESULT:     -11.3      2.121     10.988
REMARK  Name = 10200651
REMARK  5 active torsions:
REMARK  status: ('A' for Active; 'I' for Inactive)
REMARK    1  A    between atoms: C_1  and  C_7
REMARK    2  A    between atoms: C_4  and  C_22
REMARK    3  A    between atoms: C_10  and  C_17
REMARK    4  A    between atoms: N_21  and  C_24
REMARK    5  A    between atoms: C_27  and  C_31
REMARK                            x       y       z     vdW  Elec       q    Type
REMARK                         _______ _______ _______ _____ _____    ______ ____
ROOT
ATOM      1  C   UNL     1      33.766 -11.304 -23.703  0.00  0.00    -0.000 C 
ATOM      2  C   UNL     1      32.683 -10.727 -23.041  0.00  0.00    +0.000 C 
ATOM      3  C   UNL     1      34.795 -10.499 -24.192  0.00  0.00    +0.000 C 
ATOM      4  C   UNL     1      33.659  -8.571 -23.359  0.00  0.00    +0.054 C 
ATOM      5  C   UNL     1      32.628  -9.345 -22.866  0.00  0.00    +0.005 C 
ATOM      6  C   UNL     1      34.740  -9.117 -24.017  0.00  0.00    +0.005 C 
ENDROOT
BRANCH   1   7
ATOM      7  C   UNL     1      33.823 -12.739 -23.884  0.00  0.00    -0.004 C 
ATOM      8  C   UNL     1      33.461 -13.329 -25.097  0.00  0.00    -0.022 C 
ATOM      9  C   UNL     1      34.248 -13.540 -22.822  0.00  0.00    +0.004 C 
ATOM     10  C   UNL     1      34.309 -14.926 -22.972  0.00  0.00    +0.055 C 
ATOM     11  C   UNL     1      33.522 -14.714 -25.246  0.00  0.00    -0.004 C 
ATOM     12  C   UNL     1      33.947 -15.512 -24.185  0.00  0.00    +0.004 C 
ATOM     13  C   UNL     1      33.000 -12.506 -26.256  0.00  0.00    +0.031 C 
BRANCH  10  17
ATOM     14  O   UNL     1      35.230 -16.974 -22.214  0.00  0.00    -0.420 OA
ATOM     15  N   UNL     1      34.755 -15.513 -20.589  0.00  0.00    -0.107 NA
ATOM     16  N   UNL     1      35.279 -16.649 -20.001  0.00  0.00    -0.111 NA
ATOM     17  C   UNL     1      34.748 -15.751 -21.874  0.00  0.00    +0.250 A 
ATOM     18  C   UNL     1      35.541 -17.475 -20.987  0.00  0.00    +0.227 A 
ATOM     19  C   UNL     1      36.108 -18.828 -20.949  0.00  0.00    +0.097 C 
ENDBRANCH  10  17
ENDBRANCH   1   7
BRANCH   4  22
ATOM     20  O   UNL     1      34.169  -6.622 -22.198  0.00  0.00    -0.270 OA
ATOM     21  N   UNL     1      32.904  -6.394 -24.166  0.00  0.00    -0.280 N 
ATOM     22  C   UNL     1      33.600  -7.097 -23.174  0.00  0.00    +0.249 C 
ATOM     23  H   UNL     1      32.505  -6.940 -24.883  0.00  0.00    +0.155 HD
BRANCH  21  24
ATOM     24  C   UNL     1      32.709  -5.016 -24.266  0.00  0.00    +0.051 C 
ATOM     25  C   UNL     1      31.841  -4.369 -23.388  0.00  0.00    +0.025 C 
ATOM     26  C   UNL     1      33.382  -4.286 -25.246  0.00  0.00    +0.015 C 
ATOM     27  C   UNL     1      31.646  -2.990 -23.488  0.00  0.00    +0.070 C 
ATOM     28  C   UNL     1      33.188  -2.909 -25.347  0.00  0.00    +0.002 C 
ATOM     29  C   UNL     1      32.319  -2.261 -24.468  0.00  0.00    +0.010 C 
BRANCH  27  31
ATOM     30  N   UNL     1      30.034  -1.787 -21.856  0.00  0.00    -0.191 NA
ATOM     31  C   UNL     1      30.757  -2.327 -22.588  0.00  0.00    +0.100 C 
ENDBRANCH  27  31
ENDBRANCH  21  24
ENDBRANCH   4  22
TORSDOF 5
ENDMDL
MODEL 4
REMARK VINA RESULT:     -11.3      7.051     12.458
REMARK  Name = 10200651
REMARK  5 active torsions:
REMARK  status: ('A' for Active; 'I' for Inactive)
REMARK    1  A    between atoms: C_1  and  C_7
REMARK    2  A    between atoms: C_4  and  C_22
REMARK    3  A    between atoms: C_10  and  C_17
REMARK    4  A    between atoms: N_21  and  C_24
REMARK    5  A    between atoms: C_27  and  C_31
REMARK                            x       y       z     vdW  Elec       q    Type
REMARK                         _______ _______ _______ _____ _____    ______ ____
ROOT
ATOM      1  C   UNL     1      34.755 -20.458 -19.909  0.00  0.00    -0.000 C 
ATOM      2  C   UNL     1      33.360 -20.439 -19.953  0.00  0.00    +0.000 C 
ATOM      3  C   UNL     1      35.414 -21.311 -19.024  0.00  0.00    +0.000 C 
ATOM      4  C   UNL     1      33.302 -22.109 -18.246  0.00  0.00    +0.054 C 
ATOM      5  C   UNL     1      32.626 -21.275 -19.112  0.00  0.00    +0.005 C 
ATOM      6  C   UNL     1      34.679 -22.146 -18.183  0.00  0.00    +0.005 C 
ENDROOT
BRANCH   1   7
ATOM      7  C   UNL     1      35.517 -19.591 -20.781  0.00  0.00    -0.004 C 
ATOM      8  C   UNL     1      36.908 -19.516 -20.690  0.00  0.00    -0.022 C 
ATOM      9  C   UNL     1      34.841 -18.818 -21.728  0.00  0.00    +0.004 C 
ATOM     10  C   UNL     1      35.554 -17.974 -22.580  0.00  0.00    +0.055 C 
ATOM     11  C   UNL     1      37.620 -18.672 -21.541  0.00  0.00    -0.004 C 
ATOM     12  C   UNL     1      36.944 -17.902 -22.487  0.00  0.00    +0.004 C 
ATOM     13  C   UNL     1      37.667 -20.327 -19.690  0.00  0.00    +0.031 C 
BRANCH  10  17
ATOM     14  O   UNL     1      34.552 -15.909 -23.174  0.00  0.00    -0.420 OA
ATOM     15  N   UNL     1      34.457 -17.479 -24.764  0.00  0.00    -0.107 NA
ATOM     16  N   UNL     1      33.838 -16.342 -25.249  0.00  0.00    -0.111 NA
ATOM     17  C   UNL     1      34.854 -17.176 -23.557  0.00  0.00    +0.250 A 
ATOM     18  C   UNL     1      33.916 -15.452 -24.288  0.00  0.00    +0.227 A 
ATOM     19  C   UNL     1      33.427 -14.069 -24.249  0.00  0.00    +0.097 C 
ENDBRANCH  10  17
ENDBRANCH   1   7
BRANCH   4  22
ATOM     20  O   UNL     1      33.035 -24.055 -17.000  0.00  0.00    -0.270 OA
ATOM     21  N   UNL     1      31.258 -22.515 -16.975  0.00  0.00    -0.280 N 
ATOM     22  C   UNL     1      32.519 -22.999 -17.350  0.00  0.00    +0.249 C 
ATOM     23  H   UNL     1      31.001 -21.642 -17.353  0.00  0.00    +0.155 HD
BRANCH  21  24
ATOM     24  C   UNL     1      30.322 -23.116 -16.131  0.00  0.00    +0.051 C 
ATOM     25  C   UNL     1      29.032 -22.597 -16.038  0.00  0.00    +0.025 C 
ATOM     26  C   UNL     1      30.679 -24.237 -15.382  0.00  0.00    +0.015 C 
ATOM     27  C   UNL     1      28.097 -23.198 -15.195  0.00  0.00    +0.070 C 
ATOM     28  C   UNL     1      29.746 -24.838 -14.538  0.00  0.00    +0.002 C 
ATOM     29  C   UNL     1      28.455 -24.318 -14.445  0.00  0.00    +0.010 C 
BRANCH  27  31
ATOM     30  N   UNL     1      25.699 -22.234 -15.021  0.00  0.00    -0.191 NA
ATOM     31  C   UNL     1      26.774 -22.666 -15.099  0.00  0.00    +0.100 C 
ENDBRANCH  27  31
ENDBRANCH  21  24
ENDBRANCH   4  22
TORSDOF 5
ENDMDL
MODEL 5
REMARK VINA RESULT:     -11.2      5.529     11.099
REMARK  Name = 10200651
REMARK  5 active torsions:
REMARK  status: ('A' for Active; 'I' for Inactive)
REMARK    1  A    between atoms: C_1  and  C_7
REMARK    2  A    between atoms: C_4  and  C_22
REMARK    3  A    between atoms: C_10  and  C_17
REMARK    4  A    between atoms: N_21  and  C_24
REMARK    5  A    between atoms: C_27  and  C_31
REMARK                            x       y       z     vdW  Elec       q    Type
REMARK                         _______ _______ _______ _____ _____    ______ ____
ROOT
ATOM      1  C   UNL     1      34.972 -19.505 -21.150  0.00  0.00    -0.000 C 
ATOM      2  C   UNL     1      36.233 -19.778 -20.619  0.00  0.00    +0.000 C 
ATOM      3  C   UNL     1      33.842 -20.125 -20.618  0.00  0.00    +0.000 C 
ATOM      4  C   UNL     1      35.229 -21.270 -19.048  0.00  0.00    +0.054 C 
ATOM      5  C   UNL     1      36.363 -20.671 -19.556  0.00  0.00    +0.005 C 
ATOM      6  C   UNL     1      33.972 -21.018 -19.555  0.00  0.00    +0.005 C 
ENDROOT
BRANCH   1   7
ATOM      7  C   UNL     1      34.837 -18.578 -22.253  0.00  0.00    -0.004 C 
ATOM      8  C   UNL     1      34.857 -19.023 -23.576  0.00  0.00    -0.022 C 
ATOM      9  C   UNL     1      34.684 -17.217 -21.981  0.00  0.00    +0.004 C 
ATOM     10  C   UNL     1      34.554 -16.304 -23.028  0.00  0.00    +0.055 C 
ATOM     11  C   UNL     1      34.726 -18.111 -24.623  0.00  0.00    -0.004 C 
ATOM     12  C   UNL     1      34.574 -16.752 -24.349  0.00  0.00    +0.004 C 
ATOM     13  C   UNL     1      35.018 -20.471 -23.909  0.00  0.00    +0.031 C 
BRANCH  10  17
ATOM     14  O   UNL     1      34.105 -14.113 -23.813  0.00  0.00    -0.420 OA
ATOM     15  N   UNL     1      34.494 -14.250 -21.614  0.00  0.00    -0.107 NA
ATOM     16  N   UNL     1      34.251 -12.925 -21.923  0.00  0.00    -0.111 NA
ATOM     17  C   UNL     1      34.397 -14.899 -22.745  0.00  0.00    +0.250 A 
ATOM     18  C   UNL     1      34.030 -12.892 -23.216  0.00  0.00    +0.227 A 
ATOM     19  C   UNL     1      33.721 -11.750 -24.084  0.00  0.00    +0.097 C 
ENDBRANCH  10  17
ENDBRANCH   1   7
BRANCH   4  22
ATOM     20  O   UNL     1      34.605 -23.181 -17.878  0.00  0.00    -0.270 OA
ATOM     21  N   UNL     1      36.393 -21.928 -17.005  0.00  0.00    -0.280 N 
ATOM     22  C   UNL     1      35.369 -22.222 -17.915  0.00  0.00    +0.249 C 
ATOM     23  H   UNL     1      36.912 -21.111 -17.188  0.00  0.00    +0.155 HD
BRANCH  21  24
ATOM     24  C   UNL     1      36.769 -22.650 -15.871  0.00  0.00    +0.051 C 
ATOM     25  C   UNL     1      38.016 -23.272 -15.822  0.00  0.00    +0.025 C 
ATOM     26  C   UNL     1      35.897 -22.749 -14.787  0.00  0.00    +0.015 C 
ATOM     27  C   UNL     1      38.392 -23.994 -14.689  0.00  0.00    +0.070 C 
ATOM     28  C   UNL     1      36.272 -23.470 -13.654  0.00  0.00    +0.002 C 
ATOM     29  C   UNL     1      37.519 -24.093 -13.605  0.00  0.00    +0.010 C 
BRANCH  27  31
ATOM     30  N   UNL     1      40.708 -25.150 -14.597  0.00  0.00    -0.191 NA
ATOM     31  C   UNL     1      39.669 -24.631 -14.638  0.00  0.00    +0.100 C 
ENDBRANCH  27  31
ENDBRANCH  21  24
ENDBRANCH   4  22
TORSDOF 5
ENDMDL
MODEL 6
REMARK VINA RESULT:     -11.2      8.131     16.174
REMARK  Name = 10200651
REMARK  5 active torsions:
REMARK  status: ('A' for Active; 'I' for Inactive)
REMARK    1  A    between atoms: C_1  and  C_7
REMARK    2  A    between atoms: C_4  and  C_22
REMARK    3  A    between atoms: C_10  and  C_17
REMARK    4  A    between atoms: N_21  and  C_24
REMARK    5  A    between atoms: C_27  and  C_31
REMARK                            x       y       z     vdW  Elec       q    Type
REMARK                         _______ _______ _______ _____ _____    ______ ____
ROOT
ATOM      1  C   UNL     1      34.757 -22.789 -16.690  0.00  0.00    -0.000 C 
ATOM      2  C   UNL     1      35.737 -22.102 -17.407  0.00  0.00    +0.000 C 
ATOM      3  C   UNL     1      33.434 -22.775 -17.128  0.00  0.00    +0.000 C 
ATOM      4  C   UNL     1      34.076 -21.405 -18.975  0.00  0.00    +0.054 C 
ATOM      5  C   UNL     1      35.392 -21.402 -18.563  0.00  0.00    +0.005 C 
ATOM      6  C   UNL     1      33.089 -22.075 -18.283  0.00  0.00    +0.005 C 
ENDROOT
BRANCH   1   7
ATOM      7  C   UNL     1      35.115 -23.515 -15.491  0.00  0.00    -0.004 C 
ATOM      8  C   UNL     1      34.170 -23.782 -14.499  0.00  0.00    -0.022 C 
ATOM      9  C   UNL     1      36.432 -23.953 -15.330  0.00  0.00    +0.004 C 
ATOM     10  C   UNL     1      36.802 -24.653 -14.182  0.00  0.00    +0.055 C 
ATOM     11  C   UNL     1      34.540 -24.483 -13.351  0.00  0.00    -0.004 C 
ATOM     12  C   UNL     1      35.855 -24.919 -13.193  0.00  0.00    +0.004 C 
ATOM     13  C   UNL     1      32.752 -23.331 -14.633  0.00  0.00    +0.031 C 
BRANCH  10  17
ATOM     14  O   UNL     1      38.538 -26.139 -14.813  0.00  0.00    -0.420 OA
ATOM     15  N   UNL     1      39.102 -24.675 -13.219  0.00  0.00    -0.107 NA
ATOM     16  N   UNL     1      40.204 -25.468 -13.480  0.00  0.00    -0.111 NA
ATOM     17  C   UNL     1      38.162 -25.104 -14.019  0.00  0.00    +0.250 A 
ATOM     18  C   UNL     1      39.828 -26.309 -14.415  0.00  0.00    +0.227 A 
ATOM     19  C   UNL     1      40.589 -27.376 -15.074  0.00  0.00    +0.097 C 
ENDBRANCH  10  17
ENDBRANCH   1   7
BRANCH   4  22
ATOM     20  O   UNL     1      32.533 -20.677 -20.556  0.00  0.00    -0.270 OA
ATOM     21  N   UNL     1      34.762 -19.980 -20.835  0.00  0.00    -0.280 N 
ATOM     22  C   UNL     1      33.708 -20.658 -20.206  0.00  0.00    +0.249 C 
ATOM     23  H   UNL     1      35.648 -20.075 -20.415  0.00  0.00    +0.155 HD
BRANCH  21  24
ATOM     24  C   UNL     1      34.710 -19.185 -21.981  0.00  0.00    +0.051 C 
ATOM     25  C   UNL     1      34.794 -17.798 -21.872  0.00  0.00    +0.025 C 
ATOM     26  C   UNL     1      34.574 -19.780 -23.235  0.00  0.00    +0.015 C 
ATOM     27  C   UNL     1      34.743 -17.004 -23.019  0.00  0.00    +0.070 C 
ATOM     28  C   UNL     1      34.522 -18.987 -24.382  0.00  0.00    +0.002 C 
ATOM     29  C   UNL     1      34.606 -17.599 -24.273  0.00  0.00    +0.010 C 
BRANCH  27  31
ATOM     30  N   UNL     1      34.899 -14.426 -22.818  0.00  0.00    -0.191 NA
ATOM     31  C   UNL     1      34.829 -15.582 -22.908  0.00  0.00    +0.100 C 
ENDBRANCH  27  31
ENDBRANCH  21  24
ENDBRANCH   4  22
TORSDOF 5
ENDMDL
MODEL 7
REMARK VINA RESULT:     -11.1      3.795     12.491
REMARK  Name = 10200651
REMARK  5 active torsions:
REMARK  status: ('A' for Active; 'I' for Inactive)
REMARK    1  A    between atoms: C_1  and  C_7
REMARK    2  A    between atoms: C_4  and  C_22
REMARK    3  A    between atoms: C_10  and  C_17
REMARK    4  A    between atoms: N_21  and  C_24
REMARK    5  A    between atoms: C_27  and  C_31
REMARK                            x       y       z     vdW  Elec       q    Type
REMARK                         _______ _______ _______ _____ _____    ______ ____
ROOT
ATOM      1  C   UNL     1      35.202 -17.823 -21.616  0.00  0.00    -0.000 C 
ATOM      2  C   UNL     1      35.020 -16.619 -20.935  0.00  0.00    +0.000 C 
ATOM      3  C   UNL     1      34.990 -17.886 -22.992  0.00  0.00    +0.000 C 
ATOM      4  C   UNL     1      34.422 -15.567 -22.994  0.00  0.00    +0.054 C 
ATOM      5  C   UNL     1      34.625 -15.477 -21.632  0.00  0.00    +0.005 C 
ATOM      6  C   UNL     1      34.596 -16.744 -23.690  0.00  0.00    +0.005 C 
ENDROOT
BRANCH   1   7
ATOM      7  C   UNL     1      35.612 -19.008 -20.892  0.00  0.00    -0.004 C 
ATOM      8  C   UNL     1      36.949 -19.406 -20.857  0.00  0.00    -0.022 C 
ATOM      9  C   UNL     1      34.646 -19.759 -20.220  0.00  0.00    +0.004 C 
ATOM     10  C   UNL     1      35.015 -20.906 -19.516  0.00  0.00    +0.055 C 
ATOM     11  C   UNL     1      37.319 -20.553 -20.154  0.00  0.00    -0.004 C 
ATOM     12  C   UNL     1      36.353 -21.302 -19.483  0.00  0.00    +0.004 C 
ATOM     13  C   UNL     1      38.013 -18.630 -21.564  0.00  0.00    +0.031 C 
BRANCH  10  17
ATOM     14  O   UNL     1      34.450 -22.353 -17.726  0.00  0.00    -0.420 OA
ATOM     15  N   UNL     1      32.746 -21.846 -19.083  0.00  0.00    -0.107 NA
ATOM     16  N   UNL     1      32.270 -22.689 -18.097  0.00  0.00    -0.111 NA
ATOM     17  C   UNL     1      34.016 -21.681 -18.823  0.00  0.00    +0.250 A 
ATOM     18  C   UNL     1      33.299 -22.960 -17.328  0.00  0.00    +0.227 A 
ATOM     19  C   UNL     1      33.376 -23.804 -16.130  0.00  0.00    +0.097 C 
ENDBRANCH  10  17
ENDBRANCH   1   7
BRANCH   4  22
ATOM     20  O   UNL     1      33.497 -14.503 -24.844  0.00  0.00    -0.270 OA
ATOM     21  N   UNL     1      34.209 -13.136 -23.069  0.00  0.00    -0.280 N 
ATOM     22  C   UNL     1      34.001 -14.350 -23.737  0.00  0.00    +0.249 C 
ATOM     23  H   UNL     1      34.629 -13.198 -22.180  0.00  0.00    +0.155 HD
BRANCH  21  24
ATOM     24  C   UNL     1      33.892 -11.849 -23.506  0.00  0.00    +0.051 C 
ATOM     25  C   UNL     1      33.199 -10.978 -22.666  0.00  0.00    +0.025 C 
ATOM     26  C   UNL     1      34.269 -11.434 -24.783  0.00  0.00    +0.015 C 
ATOM     27  C   UNL     1      32.882  -9.691 -23.103  0.00  0.00    +0.070 C 
ATOM     28  C   UNL     1      33.952 -10.148 -25.221  0.00  0.00    +0.002 C 
ATOM     29  C   UNL     1      33.258  -9.277 -24.381  0.00  0.00    +0.010 C 
BRANCH  27  31
ATOM     30  N   UNL     1      31.594  -8.072 -21.544  0.00  0.00    -0.191 NA
ATOM     31  C   UNL     1      32.172  -8.798 -22.243  0.00  0.00    +0.100 C 
ENDBRANCH  27  31
ENDBRANCH  21  24
ENDBRANCH   4  22
TORSDOF 5
ENDMDL
MODEL 8
REMARK VINA RESULT:     -11.1      7.912     15.534
REMARK  Name = 10200651
REMARK  5 active torsions:
REMARK  status: ('A' for Active; 'I' for Inactive)
REMARK    1  A    between atoms: C_1  and  C_7
REMARK    2  A    between atoms: C_4  and  C_22
REMARK    3  A    between atoms: C_10  and  C_17
REMARK    4  A    between atoms: N_21  and  C_24
REMARK    5  A    between atoms: C_27  and  C_31
REMARK                            x       y       z     vdW  Elec       q    Type
REMARK                         _______ _______ _______ _____ _____    ______ ____
ROOT
ATOM      1  C   UNL     1      35.659 -22.448 -16.833  0.00  0.00    -0.000 C 
ATOM      2  C   UNL     1      36.824 -21.695 -16.989  0.00  0.00    +0.000 C 
ATOM      3  C   UNL     1      34.666 -22.409 -17.811  0.00  0.00    +0.000 C 
ATOM      4  C   UNL     1      35.998 -20.884 -19.078  0.00  0.00    +0.054 C 
ATOM      5  C   UNL     1      36.995 -20.905 -18.125  0.00  0.00    +0.005 C 
ATOM      6  C   UNL     1      34.838 -21.618 -18.947  0.00  0.00    +0.005 C 
ENDROOT
BRANCH   1   7
ATOM      7  C   UNL     1      35.481 -23.268 -15.654  0.00  0.00    -0.004 C 
ATOM      8  C   UNL     1      36.578 -23.776 -14.955  0.00  0.00    -0.022 C 
ATOM      9  C   UNL     1      34.187 -23.553 -15.215  0.00  0.00    +0.004 C 
ATOM     10  C   UNL     1      33.990 -24.343 -14.082  0.00  0.00    +0.055 C 
ATOM     11  C   UNL     1      36.381 -24.566 -13.823  0.00  0.00    -0.004 C 
ATOM     12  C   UNL     1      35.088 -24.848 -13.385  0.00  0.00    +0.004 C 
ATOM     13  C   UNL     1      37.979 -23.494 -15.393  0.00  0.00    +0.031 C 
BRANCH  10  17
ATOM     14  O   UNL     1      31.695 -24.650 -14.594  0.00  0.00    -0.420 OA
ATOM     15  N   UNL     1      32.204 -24.891 -12.429  0.00  0.00    -0.107 NA
ATOM     16  N   UNL     1      30.844 -25.096 -12.574  0.00  0.00    -0.111 NA
ATOM     17  C   UNL     1      32.652 -24.636 -13.630  0.00  0.00    +0.250 A 
ATOM     18  C   UNL     1      30.593 -24.945 -13.853  0.00  0.00    +0.227 A 
ATOM     19  C   UNL     1      29.319 -25.048 -14.575  0.00  0.00    +0.097 C 
ENDBRANCH  10  17
ENDBRANCH   1   7
BRANCH   4  22
ATOM     20  O   UNL     1      37.328 -19.793 -20.644  0.00  0.00    -0.270 OA
ATOM     21  N   UNL     1      34.998 -19.627 -20.917  0.00  0.00    -0.280 N 
ATOM     22  C   UNL     1      36.181 -20.040 -20.288  0.00  0.00    +0.249 C 
ATOM     23  H   UNL     1      34.159 -19.917 -20.491  0.00  0.00    +0.155 HD
BRANCH  21  24
ATOM     24  C   UNL     1      34.864 -18.856 -22.072  0.00  0.00    +0.051 C 
ATOM     25  C   UNL     1      34.877 -17.465 -21.989  0.00  0.00    +0.025 C 
ATOM     26  C   UNL     1      34.716 -19.479 -23.312  0.00  0.00    +0.015 C 
ATOM     27  C   UNL     1      34.743 -16.694 -23.144  0.00  0.00    +0.070 C 
ATOM     28  C   UNL     1      34.581 -18.710 -24.467  0.00  0.00    +0.002 C 
ATOM     29  C   UNL     1      34.594 -17.318 -24.383  0.00  0.00    +0.010 C 
BRANCH  27  31
ATOM     30  N   UNL     1      34.767 -14.109 -22.990  0.00  0.00    -0.191 NA
ATOM     31  C   UNL     1      34.756 -15.269 -23.059  0.00  0.00    +0.100 C 
ENDBRANCH  27  31
ENDBRANCH  21  24
ENDBRANCH   4  22
TORSDOF 5
ENDMDL
MODEL 9
REMARK VINA RESULT:     -10.9      1.281      1.478
REMARK  Name = 10200651
REMARK  5 active torsions:
REMARK  status: ('A' for Active; 'I' for Inactive)
REMARK    1  A    between atoms: C_1  and  C_7
REMARK    2  A    between atoms: C_4  and  C_22
REMARK    3  A    between atoms: C_10  and  C_17
REMARK    4  A    between atoms: N_21  and  C_24
REMARK    5  A    between atoms: C_27  and  C_31
REMARK                            x       y       z     vdW  Elec       q    Type
REMARK                         _______ _______ _______ _____ _____    ______ ____
ROOT
ATOM      1  C   UNL     1      32.556  -8.724 -22.513  0.00  0.00    -0.000 C 
ATOM      2  C   UNL     1      33.562  -9.373 -23.229  0.00  0.00    +0.000 C 
ATOM      3  C   UNL     1      31.638  -9.465 -21.771  0.00  0.00    +0.000 C 
ATOM      4  C   UNL     1      32.729 -11.475 -22.460  0.00  0.00    +0.054 C 
ATOM      5  C   UNL     1      33.650 -10.764 -23.202  0.00  0.00    +0.005 C 
ATOM      6  C   UNL     1      31.726 -10.857 -21.744  0.00  0.00    +0.005 C 
ENDROOT
BRANCH   1   7
ATOM      7  C   UNL     1      32.465  -7.280 -22.541  0.00  0.00    -0.004 C 
ATOM      8  C   UNL     1      32.365  -6.539 -21.362  0.00  0.00    -0.022 C 
ATOM      9  C   UNL     1      32.478  -6.623 -23.774  0.00  0.00    +0.004 C 
ATOM     10  C   UNL     1      32.390  -5.232 -23.828  0.00  0.00    +0.055 C 
ATOM     11  C   UNL     1      32.277  -5.148 -21.416  0.00  0.00    -0.004 C 
ATOM     12  C   UNL     1      32.291  -4.495 -22.647  0.00  0.00    +0.004 C 
ATOM     13  C   UNL     1      32.348  -7.204 -20.024  0.00  0.00    +0.031 C 
BRANCH  10  17
ATOM     14  O   UNL     1      33.276  -5.048 -26.019  0.00  0.00    -0.420 OA
ATOM     15  N   UNL     1      31.706  -3.535 -25.522  0.00  0.00    -0.107 NA
ATOM     16  N   UNL     1      32.125  -3.305 -26.819  0.00  0.00    -0.111 NA
ATOM     17  C   UNL     1      32.403  -4.557 -25.101  0.00  0.00    +0.250 A 
ATOM     18  C   UNL     1      33.042  -4.210 -27.065  0.00  0.00    +0.227 A 
ATOM     19  C   UNL     1      33.828  -4.438 -28.284  0.00  0.00    +0.097 C 
ENDBRANCH  10  17
ENDBRANCH   1   7
BRANCH   4  22
ATOM     20  O   UNL     1      31.943 -13.574 -21.840  0.00  0.00    -0.270 OA
ATOM     21  N   UNL     1      33.916 -13.505 -23.117  0.00  0.00    -0.280 N 
ATOM     22  C   UNL     1      32.823 -12.958 -22.432  0.00  0.00    +0.249 C 
ATOM     23  H   UNL     1      34.528 -12.858 -23.538  0.00  0.00    +0.155 HD
BRANCH  21  24
ATOM     24  C   UNL     1      34.242 -14.852 -23.280  0.00  0.00    +0.051 C 
ATOM     25  C   UNL     1      34.800 -15.567 -22.221  0.00  0.00    +0.025 C 
ATOM     26  C   UNL     1      34.009 -15.482 -24.502  0.00  0.00    +0.015 C 
ATOM     27  C   UNL     1      35.126 -16.914 -22.384  0.00  0.00    +0.070 C 
ATOM     28  C   UNL     1      34.335 -16.828 -24.666  0.00  0.00    +0.002 C 
ATOM     29  C   UNL     1      34.894 -17.544 -23.607  0.00  0.00    +0.010 C 
BRANCH  27  31
ATOM     30  N   UNL     1      36.163 -18.243 -20.418  0.00  0.00    -0.191 NA
ATOM     31  C   UNL     1      35.698 -17.647 -21.300  0.00  0.00    +0.100 C 
ENDBRANCH  27  31
ENDBRANCH  21  24
ENDBRANCH   4  22
TORSDOF 5
ENDMDL
