MODEL 1
REMARK VINA RESULT:     -12.5      0.000      0.000
REMARK  Name = 11610553
REMARK  5 active torsions:
REMARK  status: ('A' for Active; 'I' for Inactive)
REMARK    1  A    between atoms: C_1  and  C_9
REMARK    2  A    between atoms: C_4  and  O_19
REMARK    3  A    between atoms: C_10  and  C_14
REMARK    4  A    between atoms: O_19  and  C_20
REMARK    5  A    between atoms: C_20  and  C_22
REMARK                            x       y       z     vdW  Elec       q    Type
REMARK                         _______ _______ _______ _____ _____    ______ ____
ROOT
ATOM      1  C   UNL     1      33.297 -13.535 -22.270  0.00  0.00    +0.015 C 
ATOM      2  C   UNL     1      33.992 -14.065 -21.183  0.00  0.00    +0.004 C 
ATOM      3  C   UNL     1      33.385 -14.148 -23.520  0.00  0.00    +0.004 C 
ATOM      4  C   UNL     1      34.860 -15.812 -22.596  0.00  0.00    +0.139 C 
ATOM      5  C   UNL     1      34.776 -15.207 -21.347  0.00  0.00    +0.037 C 
ATOM      6  C   UNL     1      34.169 -15.289 -23.684  0.00  0.00    +0.037 C 
ENDROOT
BRANCH   1   9
ATOM      7  N   UNL     1      31.428 -12.316 -21.240  0.00  0.00    -0.236 N 
ATOM      8  N   UNL     1      30.791 -11.133 -21.214  0.00  0.00    -0.180 NA
ATOM      9  C   UNL     1      32.487 -12.354 -22.101  0.00  0.00    +0.067 C 
ATOM     10  C   UNL     1      32.545 -11.108 -22.678  0.00  0.00    +0.036 C 
ATOM     11  C   UNL     1      31.478 -10.400 -22.094  0.00  0.00    +0.119 C 
ATOM     12  H   UNL     1      31.158 -13.085 -20.689  0.00  0.00    +0.174 HD
BRANCH  10  14
ATOM     13  N   UNL     1      35.396  -9.892 -25.558  0.00  0.00    -0.242 NA
ATOM     14  C   UNL     1      33.510 -10.697 -23.652  0.00  0.00    +0.006 C 
ATOM     15  C   UNL     1      33.612 -11.369 -24.867  0.00  0.00    +0.021 C 
ATOM     16  C   UNL     1      34.355  -9.620 -23.393  0.00  0.00    +0.021 C 
ATOM     17  C   UNL     1      34.561 -10.933 -25.777  0.00  0.00    +0.099 C 
ATOM     18  C   UNL     1      35.272  -9.262 -24.369  0.00  0.00    +0.099 C 
ENDBRANCH  10  14
ENDBRANCH   1   9
BRANCH   4  19
ATOM     19  O   UNL     1      35.630 -16.934 -22.756  0.00  0.00    -0.468 OA
BRANCH  19  20
ATOM     20  C   UNL     1      34.940 -18.162 -22.951  0.00  0.00    +0.264 C 
BRANCH  20  22
ATOM     21  N   UNL     1      34.130 -19.714 -21.281  0.00  0.00    -0.406 NA
ATOM     22  C   UNL     1      35.200 -19.065 -21.792  0.00  0.00    +0.152 C 
ATOM     23  C   UNL     1      35.602 -20.732 -19.667  0.00  0.00    +0.026 C 
ATOM     24  C   UNL     1      34.325 -20.537 -20.233  0.00  0.00    +0.113 C 
ATOM     25  C   UNL     1      36.486 -19.192 -21.307  0.00  0.00    +0.031 C 
ATOM     26  C   UNL     1      36.684 -20.040 -20.227  0.00  0.00    +0.005 C 
ATOM     27  C   UNL     1      35.770 -21.598 -18.574  0.00  0.00    +0.002 C 
ATOM     28  C   UNL     1      33.251 -21.226 -19.676  0.00  0.00    +0.085 C 
ATOM     29  C   UNL     1      34.678 -22.274 -18.036  0.00  0.00    -0.004 C 
ATOM     30  C   UNL     1      33.417 -22.087 -18.588  0.00  0.00    -0.019 C 
ENDBRANCH  20  22
ENDBRANCH  19  20
ENDBRANCH   4  19
TORSDOF 5
ENDMDL
MODEL 2
REMARK VINA RESULT:     -11.7      5.246     12.548
REMARK  Name = 11610553
REMARK  5 active torsions:
REMARK  status: ('A' for Active; 'I' for Inactive)
REMARK    1  A    between atoms: C_1  and  C_9
REMARK    2  A    between atoms: C_4  and  O_19
REMARK    3  A    between atoms: C_10  and  C_14
REMARK    4  A    between atoms: O_19  and  C_20
REMARK    5  A    between atoms: C_20  and  C_22
REMARK                            x       y       z     vdW  Elec       q    Type
REMARK                         _______ _______ _______ _____ _____    ______ ____
ROOT
ATOM      1  C   UNL     1      36.107 -23.110 -14.833  0.00  0.00    +0.015 C 
ATOM      2  C   UNL     1      35.077 -23.094 -15.773  0.00  0.00    +0.004 C 
ATOM      3  C   UNL     1      37.320 -22.483 -15.115  0.00  0.00    +0.004 C 
ATOM      4  C   UNL     1      36.474 -21.828 -17.273  0.00  0.00    +0.139 C 
ATOM      5  C   UNL     1      35.262 -22.451 -16.998  0.00  0.00    +0.037 C 
ATOM      6  C   UNL     1      37.505 -21.840 -16.339  0.00  0.00    +0.037 C 
ENDROOT
BRANCH   1   9
ATOM      7  N   UNL     1      34.915 -23.427 -12.707  0.00  0.00    -0.236 N 
ATOM      8  N   UNL     1      34.891 -24.156 -11.578  0.00  0.00    -0.180 NA
ATOM      9  C   UNL     1      35.916 -23.775 -13.567  0.00  0.00    +0.067 C 
ATOM     10  C   UNL     1      36.594 -24.804 -12.957  0.00  0.00    +0.036 C 
ATOM     11  C   UNL     1      35.919 -24.995 -11.737  0.00  0.00    +0.119 C 
ATOM     12  H   UNL     1      34.270 -22.709 -12.897  0.00  0.00    +0.174 HD
BRANCH  10  14
ATOM     13  N   UNL     1      39.948 -26.805 -14.584  0.00  0.00    -0.242 NA
ATOM     14  C   UNL     1      37.728 -25.481 -13.507  0.00  0.00    +0.006 C 
ATOM     15  C   UNL     1      37.559 -26.443 -14.500  0.00  0.00    +0.021 C 
ATOM     16  C   UNL     1      39.012 -25.183 -13.055  0.00  0.00    +0.021 C 
ATOM     17  C   UNL     1      38.688 -27.070 -15.000  0.00  0.00    +0.099 C 
ATOM     18  C   UNL     1      40.076 -25.867 -13.620  0.00  0.00    +0.099 C 
ENDBRANCH  10  14
ENDBRANCH   1   9
BRANCH   4  19
ATOM     19  O   UNL     1      36.655 -21.197 -18.475  0.00  0.00    -0.468 OA
BRANCH  19  20
ATOM     20  C   UNL     1      35.651 -21.396 -19.461  0.00  0.00    +0.264 C 
BRANCH  20  22
ATOM     21  N   UNL     1      34.800 -20.323 -21.457  0.00  0.00    -0.406 NA
ATOM     22  C   UNL     1      35.648 -20.241 -20.406  0.00  0.00    +0.152 C 
ATOM     23  C   UNL     1      35.593 -18.164 -22.178  0.00  0.00    +0.026 C 
ATOM     24  C   UNL     1      34.771 -19.300 -22.332  0.00  0.00    +0.113 C 
ATOM     25  C   UNL     1      36.489 -19.172 -20.172  0.00  0.00    +0.031 C 
ATOM     26  C   UNL     1      36.457 -18.120 -21.075  0.00  0.00    +0.005 C 
ATOM     27  C   UNL     1      35.536 -17.114 -23.110  0.00  0.00    +0.002 C 
ATOM     28  C   UNL     1      33.912 -19.342 -23.428  0.00  0.00    +0.085 C 
ATOM     29  C   UNL     1      34.669 -17.184 -24.197  0.00  0.00    -0.004 C 
ATOM     30  C   UNL     1      33.856 -18.299 -24.355  0.00  0.00    -0.019 C 
ENDBRANCH  20  22
ENDBRANCH  19  20
ENDBRANCH   4  19
TORSDOF 5
ENDMDL
MODEL 3
REMARK VINA RESULT:     -11.5      3.606     11.161
REMARK  Name = 11610553
REMARK  5 active torsions:
REMARK  status: ('A' for Active; 'I' for Inactive)
REMARK    1  A    between atoms: C_1  and  C_9
REMARK    2  A    between atoms: C_4  and  O_19
REMARK    3  A    between atoms: C_10  and  C_14
REMARK    4  A    between atoms: O_19  and  C_20
REMARK    5  A    between atoms: C_20  and  C_22
REMARK                            x       y       z     vdW  Elec       q    Type
REMARK                         _______ _______ _______ _____ _____    ______ ____
ROOT
ATOM      1  C   UNL     1      33.825 -22.582 -17.268  0.00  0.00    +0.015 C 
ATOM      2  C   UNL     1      35.216 -22.482 -17.289  0.00  0.00    +0.004 C 
ATOM      3  C   UNL     1      33.072 -22.071 -18.325  0.00  0.00    +0.004 C 
ATOM      4  C   UNL     1      35.097 -21.362 -19.418  0.00  0.00    +0.139 C 
ATOM      5  C   UNL     1      35.854 -21.870 -18.368  0.00  0.00    +0.037 C 
ATOM      6  C   UNL     1      33.709 -21.458 -19.403  0.00  0.00    +0.037 C 
ENDROOT
BRANCH   1   9
ATOM      7  N   UNL     1      31.806 -23.273 -16.050  0.00  0.00    -0.236 N 
ATOM      8  N   UNL     1      31.370 -23.901 -14.944  0.00  0.00    -0.180 NA
ATOM      9  C   UNL     1      33.165 -23.215 -16.152  0.00  0.00    +0.067 C 
ATOM     10  C   UNL     1      33.653 -23.850 -15.034  0.00  0.00    +0.036 C 
ATOM     11  C   UNL     1      32.503 -24.251 -14.328  0.00  0.00    +0.119 C 
ATOM     12  H   UNL     1      31.200 -22.890 -16.724  0.00  0.00    +0.174 HD
BRANCH  10  14
ATOM     13  N   UNL     1      37.752 -24.367 -14.123  0.00  0.00    -0.242 NA
ATOM     14  C   UNL     1      35.040 -24.024 -14.727  0.00  0.00    +0.006 C 
ATOM     15  C   UNL     1      35.791 -22.957 -14.243  0.00  0.00    +0.021 C 
ATOM     16  C   UNL     1      35.648 -25.264 -14.907  0.00  0.00    +0.021 C 
ATOM     17  C   UNL     1      37.129 -23.177 -13.960  0.00  0.00    +0.099 C 
ATOM     18  C   UNL     1      36.993 -25.381 -14.594  0.00  0.00    +0.099 C 
ENDBRANCH  10  14
ENDBRANCH   1   9
BRANCH   4  19
ATOM     19  O   UNL     1      35.723 -20.760 -20.477  0.00  0.00    -0.468 OA
BRANCH  19  20
ATOM     20  C   UNL     1      36.460 -19.576 -20.199  0.00  0.00    +0.264 C 
BRANCH  20  22
ATOM     21  N   UNL     1      35.517 -17.354 -20.376  0.00  0.00    -0.406 NA
ATOM     22  C   UNL     1      35.935 -18.458 -21.036  0.00  0.00    +0.152 C 
ATOM     23  C   UNL     1      34.960 -16.374 -22.505  0.00  0.00    +0.026 C 
ATOM     24  C   UNL     1      35.035 -16.324 -21.097  0.00  0.00    +0.113 C 
ATOM     25  C   UNL     1      35.900 -18.598 -22.409  0.00  0.00    +0.031 C 
ATOM     26  C   UNL     1      35.403 -17.536 -23.150  0.00  0.00    +0.005 C 
ATOM     27  C   UNL     1      34.451 -15.280 -23.227  0.00  0.00    +0.002 C 
ATOM     28  C   UNL     1      34.595 -15.169 -20.459  0.00  0.00    +0.085 C 
ATOM     29  C   UNL     1      34.017 -14.137 -22.563  0.00  0.00    -0.004 C 
ATOM     30  C   UNL     1      34.089 -14.082 -21.176  0.00  0.00    -0.019 C 
ENDBRANCH  20  22
ENDBRANCH  19  20
ENDBRANCH   4  19
TORSDOF 5
ENDMDL
MODEL 4
REMARK VINA RESULT:     -11.4      3.847     11.442
REMARK  Name = 11610553
REMARK  5 active torsions:
REMARK  status: ('A' for Active; 'I' for Inactive)
REMARK    1  A    between atoms: C_1  and  C_9
REMARK    2  A    between atoms: C_4  and  O_19
REMARK    3  A    between atoms: C_10  and  C_14
REMARK    4  A    between atoms: O_19  and  C_20
REMARK    5  A    between atoms: C_20  and  C_22
REMARK                            x       y       z     vdW  Elec       q    Type
REMARK                         _______ _______ _______ _____ _____    ______ ____
ROOT
ATOM      1  C   UNL     1      33.855 -22.783 -16.889  0.00  0.00    +0.015 C 
ATOM      2  C   UNL     1      33.088 -22.444 -18.003  0.00  0.00    +0.004 C 
ATOM      3  C   UNL     1      35.233 -22.564 -16.898  0.00  0.00    +0.004 C 
ATOM      4  C   UNL     1      35.072 -21.672 -19.129  0.00  0.00    +0.139 C 
ATOM      5  C   UNL     1      33.699 -21.887 -19.127  0.00  0.00    +0.037 C 
ATOM      6  C   UNL     1      35.844 -22.008 -18.021  0.00  0.00    +0.037 C 
ENDROOT
BRANCH   1   9
ATOM      7  N   UNL     1      31.870 -23.344 -15.553  0.00  0.00    -0.236 N 
ATOM      8  N   UNL     1      31.462 -23.927 -14.414  0.00  0.00    -0.180 NA
ATOM      9  C   UNL     1      33.224 -23.359 -15.727  0.00  0.00    +0.067 C 
ATOM     10  C   UNL     1      33.736 -23.998 -14.623  0.00  0.00    +0.036 C 
ATOM     11  C   UNL     1      32.606 -24.324 -13.850  0.00  0.00    +0.119 C 
ATOM     12  H   UNL     1      31.250 -22.943 -16.204  0.00  0.00    +0.174 HD
BRANCH  10  14
ATOM     13  N   UNL     1      37.845 -24.712 -13.914  0.00  0.00    -0.242 NA
ATOM     14  C   UNL     1      35.127 -24.239 -14.384  0.00  0.00    +0.006 C 
ATOM     15  C   UNL     1      35.913 -23.266 -13.772  0.00  0.00    +0.021 C 
ATOM     16  C   UNL     1      35.704 -25.450 -14.759  0.00  0.00    +0.021 C 
ATOM     17  C   UNL     1      37.253 -23.548 -13.562  0.00  0.00    +0.099 C 
ATOM     18  C   UNL     1      37.054 -25.634 -14.506  0.00  0.00    +0.099 C 
ENDBRANCH  10  14
ENDBRANCH   1   9
BRANCH   4  19
ATOM     19  O   UNL     1      35.672 -21.125 -20.232  0.00  0.00    -0.468 OA
BRANCH  19  20
ATOM     20  C   UNL     1      36.066 -19.763 -20.138  0.00  0.00    +0.264 C 
BRANCH  20  22
ATOM     21  N   UNL     1      35.472 -17.670 -21.198  0.00  0.00    -0.406 NA
ATOM     22  C   UNL     1      35.551 -19.014 -21.321  0.00  0.00    +0.152 C 
ATOM     23  C   UNL     1      34.611 -17.581 -23.447  0.00  0.00    +0.026 C 
ATOM     24  C   UNL     1      35.009 -16.960 -22.244  0.00  0.00    +0.113 C 
ATOM     25  C   UNL     1      35.184 -19.710 -22.456  0.00  0.00    +0.031 C 
ATOM     26  C   UNL     1      34.708 -18.976 -23.532  0.00  0.00    +0.005 C 
ATOM     27  C   UNL     1      34.132 -16.810 -24.519  0.00  0.00    +0.002 C 
ATOM     28  C   UNL     1      34.913 -15.574 -22.161  0.00  0.00    +0.085 C 
ATOM     29  C   UNL     1      34.046 -15.425 -24.408  0.00  0.00    -0.004 C 
ATOM     30  C   UNL     1      34.437 -14.806 -23.227  0.00  0.00    -0.019 C 
ENDBRANCH  20  22
ENDBRANCH  19  20
ENDBRANCH   4  19
TORSDOF 5
ENDMDL
MODEL 5
REMARK VINA RESULT:     -11.4      6.560     12.992
REMARK  Name = 11610553
REMARK  5 active torsions:
REMARK  status: ('A' for Active; 'I' for Inactive)
REMARK    1  A    between atoms: C_1  and  C_9
REMARK    2  A    between atoms: C_4  and  O_19
REMARK    3  A    between atoms: C_10  and  C_14
REMARK    4  A    between atoms: O_19  and  C_20
REMARK    5  A    between atoms: C_20  and  C_22
REMARK                            x       y       z     vdW  Elec       q    Type
REMARK                         _______ _______ _______ _____ _____    ______ ____
ROOT
ATOM      1  C   UNL     1      35.890 -23.501 -13.669  0.00  0.00    +0.015 C 
ATOM      2  C   UNL     1      34.586 -23.992 -13.597  0.00  0.00    +0.004 C 
ATOM      3  C   UNL     1      36.334 -22.868 -14.830  0.00  0.00    +0.004 C 
ATOM      4  C   UNL     1      34.176 -23.218 -15.840  0.00  0.00    +0.139 C 
ATOM      5  C   UNL     1      33.727 -23.849 -14.687  0.00  0.00    +0.037 C 
ATOM      6  C   UNL     1      35.475 -22.726 -15.919  0.00  0.00    +0.037 C 
ENDROOT
BRANCH   1   9
ATOM      7  N   UNL     1      36.625 -22.925 -11.397  0.00  0.00    -0.236 N 
ATOM      8  N   UNL     1      37.546 -23.196 -10.456  0.00  0.00    -0.180 NA
ATOM      9  C   UNL     1      36.779 -23.649 -12.543  0.00  0.00    +0.067 C 
ATOM     10  C   UNL     1      37.877 -24.450 -12.337  0.00  0.00    +0.036 C 
ATOM     11  C   UNL     1      38.307 -24.127 -11.035  0.00  0.00    +0.119 C 
ATOM     12  H   UNL     1      35.906 -22.265 -11.271  0.00  0.00    +0.174 HD
BRANCH  10  14
ATOM     13  N   UNL     1      39.441 -27.205 -15.140  0.00  0.00    -0.242 NA
ATOM     14  C   UNL     1      38.406 -25.381 -13.286  0.00  0.00    +0.006 C 
ATOM     15  C   UNL     1      39.762 -25.369 -13.600  0.00  0.00    +0.021 C 
ATOM     16  C   UNL     1      37.569 -26.309 -13.901  0.00  0.00    +0.021 C 
ATOM     17  C   UNL     1      40.225 -26.292 -14.524  0.00  0.00    +0.099 C 
ATOM     18  C   UNL     1      38.130 -27.189 -14.812  0.00  0.00    +0.099 C 
ENDBRANCH  10  14
ENDBRANCH   1   9
BRANCH   4  19
ATOM     19  O   UNL     1      33.332 -23.078 -16.910  0.00  0.00    -0.468 OA
BRANCH  19  20
ATOM     20  C   UNL     1      33.847 -23.439 -18.185  0.00  0.00    +0.264 C 
BRANCH  20  22
ATOM     21  N   UNL     1      35.367 -21.807 -19.126  0.00  0.00    -0.406 NA
ATOM     22  C   UNL     1      34.081 -22.206 -18.992  0.00  0.00    +0.152 C 
ATOM     23  C   UNL     1      34.583 -19.954 -20.453  0.00  0.00    +0.026 C 
ATOM     24  C   UNL     1      35.618 -20.697 -19.846  0.00  0.00    +0.113 C 
ATOM     25  C   UNL     1      33.005 -21.545 -19.548  0.00  0.00    +0.031 C 
ATOM     26  C   UNL     1      33.266 -20.402 -20.290  0.00  0.00    +0.005 C 
ATOM     27  C   UNL     1      34.881 -18.801 -21.198  0.00  0.00    +0.002 C 
ATOM     28  C   UNL     1      36.926 -20.251 -20.010  0.00  0.00    +0.085 C 
ATOM     29  C   UNL     1      36.199 -18.377 -21.345  0.00  0.00    -0.004 C 
ATOM     30  C   UNL     1      37.222 -19.104 -20.750  0.00  0.00    -0.019 C 
ENDBRANCH  20  22
ENDBRANCH  19  20
ENDBRANCH   4  19
TORSDOF 5
ENDMDL
MODEL 6
REMARK VINA RESULT:     -11.3      3.289      5.437
REMARK  Name = 11610553
REMARK  5 active torsions:
REMARK  status: ('A' for Active; 'I' for Inactive)
REMARK    1  A    between atoms: C_1  and  C_9
REMARK    2  A    between atoms: C_4  and  O_19
REMARK    3  A    between atoms: C_10  and  C_14
REMARK    4  A    between atoms: O_19  and  C_20
REMARK    5  A    between atoms: C_20  and  C_22
REMARK                            x       y       z     vdW  Elec       q    Type
REMARK                         _______ _______ _______ _____ _____    ______ ____
ROOT
ATOM      1  C   UNL     1      33.188  -8.495 -22.810  0.00  0.00    +0.015 C 
ATOM      2  C   UNL     1      32.352  -9.601 -22.660  0.00  0.00    +0.004 C 
ATOM      3  C   UNL     1      34.370  -8.608 -23.542  0.00  0.00    +0.004 C 
ATOM      4  C   UNL     1      33.878 -10.926 -23.969  0.00  0.00    +0.139 C 
ATOM      5  C   UNL     1      32.698 -10.821 -23.242  0.00  0.00    +0.037 C 
ATOM      6  C   UNL     1      34.716  -9.827 -24.123  0.00  0.00    +0.037 C 
ENDROOT
BRANCH   1   9
ATOM      7  N   UNL     1      32.402  -7.142 -20.915  0.00  0.00    -0.236 N 
ATOM      8  N   UNL     1      32.114  -5.888 -20.526  0.00  0.00    -0.180 NA
ATOM      9  C   UNL     1      32.830  -7.234 -22.208  0.00  0.00    +0.067 C 
ATOM     10  C   UNL     1      32.821  -5.950 -22.698  0.00  0.00    +0.036 C 
ATOM     11  C   UNL     1      32.372  -5.165 -21.619  0.00  0.00    +0.119 C 
ATOM     12  H   UNL     1      32.314  -7.922 -20.322  0.00  0.00    +0.174 HD
BRANCH  10  14
ATOM     13  N   UNL     1      33.938  -4.842 -26.625  0.00  0.00    -0.242 NA
ATOM     14  C   UNL     1      33.199  -5.574 -24.026  0.00  0.00    +0.006 C 
ATOM     15  C   UNL     1      34.544  -5.486 -24.375  0.00  0.00    +0.021 C 
ATOM     16  C   UNL     1      32.225  -5.296 -24.982  0.00  0.00    +0.021 C 
ATOM     17  C   UNL     1      34.858  -5.119 -25.673  0.00  0.00    +0.099 C 
ATOM     18  C   UNL     1      32.642  -4.937 -26.253  0.00  0.00    +0.099 C 
ENDBRANCH  10  14
ENDBRANCH   1   9
BRANCH   4  19
ATOM     19  O   UNL     1      34.218 -12.124 -24.541  0.00  0.00    -0.468 OA
BRANCH  19  20
ATOM     20  C   UNL     1      33.226 -13.142 -24.534  0.00  0.00    +0.264 C 
BRANCH  20  22
ATOM     21  N   UNL     1      33.605 -15.532 -24.586  0.00  0.00    -0.406 NA
ATOM     22  C   UNL     1      33.786 -14.376 -23.908  0.00  0.00    +0.152 C 
ATOM     23  C   UNL     1      34.781 -16.673 -22.819  0.00  0.00    +0.026 C 
ATOM     24  C   UNL     1      34.095 -16.667 -24.052  0.00  0.00    +0.113 C 
ATOM     25  C   UNL     1      34.442 -14.283 -22.698  0.00  0.00    +0.031 C 
ATOM     26  C   UNL     1      34.945 -15.454 -22.149  0.00  0.00    +0.005 C 
ATOM     27  C   UNL     1      35.279 -17.876 -22.290  0.00  0.00    +0.002 C 
ATOM     28  C   UNL     1      33.933 -17.879 -24.717  0.00  0.00    +0.085 C 
ATOM     29  C   UNL     1      35.101 -19.074 -22.976  0.00  0.00    -0.004 C 
ATOM     30  C   UNL     1      34.427 -19.075 -24.191  0.00  0.00    -0.019 C 
ENDBRANCH  20  22
ENDBRANCH  19  20
ENDBRANCH   4  19
TORSDOF 5
ENDMDL
MODEL 7
REMARK VINA RESULT:     -11.2      5.071     11.463
REMARK  Name = 11610553
REMARK  5 active torsions:
REMARK  status: ('A' for Active; 'I' for Inactive)
REMARK    1  A    between atoms: C_1  and  C_9
REMARK    2  A    between atoms: C_4  and  O_19
REMARK    3  A    between atoms: C_10  and  C_14
REMARK    4  A    between atoms: O_19  and  C_20
REMARK    5  A    between atoms: C_20  and  C_22
REMARK                            x       y       z     vdW  Elec       q    Type
REMARK                         _______ _______ _______ _____ _____    ______ ____
ROOT
ATOM      1  C   UNL     1      33.124 -23.262 -15.887  0.00  0.00    +0.015 C 
ATOM      2  C   UNL     1      34.479 -23.138 -16.191  0.00  0.00    +0.004 C 
ATOM      3  C   UNL     1      32.161 -22.852 -16.809  0.00  0.00    +0.004 C 
ATOM      4  C   UNL     1      33.906 -22.196 -18.332  0.00  0.00    +0.139 C 
ATOM      5  C   UNL     1      34.871 -22.603 -17.419  0.00  0.00    +0.037 C 
ATOM      6  C   UNL     1      32.552 -22.317 -18.035  0.00  0.00    +0.037 C 
ENDROOT
BRANCH   1   9
ATOM      7  N   UNL     1      33.622 -24.177 -13.661  0.00  0.00    -0.236 N 
ATOM      8  N   UNL     1      33.062 -24.672 -12.544  0.00  0.00    -0.180 NA
ATOM      9  C   UNL     1      32.718 -23.815 -14.618  0.00  0.00    +0.067 C 
ATOM     10  C   UNL     1      31.480 -24.095 -14.089  0.00  0.00    +0.036 C 
ATOM     11  C   UNL     1      31.754 -24.620 -12.812  0.00  0.00    +0.119 C 
ATOM     12  H   UNL     1      34.594 -24.082 -13.778  0.00  0.00    +0.174 HD
BRANCH  10  14
ATOM     13  N   UNL     1      27.791 -23.439 -16.053  0.00  0.00    -0.242 NA
ATOM     14  C   UNL     1      30.233 -23.873 -14.754  0.00  0.00    +0.006 C 
ATOM     15  C   UNL     1      29.678 -24.867 -15.556  0.00  0.00    +0.021 C 
ATOM     16  C   UNL     1      29.562 -22.661 -14.604  0.00  0.00    +0.021 C 
ATOM     17  C   UNL     1      28.468 -24.603 -16.178  0.00  0.00    +0.099 C 
ATOM     18  C   UNL     1      28.358 -22.496 -15.268  0.00  0.00    +0.099 C 
ENDBRANCH  10  14
ENDBRANCH   1   9
BRANCH   4  19
ATOM     19  O   UNL     1      34.291 -21.670 -19.537  0.00  0.00    -0.468 OA
BRANCH  19  20
ATOM     20  C   UNL     1      35.578 -21.069 -19.593  0.00  0.00    +0.264 C 
BRANCH  20  22
ATOM     21  N   UNL     1      34.727 -20.073 -21.628  0.00  0.00    -0.406 NA
ATOM     22  C   UNL     1      35.556 -19.940 -20.568  0.00  0.00    +0.152 C 
ATOM     23  C   UNL     1      35.470 -17.913 -22.395  0.00  0.00    +0.026 C 
ATOM     24  C   UNL     1      34.682 -19.075 -22.531  0.00  0.00    +0.113 C 
ATOM     25  C   UNL     1      36.364 -18.842 -20.351  0.00  0.00    +0.031 C 
ATOM     26  C   UNL     1      36.315 -17.815 -21.282  0.00  0.00    +0.005 C 
ATOM     27  C   UNL     1      35.397 -16.890 -23.356  0.00  0.00    +0.002 C 
ATOM     28  C   UNL     1      33.841 -19.171 -23.637  0.00  0.00    +0.085 C 
ATOM     29  C   UNL     1      34.549 -17.012 -24.453  0.00  0.00    -0.004 C 
ATOM     30  C   UNL     1      33.770 -18.154 -24.593  0.00  0.00    -0.019 C 
ENDBRANCH  20  22
ENDBRANCH  19  20
ENDBRANCH   4  19
TORSDOF 5
ENDMDL
MODEL 8
REMARK VINA RESULT:     -11.2      5.055     12.016
REMARK  Name = 11610553
REMARK  5 active torsions:
REMARK  status: ('A' for Active; 'I' for Inactive)
REMARK    1  A    between atoms: C_1  and  C_9
REMARK    2  A    between atoms: C_4  and  O_19
REMARK    3  A    between atoms: C_10  and  C_14
REMARK    4  A    between atoms: O_19  and  C_20
REMARK    5  A    between atoms: C_20  and  C_22
REMARK                            x       y       z     vdW  Elec       q    Type
REMARK                         _______ _______ _______ _____ _____    ______ ____
ROOT
ATOM      1  C   UNL     1      34.523 -23.146 -15.672  0.00  0.00    +0.015 C 
ATOM      2  C   UNL     1      35.755 -22.578 -15.998  0.00  0.00    +0.004 C 
ATOM      3  C   UNL     1      33.516 -23.229 -16.633  0.00  0.00    +0.004 C 
ATOM      4  C   UNL     1      34.970 -22.179 -18.240  0.00  0.00    +0.139 C 
ATOM      5  C   UNL     1      35.979 -22.093 -17.287  0.00  0.00    +0.037 C 
ATOM      6  C   UNL     1      33.740 -22.744 -17.921  0.00  0.00    +0.037 C 
ENDROOT
BRANCH   1   9
ATOM      7  N   UNL     1      33.171 -23.329 -13.628  0.00  0.00    -0.236 N 
ATOM      8  N   UNL     1      33.126 -23.888 -12.407  0.00  0.00    -0.180 NA
ATOM      9  C   UNL     1      34.292 -23.647 -14.339  0.00  0.00    +0.067 C 
ATOM     10  C   UNL     1      35.031 -24.471 -13.524  0.00  0.00    +0.036 C 
ATOM     11  C   UNL     1      34.264 -24.584 -12.349  0.00  0.00    +0.119 C 
ATOM     12  H   UNL     1      32.461 -22.746 -13.979  0.00  0.00    +0.174 HD
BRANCH  10  14
ATOM     13  N   UNL     1      38.767 -26.179 -14.537  0.00  0.00    -0.242 NA
ATOM     14  C   UNL     1      36.295 -25.048 -13.868  0.00  0.00    +0.006 C 
ATOM     15  C   UNL     1      37.478 -24.457 -13.432  0.00  0.00    +0.021 C 
ATOM     16  C   UNL     1      36.352 -26.207 -14.639  0.00  0.00    +0.021 C 
ATOM     17  C   UNL     1      38.676 -25.055 -13.790  0.00  0.00    +0.099 C 
ATOM     18  C   UNL     1      37.600 -26.726 -14.943  0.00  0.00    +0.099 C 
ENDBRANCH  10  14
ENDBRANCH   1   9
BRANCH   4  19
ATOM     19  O   UNL     1      35.190 -21.702 -19.505  0.00  0.00    -0.468 OA
BRANCH  19  20
ATOM     20  C   UNL     1      36.337 -20.884 -19.692  0.00  0.00    +0.264 C 
BRANCH  20  22
ATOM     21  N   UNL     1      35.184 -20.093 -21.667  0.00  0.00    -0.406 NA
ATOM     22  C   UNL     1      36.010 -19.781 -20.643  0.00  0.00    +0.152 C 
ATOM     23  C   UNL     1      35.374 -17.813 -22.425  0.00  0.00    +0.026 C 
ATOM     24  C   UNL     1      34.868 -19.125 -22.548  0.00  0.00    +0.113 C 
ATOM     25  C   UNL     1      36.554 -18.529 -20.441  0.00  0.00    +0.031 C 
ATOM     26  C   UNL     1      36.227 -17.533 -21.350  0.00  0.00    +0.005 C 
ATOM     27  C   UNL     1      35.023 -16.827 -23.362  0.00  0.00    +0.002 C 
ATOM     28  C   UNL     1      34.019 -19.401 -23.616  0.00  0.00    +0.085 C 
ATOM     29  C   UNL     1      34.173 -17.132 -24.422  0.00  0.00    -0.004 C 
ATOM     30  C   UNL     1      33.671 -18.421 -24.548  0.00  0.00    -0.019 C 
ENDBRANCH  20  22
ENDBRANCH  19  20
ENDBRANCH   4  19
TORSDOF 5
ENDMDL
MODEL 9
REMARK VINA RESULT:     -11.1      4.989     11.589
REMARK  Name = 11610553
REMARK  5 active torsions:
REMARK  status: ('A' for Active; 'I' for Inactive)
REMARK    1  A    between atoms: C_1  and  C_9
REMARK    2  A    between atoms: C_4  and  O_19
REMARK    3  A    between atoms: C_10  and  C_14
REMARK    4  A    between atoms: O_19  and  C_20
REMARK    5  A    between atoms: C_20  and  C_22
REMARK                            x       y       z     vdW  Elec       q    Type
REMARK                         _______ _______ _______ _____ _____    ______ ____
ROOT
ATOM      1  C   UNL     1      33.669 -23.247 -15.810  0.00  0.00    +0.015 C 
ATOM      2  C   UNL     1      32.647 -23.093 -16.747  0.00  0.00    +0.004 C 
ATOM      3  C   UNL     1      34.972 -22.865 -16.129  0.00  0.00    +0.004 C 
ATOM      4  C   UNL     1      34.231 -22.179 -18.315  0.00  0.00    +0.139 C 
ATOM      5  C   UNL     1      32.930 -22.557 -18.004  0.00  0.00    +0.037 C 
ATOM      6  C   UNL     1      35.254 -22.330 -17.385  0.00  0.00    +0.037 C 
ENDROOT
BRANCH   1   9
ATOM      7  N   UNL     1      34.360 -24.105 -13.614  0.00  0.00    -0.236 N 
ATOM      8  N   UNL     1      33.902 -24.612 -12.457  0.00  0.00    -0.180 NA
ATOM      9  C   UNL     1      33.378 -23.801 -14.511  0.00  0.00    +0.067 C 
ATOM     10  C   UNL     1      32.194 -24.133 -13.897  0.00  0.00    +0.036 C 
ATOM     11  C   UNL     1      32.578 -24.626 -12.635  0.00  0.00    +0.119 C 
ATOM     12  H   UNL     1      35.317 -23.965 -13.798  0.00  0.00    +0.174 HD
BRANCH  10  14
ATOM     13  N   UNL     1      28.355 -23.681 -15.617  0.00  0.00    -0.242 NA
ATOM     14  C   UNL     1      30.895 -23.981 -14.478  0.00  0.00    +0.006 C 
ATOM     15  C   UNL     1      30.237 -22.755 -14.415  0.00  0.00    +0.021 C 
ATOM     16  C   UNL     1      30.278 -25.056 -15.113  0.00  0.00    +0.021 C 
ATOM     17  C   UNL     1      28.982 -22.658 -14.993  0.00  0.00    +0.099 C 
ATOM     18  C   UNL     1      29.021 -24.856 -15.660  0.00  0.00    +0.099 C 
ENDBRANCH  10  14
ENDBRANCH   1   9
BRANCH   4  19
ATOM     19  O   UNL     1      34.508 -21.653 -19.549  0.00  0.00    -0.468 OA
BRANCH  19  20
ATOM     20  C   UNL     1      35.777 -21.034 -19.712  0.00  0.00    +0.264 C 
BRANCH  20  22
ATOM     21  N   UNL     1      34.876 -20.054 -21.733  0.00  0.00    -0.406 NA
ATOM     22  C   UNL     1      35.647 -19.871 -20.637  0.00  0.00    +0.152 C 
ATOM     23  C   UNL     1      35.367 -17.784 -22.377  0.00  0.00    +0.026 C 
ATOM     24  C   UNL     1      34.736 -19.027 -22.593  0.00  0.00    +0.113 C 
ATOM     25  C   UNL     1      36.303 -18.693 -20.342  0.00  0.00    +0.031 C 
ATOM     26  C   UNL     1      36.158 -17.637 -21.229  0.00  0.00    +0.005 C 
ATOM     27  C   UNL     1      35.200 -16.734 -23.295  0.00  0.00    +0.002 C 
ATOM     28  C   UNL     1      33.951 -19.172 -23.733  0.00  0.00    +0.085 C 
ATOM     29  C   UNL     1      34.409 -16.907 -24.427  0.00  0.00    -0.004 C 
ATOM     30  C   UNL     1      33.784 -18.128 -24.646  0.00  0.00    -0.019 C 
ENDBRANCH  20  22
ENDBRANCH  19  20
ENDBRANCH   4  19
TORSDOF 5
ENDMDL
