MODEL 1
REMARK VINA RESULT:     -12.0      0.000      0.000
REMARK  Name = 446560
REMARK  8 active torsions:
REMARK  status: ('A' for Active; 'I' for Inactive)
REMARK    1  A    between atoms: C_1  and  C_19
REMARK    2  A    between atoms: C_2  and  C_9
REMARK    3  A    between atoms: N_8  and  CA_11
REMARK    4  A    between atoms: CA_11  and  CB_12
REMARK    5  A    between atoms: CA_11  and  C_16
REMARK    6  A    between atoms: C_16  and  O_17
REMARK    7  A    between atoms: C_19  and  C_20
REMARK    8  A    between atoms: C_20  and  C_26
REMARK                            x       y       z     vdW  Elec       q    Type
REMARK                         _______ _______ _______ _____ _____    ______ ____
ROOT
ATOM      1  C   UNL     1      35.119 -20.300 -20.275  0.00  0.00    -0.022 C 
ATOM      2  C   UNL     1      33.822 -22.082 -18.614  0.00  0.00    +0.053 C 
ATOM      3  C   UNL     1      33.724 -20.346 -20.253  0.00  0.00    -0.004 C 
ATOM      4  C   UNL     1      35.857 -21.156 -19.457  0.00  0.00    -0.004 C 
ATOM      5  C   UNL     1      33.069 -21.246 -19.414  0.00  0.00    +0.004 C 
ATOM      6  C   UNL     1      35.201 -22.056 -18.618  0.00  0.00    +0.004 C 
ENDROOT
BRANCH   2   9
ATOM      7  O   UNL     1      33.477 -24.217 -17.710  0.00  0.00    -0.270 OA
ATOM      8  N   UNL     1      32.121 -22.506 -16.927  0.00  0.00    -0.293 N 
ATOM      9  C   ACE A   0      33.125 -23.040 -17.719  0.00  0.00    +0.246 C 
ATOM     10  H   UNL     1      31.913 -21.548 -17.008  0.00  0.00    +0.150 HD
BRANCH   8  11
ATOM     11  CA  UNL     1      31.368 -23.306 -15.988  0.00  0.00    +0.171 C 
BRANCH  11  12
ATOM     12  CB  UNL     1      31.794 -22.970 -14.542  0.00  0.00    +0.029 C 
ATOM     13  CG1 UNL     1      33.203 -23.479 -14.220  0.00  0.00    +0.002 C 
ATOM     14  CG2 UNL     1      30.799 -23.466 -13.488  0.00  0.00    +0.002 C 
ENDBRANCH  11  12
BRANCH  11  16
ATOM     15  OXT UNL     1      29.313 -22.127 -16.520  0.00  0.00    -0.248 OA
ATOM     16  C   UNL     1      29.870 -23.184 -16.248  0.00  0.00    +0.332 C 
BRANCH  16  17
ATOM     17  O   UNL     1      29.176 -24.340 -16.103  0.00  0.00    -0.479 OA
ATOM     18  H   UNL     1      28.383 -24.473 -16.585  0.00  0.00    +0.295 HD
ENDBRANCH  16  17
ENDBRANCH  11  16
ENDBRANCH   8  11
ENDBRANCH   2   9
BRANCH   1  19
ATOM     19  C   UNL     1      35.818 -19.337 -21.174  0.00  0.00    +0.031 C 
BRANCH  19  20
ATOM     20  C   UNL     1      35.458 -17.859 -20.918  0.00  0.00    +0.033 C 
BRANCH  20  26
ATOM     21  O   UNL     1      34.700 -14.890 -20.071  0.00  0.00    -0.209 OA
ATOM     22  N   UNL     1      34.706 -16.647 -24.298  0.00  0.00    -0.300 N 
ATOM     23  N   UNL     1      34.072 -14.337 -24.036  0.00  0.00    -0.264 N 
ATOM     24  N   UNL     1      34.091 -13.481 -21.798  0.00  0.00    -0.302 NA
ATOM     25  N   UNL     1      33.487 -12.139 -23.639  0.00  0.00    -0.320 N 
ATOM     26  C   UNL     1      35.093 -17.109 -22.167  0.00  0.00    +0.007 C 
ATOM     27  C   UNL     1      34.698 -15.769 -22.242  0.00  0.00    +0.120 C 
ATOM     28  C   UNL     1      34.470 -15.527 -23.570  0.00  0.00    +0.115 C 
ATOM     29  C   UNL     1      35.097 -17.642 -23.429  0.00  0.00    +0.059 C 
ATOM     30  C   UNL     1      34.506 -14.705 -21.268  0.00  0.00    +0.209 C 
ATOM     31  C   UNL     1      33.894 -13.330 -23.093  0.00  0.00    +0.248 C 
ATOM     32  H   UNL     1      34.615 -16.735 -25.275  0.00  0.00    +0.153 HD
ATOM     33  H   UNL     1      33.913 -14.182 -24.995  0.00  0.00    +0.157 HD
ATOM     34  H   UNL     1      33.350 -12.063 -24.610  0.00  0.00    +0.146 HD
ATOM     35  H   UNL     1      33.332 -11.359 -23.058  0.00  0.00    +0.146 HD
ENDBRANCH  20  26
ENDBRANCH  19  20
ENDBRANCH   1  19
TORSDOF 8
ENDMDL
MODEL 2
REMARK VINA RESULT:     -11.8      2.893     10.586
REMARK  Name = 446560
REMARK  8 active torsions:
REMARK  status: ('A' for Active; 'I' for Inactive)
REMARK    1  A    between atoms: C_1  and  C_19
REMARK    2  A    between atoms: C_2  and  C_9
REMARK    3  A    between atoms: N_8  and  CA_11
REMARK    4  A    between atoms: CA_11  and  CB_12
REMARK    5  A    between atoms: CA_11  and  C_16
REMARK    6  A    between atoms: C_16  and  O_17
REMARK    7  A    between atoms: C_19  and  C_20
REMARK    8  A    between atoms: C_20  and  C_26
REMARK                            x       y       z     vdW  Elec       q    Type
REMARK                         _______ _______ _______ _____ _____    ______ ____
ROOT
ATOM      1  C   UNL     1      35.286 -17.298 -22.565  0.00  0.00    -0.022 C 
ATOM      2  C   UNL     1      34.251 -14.957 -23.597  0.00  0.00    +0.053 C 
ATOM      3  C   UNL     1      35.112 -16.187 -21.739  0.00  0.00    -0.004 C 
ATOM      4  C   UNL     1      34.937 -17.224 -23.914  0.00  0.00    -0.004 C 
ATOM      5  C   UNL     1      34.588 -15.005 -22.260  0.00  0.00    +0.004 C 
ATOM      6  C   UNL     1      34.414 -16.040 -24.436  0.00  0.00    +0.004 C 
ENDROOT
BRANCH   2   9
ATOM      7  O   UNL     1      32.976 -13.749 -25.150  0.00  0.00    -0.270 OA
ATOM      8  N   UNL     1      34.016 -12.539 -23.468  0.00  0.00    -0.293 N 
ATOM      9  C   ACE A   0      33.692 -13.699 -24.154  0.00  0.00    +0.246 C 
ATOM     10  H   UNL     1      34.599 -12.603 -22.678  0.00  0.00    +0.150 HD
BRANCH   8  11
ATOM     11  CA  UNL     1      33.529 -11.239 -23.872  0.00  0.00    +0.171 C 
BRANCH  11  12
ATOM     12  CB  UNL     1      32.851 -10.531 -22.679  0.00  0.00    +0.029 C 
ATOM     13  CG1 UNL     1      31.974 -11.485 -21.861  0.00  0.00    +0.002 C 
ATOM     14  CG2 UNL     1      32.048  -9.293 -23.088  0.00  0.00    +0.002 C 
ENDBRANCH  11  12
BRANCH  11  16
ATOM     15  OXT UNL     1      34.880 -10.476 -25.740  0.00  0.00    -0.248 OA
ATOM     16  C   UNL     1      34.635 -10.428 -24.541  0.00  0.00    +0.332 C 
BRANCH  16  17
ATOM     17  O   UNL     1      35.376  -9.675 -23.690  0.00  0.00    -0.479 OA
ATOM     18  H   UNL     1      36.079  -9.152 -24.021  0.00  0.00    +0.295 HD
ENDBRANCH  16  17
ENDBRANCH  11  16
ENDBRANCH   8  11
ENDBRANCH   2   9
BRANCH   1  19
ATOM     19  C   UNL     1      35.846 -18.561 -22.006  0.00  0.00    +0.031 C 
BRANCH  19  20
ATOM     20  C   UNL     1      34.781 -19.552 -21.493  0.00  0.00    +0.033 C 
BRANCH  20  26
ATOM     21  O   UNL     1      32.214 -20.937 -20.227  0.00  0.00    -0.209 OA
ATOM     22  N   UNL     1      36.543 -21.281 -18.780  0.00  0.00    -0.300 N 
ATOM     23  N   UNL     1      34.846 -22.484 -17.563  0.00  0.00    -0.264 N 
ATOM     24  N   UNL     1      32.603 -22.261 -18.373  0.00  0.00    -0.302 NA
ATOM     25  N   UNL     1      33.121 -23.582 -16.492  0.00  0.00    -0.320 N 
ATOM     26  C   UNL     1      35.236 -20.359 -20.311  0.00  0.00    +0.007 C 
ATOM     27  C   UNL     1      34.422 -21.127 -19.471  0.00  0.00    +0.120 C 
ATOM     28  C   UNL     1      35.267 -21.676 -18.545  0.00  0.00    +0.115 C 
ATOM     29  C   UNL     1      36.533 -20.457 -19.884  0.00  0.00    +0.059 C 
ATOM     30  C   UNL     1      32.997 -21.414 -19.413  0.00  0.00    +0.209 C 
ATOM     31  C   UNL     1      33.482 -22.749 -17.521  0.00  0.00    +0.248 C 
ATOM     32  H   UNL     1      37.337 -21.537 -18.255  0.00  0.00    +0.153 HD
ATOM     33  H   UNL     1      35.470 -22.869 -16.905  0.00  0.00    +0.157 HD
ATOM     34  H   UNL     1      33.805 -23.928 -15.875  0.00  0.00    +0.146 HD
ATOM     35  H   UNL     1      32.177 -23.835 -16.373  0.00  0.00    +0.146 HD
ENDBRANCH  20  26
ENDBRANCH  19  20
ENDBRANCH   1  19
TORSDOF 8
ENDMDL
MODEL 3
REMARK VINA RESULT:     -11.7      1.532      2.203
REMARK  Name = 446560
REMARK  8 active torsions:
REMARK  status: ('A' for Active; 'I' for Inactive)
REMARK    1  A    between atoms: C_1  and  C_19
REMARK    2  A    between atoms: C_2  and  C_9
REMARK    3  A    between atoms: N_8  and  CA_11
REMARK    4  A    between atoms: CA_11  and  CB_12
REMARK    5  A    between atoms: CA_11  and  C_16
REMARK    6  A    between atoms: C_16  and  O_17
REMARK    7  A    between atoms: C_19  and  C_20
REMARK    8  A    between atoms: C_20  and  C_26
REMARK                            x       y       z     vdW  Elec       q    Type
REMARK                         _______ _______ _______ _____ _____    ______ ____
ROOT
ATOM      1  C   UNL     1      35.466 -20.111 -20.246  0.00  0.00    -0.022 C 
ATOM      2  C   UNL     1      34.190 -22.034 -18.733  0.00  0.00    +0.053 C 
ATOM      3  C   UNL     1      36.214 -21.009 -19.483  0.00  0.00    -0.004 C 
ATOM      4  C   UNL     1      34.073 -20.185 -20.243  0.00  0.00    -0.004 C 
ATOM      5  C   UNL     1      35.569 -21.981 -18.719  0.00  0.00    +0.004 C 
ATOM      6  C   UNL     1      33.429 -21.157 -19.478  0.00  0.00    +0.004 C 
ENDROOT
BRANCH   2   9
ATOM      7  O   UNL     1      33.524 -24.238 -18.297  0.00  0.00    -0.270 OA
ATOM      8  N   UNL     1      32.896 -22.621 -16.758  0.00  0.00    -0.293 N 
ATOM      9  C   ACE A   0      33.503 -23.069 -17.920  0.00  0.00    +0.246 C 
ATOM     10  H   UNL     1      32.934 -21.661 -16.544  0.00  0.00    +0.150 HD
BRANCH   8  11
ATOM     11  CA  UNL     1      32.208 -23.511 -15.851  0.00  0.00    +0.171 C 
BRANCH  11  12
ATOM     12  CB  UNL     1      32.899 -23.502 -14.470  0.00  0.00    +0.029 C 
ATOM     13  CG1 UNL     1      34.411 -23.273 -14.581  0.00  0.00    +0.002 C 
ATOM     14  CG2 UNL     1      32.613 -24.758 -13.642  0.00  0.00    +0.002 C 
ENDBRANCH  11  12
BRANCH  11  16
ATOM     15  OXT UNL     1      29.949 -23.658 -14.971  0.00  0.00    -0.248 OA
ATOM     16  C   UNL     1      30.715 -23.199 -15.810  0.00  0.00    +0.332 C 
BRANCH  16  17
ATOM     17  O   UNL     1      30.277 -22.404 -16.818  0.00  0.00    -0.479 OA
ATOM     18  H   UNL     1      30.893 -21.926 -17.337  0.00  0.00    +0.295 HD
ENDBRANCH  16  17
ENDBRANCH  11  16
ENDBRANCH   8  11
ENDBRANCH   2   9
BRANCH   1  19
ATOM     19  C   UNL     1      36.157 -19.072 -21.062  0.00  0.00    +0.031 C 
BRANCH  19  20
ATOM     20  C   UNL     1      35.329 -18.553 -22.255  0.00  0.00    +0.033 C 
BRANCH  20  26
ATOM     21  O   UNL     1      34.358 -17.602 -25.130  0.00  0.00    -0.209 OA
ATOM     22  N   UNL     1      34.733 -15.048 -21.350  0.00  0.00    -0.300 N 
ATOM     23  N   UNL     1      33.954 -13.978 -23.364  0.00  0.00    -0.264 N 
ATOM     24  N   UNL     1      33.781 -15.371 -25.304  0.00  0.00    -0.302 NA
ATOM     25  N   UNL     1      33.221 -13.083 -25.362  0.00  0.00    -0.320 N 
ATOM     26  C   UNL     1      35.005 -17.089 -22.165  0.00  0.00    +0.007 C 
ATOM     27  C   UNL     1      34.541 -16.278 -23.207  0.00  0.00    +0.120 C 
ATOM     28  C   UNL     1      34.387 -15.032 -22.661  0.00  0.00    +0.115 C 
ATOM     29  C   UNL     1      35.120 -16.331 -21.030  0.00  0.00    +0.059 C 
ATOM     30  C   UNL     1      34.229 -16.499 -24.611  0.00  0.00    +0.209 C 
ATOM     31  C   UNL     1      33.659 -14.204 -24.704  0.00  0.00    +0.248 C 
ATOM     32  H   UNL     1      34.711 -14.279 -20.734  0.00  0.00    +0.153 HD
ATOM     33  H   UNL     1      33.850 -13.088 -22.954  0.00  0.00    +0.157 HD
ATOM     34  H   UNL     1      33.143 -12.228 -24.881  0.00  0.00    +0.146 HD
ATOM     35  H   UNL     1      32.984 -13.134 -26.316  0.00  0.00    +0.146 HD
ENDBRANCH  20  26
ENDBRANCH  19  20
ENDBRANCH   1  19
TORSDOF 8
ENDMDL
MODEL 4
REMARK VINA RESULT:     -11.5      1.485      1.920
REMARK  Name = 446560
REMARK  8 active torsions:
REMARK  status: ('A' for Active; 'I' for Inactive)
REMARK    1  A    between atoms: C_1  and  C_19
REMARK    2  A    between atoms: C_2  and  C_9
REMARK    3  A    between atoms: N_8  and  CA_11
REMARK    4  A    between atoms: CA_11  and  CB_12
REMARK    5  A    between atoms: CA_11  and  C_16
REMARK    6  A    between atoms: C_16  and  O_17
REMARK    7  A    between atoms: C_19  and  C_20
REMARK    8  A    between atoms: C_20  and  C_26
REMARK                            x       y       z     vdW  Elec       q    Type
REMARK                         _______ _______ _______ _____ _____    ______ ____
ROOT
ATOM      1  C   UNL     1      35.557 -20.092 -20.332  0.00  0.00    -0.022 C 
ATOM      2  C   UNL     1      34.567 -22.004 -18.607  0.00  0.00    +0.053 C 
ATOM      3  C   UNL     1      34.182 -20.318 -20.256  0.00  0.00    -0.004 C 
ATOM      4  C   UNL     1      36.431 -20.833 -19.537  0.00  0.00    -0.004 C 
ATOM      5  C   UNL     1      33.682 -21.284 -19.384  0.00  0.00    +0.004 C 
ATOM      6  C   UNL     1      35.930 -21.800 -18.665  0.00  0.00    +0.004 C 
ENDROOT
BRANCH   2   9
ATOM      7  O   UNL     1      33.409 -23.986 -18.132  0.00  0.00    -0.270 OA
ATOM      8  N   UNL     1      34.315 -22.835 -16.334  0.00  0.00    -0.293 N 
ATOM      9  C   ACE A   0      34.034 -23.032 -17.677  0.00  0.00    +0.246 C 
ATOM     10  H   UNL     1      34.824 -22.036 -16.069  0.00  0.00    +0.150 HD
BRANCH   8  11
ATOM     11  CA  UNL     1      33.886 -23.761 -15.310  0.00  0.00    +0.171 C 
BRANCH  11  12
ATOM     12  CB  UNL     1      35.060 -24.084 -14.360  0.00  0.00    +0.029 C 
ATOM     13  CG1 UNL     1      36.149 -23.007 -14.397  0.00  0.00    +0.002 C 
ATOM     14  CG2 UNL     1      35.674 -25.466 -14.607  0.00  0.00    +0.002 C 
ENDBRANCH  11  12
BRANCH  11  16
ATOM     15  OXT UNL     1      31.597 -22.957 -15.198  0.00  0.00    -0.248 OA
ATOM     16  C   UNL     1      32.630 -23.252 -14.609  0.00  0.00    +0.332 C 
BRANCH  16  17
ATOM     17  O   UNL     1      32.756 -23.097 -13.268  0.00  0.00    -0.479 OA
ATOM     18  H   UNL     1      32.389 -23.735 -12.687  0.00  0.00    +0.295 HD
ENDBRANCH  16  17
ENDBRANCH  11  16
ENDBRANCH   8  11
ENDBRANCH   2   9
BRANCH   1  19
ATOM     19  C   UNL     1      36.091 -19.059 -21.266  0.00  0.00    +0.031 C 
BRANCH  19  20
ATOM     20  C   UNL     1      35.525 -17.643 -21.031  0.00  0.00    +0.033 C 
BRANCH  20  26
ATOM     21  O   UNL     1      34.752 -14.651 -20.286  0.00  0.00    -0.209 OA
ATOM     22  N   UNL     1      34.596 -16.601 -24.424  0.00  0.00    -0.300 N 
ATOM     23  N   UNL     1      33.932 -14.292 -24.237  0.00  0.00    -0.264 N 
ATOM     24  N   UNL     1      34.038 -13.333 -22.044  0.00  0.00    -0.302 NA
ATOM     25  N   UNL     1      33.324 -12.088 -23.914  0.00  0.00    -0.320 N 
ATOM     26  C   UNL     1      35.090 -16.958 -22.295  0.00  0.00    +0.007 C 
ATOM     27  C   UNL     1      34.666 -15.629 -22.411  0.00  0.00    +0.120 C 
ATOM     28  C   UNL     1      34.373 -15.453 -23.737  0.00  0.00    +0.115 C 
ATOM     29  C   UNL     1      35.045 -17.548 -23.530  0.00  0.00    +0.059 C 
ATOM     30  C   UNL     1      34.500 -14.525 -21.479  0.00  0.00    +0.209 C 
ATOM     31  C   UNL     1      33.779 -13.246 -23.334  0.00  0.00    +0.248 C 
ATOM     32  H   UNL     1      34.461 -16.735 -25.391  0.00  0.00    +0.153 HD
ATOM     33  H   UNL     1      33.725 -14.184 -25.194  0.00  0.00    +0.157 HD
ATOM     34  H   UNL     1      33.141 -12.060 -24.880  0.00  0.00    +0.146 HD
ATOM     35  H   UNL     1      33.182 -11.285 -23.362  0.00  0.00    +0.146 HD
ENDBRANCH  20  26
ENDBRANCH  19  20
ENDBRANCH   1  19
TORSDOF 8
ENDMDL
MODEL 5
REMARK VINA RESULT:     -11.1      2.939      3.862
REMARK  Name = 446560
REMARK  8 active torsions:
REMARK  status: ('A' for Active; 'I' for Inactive)
REMARK    1  A    between atoms: C_1  and  C_19
REMARK    2  A    between atoms: C_2  and  C_9
REMARK    3  A    between atoms: N_8  and  CA_11
REMARK    4  A    between atoms: CA_11  and  CB_12
REMARK    5  A    between atoms: CA_11  and  C_16
REMARK    6  A    between atoms: C_16  and  O_17
REMARK    7  A    between atoms: C_19  and  C_20
REMARK    8  A    between atoms: C_20  and  C_26
REMARK                            x       y       z     vdW  Elec       q    Type
REMARK                         _______ _______ _______ _____ _____    ______ ____
ROOT
ATOM      1  C   UNL     1      34.814 -20.803 -19.945  0.00  0.00    -0.022 C 
ATOM      2  C   UNL     1      35.772 -22.022 -17.662  0.00  0.00    +0.053 C 
ATOM      3  C   UNL     1      36.160 -20.678 -19.600  0.00  0.00    -0.004 C 
ATOM      4  C   UNL     1      33.952 -21.544 -19.135  0.00  0.00    -0.004 C 
ATOM      5  C   UNL     1      36.644 -21.294 -18.446  0.00  0.00    +0.004 C 
ATOM      6  C   UNL     1      34.437 -22.159 -17.981  0.00  0.00    +0.004 C 
ENDROOT
BRANCH   2   9
ATOM      7  O   UNL     1      37.435 -22.445 -16.065  0.00  0.00    -0.270 OA
ATOM      8  N   UNL     1      35.396 -23.509 -15.773  0.00  0.00    -0.293 N 
ATOM      9  C   ACE A   0      36.287 -22.679 -16.434  0.00  0.00    +0.246 C 
ATOM     10  H   UNL     1      34.495 -23.632 -16.151  0.00  0.00    +0.150 HD
BRANCH   8  11
ATOM     11  CA  UNL     1      35.741 -24.200 -14.552  0.00  0.00    +0.171 C 
BRANCH  11  12
ATOM     12  CB  UNL     1      34.479 -24.419 -13.689  0.00  0.00    +0.029 C 
ATOM     13  CG1 UNL     1      33.305 -23.549 -14.150  0.00  0.00    +0.002 C 
ATOM     14  CG2 UNL     1      34.729 -24.221 -12.192  0.00  0.00    +0.002 C 
ENDBRANCH  11  12
BRANCH  11  16
ATOM     15  OXT UNL     1      36.007 -26.570 -15.011  0.00  0.00    -0.248 OA
ATOM     16  C   UNL     1      36.528 -25.472 -14.851  0.00  0.00    +0.332 C 
BRANCH  16  17
ATOM     17  O   UNL     1      37.874 -25.311 -14.877  0.00  0.00    -0.479 OA
ATOM     18  H   UNL     1      38.429 -26.043 -15.060  0.00  0.00    +0.295 HD
ENDBRANCH  16  17
ENDBRANCH  11  16
ENDBRANCH   8  11
ENDBRANCH   2   9
BRANCH   1  19
ATOM     19  C   UNL     1      34.297 -20.144 -21.178  0.00  0.00    +0.031 C 
BRANCH  19  20
ATOM     20  C   UNL     1      35.365 -19.362 -21.971  0.00  0.00    +0.033 C 
BRANCH  20  26
ATOM     21  O   UNL     1      34.251 -18.479 -24.815  0.00  0.00    -0.209 OA
ATOM     22  N   UNL     1      35.112 -15.780 -21.219  0.00  0.00    -0.300 N 
ATOM     23  N   UNL     1      34.265 -14.751 -23.227  0.00  0.00    -0.264 N 
ATOM     24  N   UNL     1      33.835 -16.220 -25.070  0.00  0.00    -0.302 NA
ATOM     25  N   UNL     1      33.450 -13.900 -25.213  0.00  0.00    -0.320 N 
ATOM     26  C   UNL     1      35.162 -17.874 -21.938  0.00  0.00    +0.007 C 
ATOM     27  C   UNL     1      34.684 -17.081 -22.987  0.00  0.00    +0.120 C 
ATOM     28  C   UNL     1      34.669 -15.801 -22.501  0.00  0.00    +0.115 C 
ATOM     29  C   UNL     1      35.423 -17.073 -20.858  0.00  0.00    +0.059 C 
ATOM     30  C   UNL     1      34.248 -17.345 -24.349  0.00  0.00    +0.209 C 
ATOM     31  C   UNL     1      33.851 -15.019 -24.527  0.00  0.00    +0.248 C 
ATOM     32  H   UNL     1      35.197 -14.982 -20.647  0.00  0.00    +0.153 HD
ATOM     33  H   UNL     1      34.261 -13.837 -22.860  0.00  0.00    +0.157 HD
ATOM     34  H   UNL     1      33.475 -13.019 -24.775  0.00  0.00    +0.146 HD
ATOM     35  H   UNL     1      33.137 -13.978 -26.143  0.00  0.00    +0.146 HD
ENDBRANCH  20  26
ENDBRANCH  19  20
ENDBRANCH   1  19
TORSDOF 8
ENDMDL
MODEL 6
REMARK VINA RESULT:     -10.8      2.781     10.233
REMARK  Name = 446560
REMARK  8 active torsions:
REMARK  status: ('A' for Active; 'I' for Inactive)
REMARK    1  A    between atoms: C_1  and  C_19
REMARK    2  A    between atoms: C_2  and  C_9
REMARK    3  A    between atoms: N_8  and  CA_11
REMARK    4  A    between atoms: CA_11  and  CB_12
REMARK    5  A    between atoms: CA_11  and  C_16
REMARK    6  A    between atoms: C_16  and  O_17
REMARK    7  A    between atoms: C_19  and  C_20
REMARK    8  A    between atoms: C_20  and  C_26
REMARK                            x       y       z     vdW  Elec       q    Type
REMARK                         _______ _______ _______ _____ _____    ______ ____
ROOT
ATOM      1  C   UNL     1      34.020 -22.087 -18.743  0.00  0.00    -0.022 C 
ATOM      2  C   UNL     1      35.162 -20.136 -20.326  0.00  0.00    +0.053 C 
ATOM      3  C   UNL     1      35.408 -21.952 -18.793  0.00  0.00    -0.004 C 
ATOM      4  C   UNL     1      33.210 -21.235 -19.495  0.00  0.00    -0.004 C 
ATOM      5  C   UNL     1      35.985 -20.966 -19.592  0.00  0.00    +0.004 C 
ATOM      6  C   UNL     1      33.788 -20.249 -20.295  0.00  0.00    +0.004 C 
ENDROOT
BRANCH   2   9
ATOM      7  O   UNL     1      37.000 -19.018 -21.257  0.00  0.00    -0.270 OA
ATOM      8  N   UNL     1      34.890 -18.256 -21.846  0.00  0.00    -0.293 N 
ATOM      9  C   ACE A   0      35.776 -19.085 -21.176  0.00  0.00    +0.246 C 
ATOM     10  H   UNL     1      33.924 -18.390 -21.714  0.00  0.00    +0.150 HD
BRANCH   8  11
ATOM     11  CA  UNL     1      35.334 -17.202 -22.730  0.00  0.00    +0.171 C 
BRANCH  11  12
ATOM     12  CB  UNL     1      34.740 -17.405 -24.141  0.00  0.00    +0.029 C 
ATOM     13  CG1 UNL     1      33.846 -16.236 -24.567  0.00  0.00    +0.002 C 
ATOM     14  CG2 UNL     1      33.987 -18.730 -24.294  0.00  0.00    +0.002 C 
ENDBRANCH  11  12
BRANCH  11  16
ATOM     15  OXT UNL     1      35.030 -14.793 -22.773  0.00  0.00    -0.248 OA
ATOM     16  C   UNL     1      35.057 -15.830 -22.122  0.00  0.00    +0.332 C 
BRANCH  16  17
ATOM     17  O   UNL     1      34.890 -15.833 -20.776  0.00  0.00    -0.479 OA
ATOM     18  H   UNL     1      34.549 -15.074 -20.345  0.00  0.00    +0.295 HD
ENDBRANCH  16  17
ENDBRANCH  11  16
ENDBRANCH   8  11
ENDBRANCH   2   9
BRANCH   1  19
ATOM     19  C   UNL     1      33.404 -23.142 -17.889  0.00  0.00    +0.031 C 
BRANCH  19  20
ATOM     20  C   UNL     1      32.378 -22.609 -16.868  0.00  0.00    +0.033 C 
BRANCH  20  26
ATOM     21  O   UNL     1      35.207 -22.513 -15.420  0.00  0.00    -0.209 OA
ATOM     22  N   UNL     1      31.468 -24.766 -14.044  0.00  0.00    -0.300 N 
ATOM     23  N   UNL     1      33.448 -24.923 -12.679  0.00  0.00    -0.264 N 
ATOM     24  N   UNL     1      35.368 -23.720 -13.456  0.00  0.00    -0.302 NA
ATOM     25  N   UNL     1      35.413 -24.985 -11.468  0.00  0.00    -0.320 N 
ATOM     26  C   UNL     1      32.282 -23.446 -15.625  0.00  0.00    +0.007 C 
ATOM     27  C   UNL     1      33.305 -23.672 -14.698  0.00  0.00    +0.120 C 
ATOM     28  C   UNL     1      32.761 -24.488 -13.742  0.00  0.00    +0.115 C 
ATOM     29  C   UNL     1      31.160 -24.119 -15.220  0.00  0.00    +0.059 C 
ATOM     30  C   UNL     1      34.690 -23.242 -14.581  0.00  0.00    +0.209 C 
ATOM     31  C   UNL     1      34.770 -24.503 -12.580  0.00  0.00    +0.248 C 
ATOM     32  H   UNL     1      30.857 -25.331 -13.516  0.00  0.00    +0.153 HD
ATOM     33  H   UNL     1      33.039 -25.510 -12.002  0.00  0.00    +0.157 HD
ATOM     34  H   UNL     1      34.935 -25.568 -10.836  0.00  0.00    +0.146 HD
ATOM     35  H   UNL     1      36.354 -24.747 -11.302  0.00  0.00    +0.146 HD
ENDBRANCH  20  26
ENDBRANCH  19  20
ENDBRANCH   1  19
TORSDOF 8
ENDMDL
MODEL 7
REMARK VINA RESULT:     -10.7      1.527      2.579
REMARK  Name = 446560
REMARK  8 active torsions:
REMARK  status: ('A' for Active; 'I' for Inactive)
REMARK    1  A    between atoms: C_1  and  C_19
REMARK    2  A    between atoms: C_2  and  C_9
REMARK    3  A    between atoms: N_8  and  CA_11
REMARK    4  A    between atoms: CA_11  and  CB_12
REMARK    5  A    between atoms: CA_11  and  C_16
REMARK    6  A    between atoms: C_16  and  O_17
REMARK    7  A    between atoms: C_19  and  C_20
REMARK    8  A    between atoms: C_20  and  C_26
REMARK                            x       y       z     vdW  Elec       q    Type
REMARK                         _______ _______ _______ _____ _____    ______ ____
ROOT
ATOM      1  C   UNL     1      35.238 -20.572 -20.082  0.00  0.00    -0.022 C 
ATOM      2  C   UNL     1      34.483 -22.211 -17.994  0.00  0.00    +0.053 C 
ATOM      3  C   UNL     1      36.208 -21.164 -19.273  0.00  0.00    -0.004 C 
ATOM      4  C   UNL     1      33.885 -20.809 -19.834  0.00  0.00    -0.004 C 
ATOM      5  C   UNL     1      35.827 -21.993 -18.218  0.00  0.00    +0.004 C 
ATOM      6  C   UNL     1      33.504 -21.637 -18.778  0.00  0.00    +0.004 C 
ENDROOT
BRANCH   2   9
ATOM      7  O   UNL     1      33.415 -24.101 -17.110  0.00  0.00    -0.270 OA
ATOM      8  N   UNL     1      34.508 -22.709 -15.612  0.00  0.00    -0.293 N 
ATOM      9  C   ACE A   0      34.076 -23.094 -16.871  0.00  0.00    +0.246 C 
ATOM     10  H   UNL     1      35.035 -21.882 -15.524  0.00  0.00    +0.150 HD
BRANCH   8  11
ATOM     11  CA  UNL     1      34.214 -23.478 -14.424  0.00  0.00    +0.171 C 
BRANCH  11  12
ATOM     12  CB  UNL     1      32.737 -23.929 -14.434  0.00  0.00    +0.029 C 
ATOM     13  CG1 UNL     1      31.772 -22.757 -14.229  0.00  0.00    +0.002 C 
ATOM     14  CG2 UNL     1      32.439 -25.043 -13.426  0.00  0.00    +0.002 C 
ENDBRANCH  11  12
BRANCH  11  16
ATOM     15  OXT UNL     1      35.830 -24.822 -13.208  0.00  0.00    -0.248 OA
ATOM     16  C   UNL     1      35.218 -24.613 -14.249  0.00  0.00    +0.332 C 
BRANCH  16  17
ATOM     17  O   UNL     1      35.429 -25.358 -15.362  0.00  0.00    -0.479 OA
ATOM     18  H   UNL     1      35.716 -24.945 -16.153  0.00  0.00    +0.295 HD
ENDBRANCH  16  17
ENDBRANCH  11  16
ENDBRANCH   8  11
ENDBRANCH   2   9
BRANCH   1  19
ATOM     19  C   UNL     1      35.647 -19.686 -21.209  0.00  0.00    +0.031 C 
BRANCH  19  20
ATOM     20  C   UNL     1      35.557 -18.180 -20.892  0.00  0.00    +0.033 C 
BRANCH  20  26
ATOM     21  O   UNL     1      34.753 -15.286 -19.848  0.00  0.00    -0.209 OA
ATOM     22  N   UNL     1      34.938 -16.708 -24.195  0.00  0.00    -0.300 N 
ATOM     23  N   UNL     1      34.284 -14.426 -23.780  0.00  0.00    -0.264 N 
ATOM     24  N   UNL     1      34.209 -13.747 -21.484  0.00  0.00    -0.302 NA
ATOM     25  N   UNL     1      33.674 -12.266 -23.237  0.00  0.00    -0.320 N 
ATOM     26  C   UNL     1      35.241 -17.335 -22.092  0.00  0.00    +0.007 C 
ATOM     27  C   UNL     1      34.843 -15.993 -22.078  0.00  0.00    +0.120 C 
ATOM     28  C   UNL     1      34.669 -15.649 -23.392  0.00  0.00    +0.115 C 
ATOM     29  C   UNL     1      35.298 -17.767 -23.391  0.00  0.00    +0.059 C 
ATOM     30  C   UNL     1      34.607 -15.009 -21.033  0.00  0.00    +0.209 C 
ATOM     31  C   UNL     1      34.064 -13.496 -22.770  0.00  0.00    +0.248 C 
ATOM     32  H   UNL     1      34.887 -16.719 -25.179  0.00  0.00    +0.153 HD
ATOM     33  H   UNL     1      34.164 -14.197 -24.730  0.00  0.00    +0.157 HD
ATOM     34  H   UNL     1      33.577 -12.115 -24.205  0.00  0.00    +0.146 HD
ATOM     35  H   UNL     1      33.493 -11.534 -22.604  0.00  0.00    +0.146 HD
ENDBRANCH  20  26
ENDBRANCH  19  20
ENDBRANCH   1  19
TORSDOF 8
ENDMDL
MODEL 8
REMARK VINA RESULT:     -10.6      2.882      3.769
REMARK  Name = 446560
REMARK  8 active torsions:
REMARK  status: ('A' for Active; 'I' for Inactive)
REMARK    1  A    between atoms: C_1  and  C_19
REMARK    2  A    between atoms: C_2  and  C_9
REMARK    3  A    between atoms: N_8  and  CA_11
REMARK    4  A    between atoms: CA_11  and  CB_12
REMARK    5  A    between atoms: CA_11  and  C_16
REMARK    6  A    between atoms: C_16  and  O_17
REMARK    7  A    between atoms: C_19  and  C_20
REMARK    8  A    between atoms: C_20  and  C_26
REMARK                            x       y       z     vdW  Elec       q    Type
REMARK                         _______ _______ _______ _____ _____    ______ ____
ROOT
ATOM      1  C   UNL     1      35.137 -21.209 -19.296  0.00  0.00    -0.022 C 
ATOM      2  C   UNL     1      36.028 -22.338 -16.940  0.00  0.00    +0.053 C 
ATOM      3  C   UNL     1      34.263 -21.957 -18.505  0.00  0.00    -0.004 C 
ATOM      4  C   UNL     1      36.461 -21.033 -18.895  0.00  0.00    -0.004 C 
ATOM      5  C   UNL     1      34.713 -22.526 -17.315  0.00  0.00    +0.004 C 
ATOM      6  C   UNL     1      36.911 -21.604 -17.704  0.00  0.00    +0.004 C 
ENDROOT
BRANCH   2   9
ATOM      7  O   UNL     1      37.477 -22.450 -15.101  0.00  0.00    -0.270 OA
ATOM      8  N   UNL     1      35.787 -24.034 -15.212  0.00  0.00    -0.293 N 
ATOM      9  C   ACE A   0      36.508 -22.943 -15.672  0.00  0.00    +0.246 C 
ATOM     10  H   UNL     1      35.024 -24.355 -15.745  0.00  0.00    +0.150 HD
BRANCH   8  11
ATOM     11  CA  UNL     1      36.116 -24.716 -13.981  0.00  0.00    +0.171 C 
BRANCH  11  12
ATOM     12  CB  UNL     1      34.921 -24.658 -13.005  0.00  0.00    +0.029 C 
ATOM     13  CG1 UNL     1      33.699 -23.971 -13.625  0.00  0.00    +0.002 C 
ATOM     14  CG2 UNL     1      35.268 -24.009 -11.663  0.00  0.00    +0.002 C 
ENDBRANCH  11  12
BRANCH  11  16
ATOM     15  OXT UNL     1      37.469 -26.690 -13.567  0.00  0.00    -0.248 OA
ATOM     16  C   UNL     1      36.633 -26.124 -14.262  0.00  0.00    +0.332 C 
BRANCH  16  17
ATOM     17  O   UNL     1      36.132 -26.696 -15.384  0.00  0.00    -0.479 OA
ATOM     18  H   UNL     1      36.233 -26.269 -16.212  0.00  0.00    +0.295 HD
ENDBRANCH  16  17
ENDBRANCH  11  16
ENDBRANCH   8  11
ENDBRANCH   2   9
BRANCH   1  19
ATOM     19  C   UNL     1      34.654 -20.600 -20.568  0.00  0.00    +0.031 C 
BRANCH  19  20
ATOM     20  C   UNL     1      35.579 -19.504 -21.134  0.00  0.00    +0.033 C 
BRANCH  20  26
ATOM     21  O   UNL     1      35.314 -16.372 -20.657  0.00  0.00    -0.209 OA
ATOM     22  N   UNL     1      34.342 -18.680 -24.488  0.00  0.00    -0.300 N 
ATOM     23  N   UNL     1      34.018 -16.291 -24.495  0.00  0.00    -0.264 N 
ATOM     24  N   UNL     1      34.546 -15.146 -22.458  0.00  0.00    -0.302 NA
ATOM     25  N   UNL     1      33.755 -14.001 -24.361  0.00  0.00    -0.320 N 
ATOM     26  C   UNL     1      35.070 -18.891 -22.407  0.00  0.00    +0.007 C 
ATOM     27  C   UNL     1      34.812 -17.533 -22.627  0.00  0.00    +0.120 C 
ATOM     28  C   UNL     1      34.368 -17.449 -23.919  0.00  0.00    +0.115 C 
ATOM     29  C   UNL     1      34.780 -19.588 -23.550  0.00  0.00    +0.059 C 
ATOM     30  C   UNL     1      34.921 -16.330 -21.817  0.00  0.00    +0.209 C 
ATOM     31  C   UNL     1      34.128 -15.150 -23.709  0.00  0.00    +0.248 C 
ATOM     32  H   UNL     1      34.061 -18.888 -25.409  0.00  0.00    +0.153 HD
ATOM     33  H   UNL     1      33.700 -16.251 -25.426  0.00  0.00    +0.157 HD
ATOM     34  H   UNL     1      33.448 -14.043 -25.295  0.00  0.00    +0.146 HD
ATOM     35  H   UNL     1      33.796 -13.135 -23.894  0.00  0.00    +0.146 HD
ENDBRANCH  20  26
ENDBRANCH  19  20
ENDBRANCH   1  19
TORSDOF 8
ENDMDL
MODEL 9
REMARK VINA RESULT:     -10.6      2.310      3.178
REMARK  Name = 446560
REMARK  8 active torsions:
REMARK  status: ('A' for Active; 'I' for Inactive)
REMARK    1  A    between atoms: C_1  and  C_19
REMARK    2  A    between atoms: C_2  and  C_9
REMARK    3  A    between atoms: N_8  and  CA_11
REMARK    4  A    between atoms: CA_11  and  CB_12
REMARK    5  A    between atoms: CA_11  and  C_16
REMARK    6  A    between atoms: C_16  and  O_17
REMARK    7  A    between atoms: C_19  and  C_20
REMARK    8  A    between atoms: C_20  and  C_26
REMARK                            x       y       z     vdW  Elec       q    Type
REMARK                         _______ _______ _______ _____ _____    ______ ____
ROOT
ATOM      1  C   UNL     1      34.334 -20.227 -20.621  0.00  0.00    -0.022 C 
ATOM      2  C   UNL     1      34.304 -22.068 -18.566  0.00  0.00    +0.053 C 
ATOM      3  C   UNL     1      33.118 -20.685 -20.112  0.00  0.00    -0.004 C 
ATOM      4  C   UNL     1      35.534 -20.702 -20.091  0.00  0.00    -0.004 C 
ATOM      5  C   UNL     1      33.103 -21.615 -19.073  0.00  0.00    +0.004 C 
ATOM      6  C   UNL     1      35.518 -21.632 -19.052  0.00  0.00    +0.004 C 
ENDROOT
BRANCH   2   9
ATOM      7  O   UNL     1      33.476 -23.979 -17.489  0.00  0.00    -0.270 OA
ATOM      8  N   UNL     1      35.235 -22.867 -16.464  0.00  0.00    -0.293 N 
ATOM      9  C   ACE A   0      34.288 -23.058 -17.458  0.00  0.00    +0.246 C 
ATOM     10  H   UNL     1      35.842 -22.096 -16.531  0.00  0.00    +0.150 HD
BRANCH   8  11
ATOM     11  CA  UNL     1      35.361 -23.759 -15.334  0.00  0.00    +0.171 C 
BRANCH  11  12
ATOM     12  CB  UNL     1      36.692 -23.499 -14.597  0.00  0.00    +0.029 C 
ATOM     13  CG1 UNL     1      36.495 -23.341 -13.085  0.00  0.00    +0.002 C 
ATOM     14  CG2 UNL     1      37.470 -22.304 -15.157  0.00  0.00    +0.002 C 
ENDBRANCH  11  12
BRANCH  11  16
ATOM     15  OXT UNL     1      33.592 -24.672 -13.944  0.00  0.00    -0.248 OA
ATOM     16  C   UNL     1      34.124 -23.688 -14.445  0.00  0.00    +0.332 C 
BRANCH  16  17
ATOM     17  O   UNL     1      33.613 -22.442 -14.286  0.00  0.00    -0.479 OA
ATOM     18  H   UNL     1      32.731 -22.333 -13.987  0.00  0.00    +0.295 HD
ENDBRANCH  16  17
ENDBRANCH  11  16
ENDBRANCH   8  11
ENDBRANCH   2   9
BRANCH   1  19
ATOM     19  C   UNL     1      34.349 -19.233 -21.732  0.00  0.00    +0.031 C 
BRANCH  19  20
ATOM     20  C   UNL     1      35.501 -18.211 -21.649  0.00  0.00    +0.033 C 
BRANCH  20  26
ATOM     21  O   UNL     1      34.718 -17.719 -24.691  0.00  0.00    -0.209 OA
ATOM     22  N   UNL     1      34.523 -14.696 -21.259  0.00  0.00    -0.300 N 
ATOM     23  N   UNL     1      33.841 -13.962 -23.451  0.00  0.00    -0.264 N 
ATOM     24  N   UNL     1      33.968 -15.594 -25.201  0.00  0.00    -0.302 NA
ATOM     25  N   UNL     1      33.219 -13.395 -25.601  0.00  0.00    -0.320 N 
ATOM     26  C   UNL     1      35.044 -16.786 -21.777  0.00  0.00    +0.007 C 
ATOM     27  C   UNL     1      34.609 -16.158 -22.949  0.00  0.00    +0.120 C 
ATOM     28  C   UNL     1      34.299 -14.876 -22.585  0.00  0.00    +0.115 C 
ATOM     29  C   UNL     1      34.989 -15.886 -20.745  0.00  0.00    +0.059 C 
ATOM     30  C   UNL     1      34.447 -16.579 -24.333  0.00  0.00    +0.209 C 
ATOM     31  C   UNL     1      33.691 -14.379 -24.769  0.00  0.00    +0.248 C 
ATOM     32  H   UNL     1      34.378 -13.864 -20.753  0.00  0.00    +0.153 HD
ATOM     33  H   UNL     1      33.624 -13.044 -23.171  0.00  0.00    +0.157 HD
ATOM     34  H   UNL     1      33.023 -12.500 -25.244  0.00  0.00    +0.146 HD
ATOM     35  H   UNL     1      33.075 -13.586 -26.557  0.00  0.00    +0.146 HD
ENDBRANCH  20  26
ENDBRANCH  19  20
ENDBRANCH   1  19
TORSDOF 8
ENDMDL
