MODEL 1
REMARK VINA RESULT:     -12.7      0.000      0.000
REMARK  Name = 46926973
REMARK  4 active torsions:
REMARK  status: ('A' for Active; 'I' for Inactive)
REMARK    1  A    between atoms: C_4  and  C_17
REMARK    2  A    between atoms: C_6  and  C_13
REMARK    3  A    between atoms: C_17  and  C_19
REMARK    4  A    between atoms: C_21  and  C_26
REMARK                            x       y       z     vdW  Elec       q    Type
REMARK                         _______ _______ _______ _____ _____    ______ ____
ROOT
ATOM      1  O   UNL     1      36.719 -18.799 -22.416  0.00  0.00    -0.274 OA
ATOM      2  N   UNL     1      34.471 -19.356 -22.006  0.00  0.00    -0.269 N 
ATOM      3  N   UNL     1      33.387 -20.628 -20.331  0.00  0.00    -0.229 NA
ATOM      4  C   UNL     1      35.526 -18.752 -22.703  0.00  0.00    +0.232 C 
ATOM      5  C   UNL     1      34.538 -20.137 -20.845  0.00  0.00    +0.134 C 
ATOM      6  C   UNL     1      34.706 -21.649 -18.581  0.00  0.00    +0.038 C 
ATOM      7  C   UNL     1      35.790 -20.355 -20.293  0.00  0.00    +0.035 C 
ATOM      8  C   UNL     1      35.867 -21.127 -19.140  0.00  0.00    +0.006 C 
ATOM      9  C   UNL     1      33.502 -21.374 -19.210  0.00  0.00    +0.102 C 
ATOM     10  H   UNL     1      33.571 -19.214 -22.379  0.00  0.00    +0.156 HD
ENDROOT
BRANCH   6  13
ATOM     11  N   UNL     1      35.946 -22.514 -16.759  0.00  0.00    -0.241 NA
ATOM     12  N   UNL     1      33.695 -23.878 -15.791  0.00  0.00    -0.239 NA
ATOM     13  C   UNL     1      34.753 -22.456 -17.384  0.00  0.00    +0.102 C 
ATOM     14  C   UNL     1      33.647 -23.126 -16.908  0.00  0.00    +0.118 C 
ATOM     15  C   UNL     1      35.993 -23.266 -15.641  0.00  0.00    +0.119 C 
ATOM     16  C   UNL     1      34.887 -23.936 -15.166  0.00  0.00    +0.120 C 
ENDBRANCH   6  13
BRANCH   4  17
ATOM     17  C   UNL     1      35.011 -17.990 -23.914  0.00  0.00    +0.113 C 
BRANCH  17  19
ATOM     18  N   UNL     1      33.523 -14.533 -24.327  0.00  0.00    -0.244 NA
ATOM     19  C   UNL     1      34.571 -16.585 -23.594  0.00  0.00    +0.006 C 
ATOM     20  C   UNL     1      34.367 -14.736 -22.070  0.00  0.00    -0.004 C 
ATOM     21  C   UNL     1      33.747 -14.034 -23.090  0.00  0.00    +0.077 C 
ATOM     22  C   UNL     1      34.783 -16.036 -22.335  0.00  0.00    -0.005 C 
ATOM     23  C   UNL     1      33.941 -15.799 -24.547  0.00  0.00    +0.095 C 
ATOM     24  C   UNL     1      34.597 -14.149 -20.719  0.00  0.00    +0.033 C 
BRANCH  21  26
ATOM     25  N   UNL     1      32.378 -10.054 -22.560  0.00  0.00    -0.248 NA
ATOM     26  C   UNL     1      33.280 -12.677 -22.909  0.00  0.00    +0.020 C 
ATOM     27  C   UNL     1      32.314 -12.393 -21.950  0.00  0.00    +0.016 C 
ATOM     28  C   UNL     1      33.796 -11.651 -23.694  0.00  0.00    +0.022 C 
ATOM     29  C   UNL     1      31.901 -11.076 -21.816  0.00  0.00    +0.059 C 
ATOM     30  C   UNL     1      33.316 -10.368 -23.482  0.00  0.00    +0.098 C 
ATOM     31  C   UNL     1      30.865 -10.734 -20.797  0.00  0.00    +0.052 C 
ENDBRANCH  21  26
ENDBRANCH  17  19
ENDBRANCH   4  17
TORSDOF 4
ENDMDL
MODEL 2
REMARK VINA RESULT:     -12.5      1.104      1.325
REMARK  Name = 46926973
REMARK  4 active torsions:
REMARK  status: ('A' for Active; 'I' for Inactive)
REMARK    1  A    between atoms: C_4  and  C_17
REMARK    2  A    between atoms: C_6  and  C_13
REMARK    3  A    between atoms: C_17  and  C_19
REMARK    4  A    between atoms: C_21  and  C_26
REMARK                            x       y       z     vdW  Elec       q    Type
REMARK                         _______ _______ _______ _____ _____    ______ ____
ROOT
ATOM      1  O   UNL     1      33.596 -19.681 -22.208  0.00  0.00    -0.274 OA
ATOM      2  N   UNL     1      35.733 -19.579 -21.231  0.00  0.00    -0.269 N 
ATOM      3  N   UNL     1      36.687 -20.548 -19.296  0.00  0.00    -0.229 NA
ATOM      4  C   UNL     1      34.755 -19.279 -22.189  0.00  0.00    +0.232 C 
ATOM      5  C   UNL     1      35.609 -20.390 -20.096  0.00  0.00    +0.134 C 
ATOM      6  C   UNL     1      35.333 -21.982 -17.898  0.00  0.00    +0.038 C 
ATOM      7  C   UNL     1      34.379 -20.986 -19.868  0.00  0.00    +0.035 C 
ATOM      8  C   UNL     1      34.246 -21.795 -18.745  0.00  0.00    +0.006 C 
ATOM      9  C   UNL     1      36.520 -21.342 -18.214  0.00  0.00    +0.102 C 
ATOM     10  H   UNL     1      36.616 -19.168 -21.373  0.00  0.00    +0.156 HD
ENDROOT
BRANCH   6  13
ATOM     11  N   UNL     1      36.383 -23.088 -16.087  0.00  0.00    -0.241 NA
ATOM     12  N   UNL     1      33.922 -24.083 -15.184  0.00  0.00    -0.239 NA
ATOM     13  C   UNL     1      35.226 -22.816 -16.724  0.00  0.00    +0.102 C 
ATOM     14  C   UNL     1      34.017 -23.305 -16.280  0.00  0.00    +0.118 C 
ATOM     15  C   UNL     1      36.287 -23.866 -14.990  0.00  0.00    +0.119 C 
ATOM     16  C   UNL     1      35.078 -24.355 -14.547  0.00  0.00    +0.120 C 
ENDBRANCH   6  13
BRANCH   4  17
ATOM     17  C   UNL     1      35.312 -18.357 -23.263  0.00  0.00    +0.113 C 
BRANCH  17  19
ATOM     18  N   UNL     1      33.842 -14.988 -24.172  0.00  0.00    -0.244 NA
ATOM     19  C   UNL     1      34.836 -16.933 -23.135  0.00  0.00    +0.006 C 
ATOM     20  C   UNL     1      34.487 -14.935 -21.842  0.00  0.00    -0.004 C 
ATOM     21  C   UNL     1      33.954 -14.356 -22.982  0.00  0.00    +0.077 C 
ATOM     22  C   UNL     1      34.934 -16.249 -21.929  0.00  0.00    -0.005 C 
ATOM     23  C   UNL     1      34.287 -16.263 -24.218  0.00  0.00    +0.095 C 
ATOM     24  C   UNL     1      34.595 -14.204 -20.548  0.00  0.00    +0.033 C 
BRANCH  21  26
ATOM     25  N   UNL     1      32.517 -10.365 -23.002  0.00  0.00    -0.248 NA
ATOM     26  C   UNL     1      33.464 -12.995 -22.989  0.00  0.00    +0.020 C 
ATOM     27  C   UNL     1      32.492 -12.598 -22.077  0.00  0.00    +0.016 C 
ATOM     28  C   UNL     1      33.963 -12.079 -23.907  0.00  0.00    +0.022 C 
ATOM     29  C   UNL     1      32.056 -11.283 -22.125  0.00  0.00    +0.059 C 
ATOM     30  C   UNL     1      33.461 -10.787 -23.873  0.00  0.00    +0.098 C 
ATOM     31  C   UNL     1      31.013 -10.822 -21.162  0.00  0.00    +0.052 C 
ENDBRANCH  21  26
ENDBRANCH  17  19
ENDBRANCH   4  17
TORSDOF 4
ENDMDL
MODEL 3
REMARK VINA RESULT:     -12.2      1.211      1.947
REMARK  Name = 46926973
REMARK  4 active torsions:
REMARK  status: ('A' for Active; 'I' for Inactive)
REMARK    1  A    between atoms: C_4  and  C_17
REMARK    2  A    between atoms: C_6  and  C_13
REMARK    3  A    between atoms: C_17  and  C_19
REMARK    4  A    between atoms: C_21  and  C_26
REMARK                            x       y       z     vdW  Elec       q    Type
REMARK                         _______ _______ _______ _____ _____    ______ ____
ROOT
ATOM      1  O   UNL     1      33.661 -19.776 -21.889  0.00  0.00    -0.274 OA
ATOM      2  N   UNL     1      35.815 -19.761 -20.945  0.00  0.00    -0.269 N 
ATOM      3  N   UNL     1      36.763 -20.778 -19.032  0.00  0.00    -0.229 NA
ATOM      4  C   UNL     1      34.835 -19.418 -21.886  0.00  0.00    +0.232 C 
ATOM      5  C   UNL     1      35.679 -20.575 -19.814  0.00  0.00    +0.134 C 
ATOM      6  C   UNL     1      35.377 -22.172 -17.622  0.00  0.00    +0.038 C 
ATOM      7  C   UNL     1      34.431 -21.127 -19.571  0.00  0.00    +0.035 C 
ATOM      8  C   UNL     1      34.285 -21.938 -18.451  0.00  0.00    +0.006 C 
ATOM      9  C   UNL     1      36.582 -21.573 -17.952  0.00  0.00    +0.102 C 
ATOM     10  H   UNL     1      36.711 -19.382 -21.098  0.00  0.00    +0.156 HD
ENDROOT
BRANCH   6  13
ATOM     11  N   UNL     1      36.416 -23.366 -15.862  0.00  0.00    -0.241 NA
ATOM     12  N   UNL     1      33.927 -24.201 -14.875  0.00  0.00    -0.239 NA
ATOM     13  C   UNL     1      35.258 -23.009 -16.452  0.00  0.00    +0.102 C 
ATOM     14  C   UNL     1      34.035 -23.419 -15.967  0.00  0.00    +0.118 C 
ATOM     15  C   UNL     1      36.307 -24.147 -14.769  0.00  0.00    +0.119 C 
ATOM     16  C   UNL     1      35.086 -24.558 -14.285  0.00  0.00    +0.120 C 
ENDBRANCH   6  13
BRANCH   4  17
ATOM     17  C   UNL     1      35.410 -18.509 -22.962  0.00  0.00    +0.113 C 
BRANCH  17  19
ATOM     18  N   UNL     1      33.968 -15.157 -23.971  0.00  0.00    -0.244 NA
ATOM     19  C   UNL     1      34.919 -17.087 -22.870  0.00  0.00    +0.006 C 
ATOM     20  C   UNL     1      34.494 -15.082 -21.612  0.00  0.00    -0.004 C 
ATOM     21  C   UNL     1      34.016 -14.515 -22.782  0.00  0.00    +0.077 C 
ATOM     22  C   UNL     1      34.953 -16.394 -21.666  0.00  0.00    -0.005 C 
ATOM     23  C   UNL     1      34.422 -16.429 -23.984  0.00  0.00    +0.095 C 
ATOM     24  C   UNL     1      34.532 -14.341 -20.320  0.00  0.00    +0.033 C 
BRANCH  21  26
ATOM     25  N   UNL     1      32.559 -10.533 -22.906  0.00  0.00    -0.248 NA
ATOM     26  C   UNL     1      33.519 -13.157 -22.824  0.00  0.00    +0.020 C 
ATOM     27  C   UNL     1      34.142 -12.211 -23.630  0.00  0.00    +0.016 C 
ATOM     28  C   UNL     1      32.417 -12.793 -22.059  0.00  0.00    +0.022 C 
ATOM     29  C   UNL     1      33.627 -10.924 -23.635  0.00  0.00    +0.059 C 
ATOM     30  C   UNL     1      31.980 -11.481 -22.134  0.00  0.00    +0.098 C 
ATOM     31  C   UNL     1      34.271  -9.882 -24.489  0.00  0.00    +0.052 C 
ENDBRANCH  21  26
ENDBRANCH  17  19
ENDBRANCH   4  17
TORSDOF 4
ENDMDL
MODEL 4
REMARK VINA RESULT:     -12.0      2.699     11.194
REMARK  Name = 46926973
REMARK  4 active torsions:
REMARK  status: ('A' for Active; 'I' for Inactive)
REMARK    1  A    between atoms: C_4  and  C_17
REMARK    2  A    between atoms: C_6  and  C_13
REMARK    3  A    between atoms: C_17  and  C_19
REMARK    4  A    between atoms: C_21  and  C_26
REMARK                            x       y       z     vdW  Elec       q    Type
REMARK                         _______ _______ _______ _____ _____    ______ ____
ROOT
ATOM      1  O   UNL     1      32.532 -13.870 -22.832  0.00  0.00    -0.274 OA
ATOM      2  N   UNL     1      33.898 -12.292 -23.917  0.00  0.00    -0.269 N 
ATOM      3  N   UNL     1      33.999  -9.929 -23.886  0.00  0.00    -0.229 NA
ATOM      4  C   UNL     1      33.448 -13.580 -23.597  0.00  0.00    +0.232 C 
ATOM      5  C   UNL     1      33.414 -11.066 -23.445  0.00  0.00    +0.134 C 
ATOM      6  C   UNL     1      32.447  -8.695 -22.501  0.00  0.00    +0.038 C 
ATOM      7  C   UNL     1      32.359 -11.098 -22.547  0.00  0.00    +0.035 C 
ATOM      8  C   UNL     1      31.871  -9.886 -22.072  0.00  0.00    +0.006 C 
ATOM      9  C   UNL     1      33.498  -8.770 -23.401  0.00  0.00    +0.102 C 
ATOM     10  H   UNL     1      34.649 -12.243 -24.552  0.00  0.00    +0.156 HD
ENDROOT
BRANCH   6  13
ATOM     11  N   UNL     1      32.342  -7.073 -20.780  0.00  0.00    -0.241 NA
ATOM     12  N   UNL     1      30.712  -5.419 -22.351  0.00  0.00    -0.239 NA
ATOM     13  C   UNL     1      31.963  -7.421 -22.026  0.00  0.00    +0.102 C 
ATOM     14  C   UNL     1      31.163  -6.607 -22.798  0.00  0.00    +0.118 C 
ATOM     15  C   UNL     1      31.892  -5.884 -20.334  0.00  0.00    +0.119 C 
ATOM     16  C   UNL     1      31.091  -5.071 -21.105  0.00  0.00    +0.120 C 
ENDBRANCH   6  13
BRANCH   4  17
ATOM     17  C   UNL     1      34.256 -14.636 -24.333  0.00  0.00    +0.113 C 
BRANCH  17  19
ATOM     18  N   UNL     1      35.218 -16.747 -21.340  0.00  0.00    -0.244 NA
ATOM     19  C   UNL     1      34.576 -15.843 -23.488  0.00  0.00    +0.006 C 
ATOM     20  C   UNL     1      34.835 -18.219 -23.220  0.00  0.00    -0.004 C 
ATOM     21  C   UNL     1      35.167 -17.978 -21.897  0.00  0.00    +0.077 C 
ATOM     22  C   UNL     1      34.534 -17.124 -24.024  0.00  0.00    -0.005 C 
ATOM     23  C   UNL     1      34.920 -15.709 -22.152  0.00  0.00    +0.095 C 
ATOM     24  C   UNL     1      34.791 -19.592 -23.798  0.00  0.00    +0.033 C 
BRANCH  21  26
ATOM     25  N   UNL     1      36.131 -21.127 -19.223  0.00  0.00    -0.248 NA
ATOM     26  C   UNL     1      35.496 -19.052 -20.985  0.00  0.00    +0.020 C 
ATOM     27  C   UNL     1      34.495 -19.887 -20.501  0.00  0.00    +0.016 C 
ATOM     28  C   UNL     1      36.814 -19.253 -20.590  0.00  0.00    +0.022 C 
ATOM     29  C   UNL     1      34.862 -20.901 -19.629  0.00  0.00    +0.059 C 
ATOM     30  C   UNL     1      37.076 -20.294 -19.715  0.00  0.00    +0.098 C 
ATOM     31  C   UNL     1      33.814 -21.816 -19.089  0.00  0.00    +0.052 C 
ENDBRANCH  21  26
ENDBRANCH  17  19
ENDBRANCH   4  17
TORSDOF 4
ENDMDL
MODEL 5
REMARK VINA RESULT:     -11.7      1.109      2.114
REMARK  Name = 46926973
REMARK  4 active torsions:
REMARK  status: ('A' for Active; 'I' for Inactive)
REMARK    1  A    between atoms: C_4  and  C_17
REMARK    2  A    between atoms: C_6  and  C_13
REMARK    3  A    between atoms: C_17  and  C_19
REMARK    4  A    between atoms: C_21  and  C_26
REMARK                            x       y       z     vdW  Elec       q    Type
REMARK                         _______ _______ _______ _____ _____    ______ ____
ROOT
ATOM      1  O   UNL     1      36.557 -18.561 -22.435  0.00  0.00    -0.274 OA
ATOM      2  N   UNL     1      34.247 -19.001 -22.400  0.00  0.00    -0.269 N 
ATOM      3  N   UNL     1      32.850 -20.261 -20.965  0.00  0.00    -0.229 NA
ATOM      4  C   UNL     1      35.428 -18.437 -22.900  0.00  0.00    +0.232 C 
ATOM      5  C   UNL     1      34.091 -19.820 -21.275  0.00  0.00    +0.134 C 
ATOM      6  C   UNL     1      33.824 -21.411 -19.074  0.00  0.00    +0.038 C 
ATOM      7  C   UNL     1      35.228 -20.127 -20.545  0.00  0.00    +0.035 C 
ATOM      8  C   UNL     1      35.084 -20.939 -19.426  0.00  0.00    +0.006 C 
ATOM      9  C   UNL     1      32.749 -21.047 -19.870  0.00  0.00    +0.102 C 
ATOM     10  H   UNL     1      33.425 -18.796 -22.901  0.00  0.00    +0.156 HD
ENDROOT
BRANCH   6  13
ATOM     11  N   UNL     1      32.365 -22.534 -17.586  0.00  0.00    -0.241 NA
ATOM     12  N   UNL     1      34.533 -23.537 -16.117  0.00  0.00    -0.239 NA
ATOM     13  C   UNL     1      33.642 -22.256 -17.918  0.00  0.00    +0.102 C 
ATOM     14  C   UNL     1      34.706 -22.749 -17.196  0.00  0.00    +0.118 C 
ATOM     15  C   UNL     1      32.192 -23.323 -16.507  0.00  0.00    +0.119 C 
ATOM     16  C   UNL     1      33.256 -23.816 -15.785  0.00  0.00    +0.120 C 
ENDBRANCH   6  13
BRANCH   4  17
ATOM     17  C   UNL     1      35.149 -17.608 -24.145  0.00  0.00    +0.113 C 
BRANCH  17  19
ATOM     18  N   UNL     1      34.157 -14.505 -22.216  0.00  0.00    -0.244 NA
ATOM     19  C   UNL     1      34.599 -16.239 -23.842  0.00  0.00    +0.006 C 
ATOM     20  C   UNL     1      33.539 -14.193 -24.533  0.00  0.00    -0.004 C 
ATOM     21  C   UNL     1      33.622 -13.770 -23.216  0.00  0.00    +0.077 C 
ATOM     22  C   UNL     1      34.040 -15.453 -24.843  0.00  0.00    -0.005 C 
ATOM     23  C   UNL     1      34.633 -15.723 -22.556  0.00  0.00    +0.095 C 
ATOM     24  C   UNL     1      32.940 -13.353 -25.608  0.00  0.00    +0.033 C 
BRANCH  21  26
ATOM     25  N   UNL     1      32.172  -9.977 -21.990  0.00  0.00    -0.248 NA
ATOM     26  C   UNL     1      33.128 -12.476 -22.798  0.00  0.00    +0.020 C 
ATOM     27  C   UNL     1      33.649 -11.315 -23.359  0.00  0.00    +0.016 C 
ATOM     28  C   UNL     1      32.129 -12.389 -21.834  0.00  0.00    +0.022 C 
ATOM     29  C   UNL     1      33.141 -10.101 -22.924  0.00  0.00    +0.059 C 
ATOM     30  C   UNL     1      31.690 -11.127 -21.467  0.00  0.00    +0.098 C 
ATOM     31  C   UNL     1      33.677  -8.834 -23.503  0.00  0.00    +0.052 C 
ENDBRANCH  21  26
ENDBRANCH  17  19
ENDBRANCH   4  17
TORSDOF 4
ENDMDL
MODEL 6
REMARK VINA RESULT:     -11.7      1.534     10.833
REMARK  Name = 46926973
REMARK  4 active torsions:
REMARK  status: ('A' for Active; 'I' for Inactive)
REMARK    1  A    between atoms: C_4  and  C_17
REMARK    2  A    between atoms: C_6  and  C_13
REMARK    3  A    between atoms: C_17  and  C_19
REMARK    4  A    between atoms: C_21  and  C_26
REMARK                            x       y       z     vdW  Elec       q    Type
REMARK                         _______ _______ _______ _____ _____    ______ ____
ROOT
ATOM      1  O   UNL     1      35.508 -17.133 -20.347  0.00  0.00    -0.274 OA
ATOM      2  N   UNL     1      34.909 -16.992 -22.617  0.00  0.00    -0.269 N 
ATOM      3  N   UNL     1      34.108 -15.236 -23.984  0.00  0.00    -0.229 NA
ATOM      4  C   UNL     1      35.365 -17.635 -21.458  0.00  0.00    +0.232 C 
ATOM      5  C   UNL     1      34.519 -15.656 -22.766  0.00  0.00    +0.134 C 
ATOM      6  C   UNL     1      33.772 -13.044 -23.021  0.00  0.00    +0.038 C 
ATOM      7  C   UNL     1      34.584 -14.842 -21.646  0.00  0.00    +0.035 C 
ATOM      8  C   UNL     1      34.201 -13.513 -21.784  0.00  0.00    +0.006 C 
ATOM      9  C   UNL     1      33.743 -13.937 -24.080  0.00  0.00    +0.102 C 
ATOM     10  H   UNL     1      34.856 -17.550 -23.427  0.00  0.00    +0.156 HD
ENDROOT
BRANCH   6  13
ATOM     11  N   UNL     1      32.375 -11.239 -22.391  0.00  0.00    -0.241 NA
ATOM     12  N   UNL     1      33.577  -9.562 -24.291  0.00  0.00    -0.239 NA
ATOM     13  C   UNL     1      33.367 -11.669 -23.196  0.00  0.00    +0.102 C 
ATOM     14  C   UNL     1      33.958 -10.845 -24.129  0.00  0.00    +0.118 C 
ATOM     15  C   UNL     1      31.995  -9.956 -22.552  0.00  0.00    +0.119 C 
ATOM     16  C   UNL     1      32.585  -9.133 -23.485  0.00  0.00    +0.120 C 
ENDBRANCH   6  13
BRANCH   4  17
ATOM     17  C   UNL     1      35.684 -19.096 -21.737  0.00  0.00    +0.113 C 
BRANCH  17  19
ATOM     18  N   UNL     1      36.517 -21.155 -18.671  0.00  0.00    -0.244 NA
ATOM     19  C   UNL     1      35.512 -19.986 -20.534  0.00  0.00    +0.006 C 
ATOM     20  C   UNL     1      34.132 -21.282 -19.050  0.00  0.00    -0.004 C 
ATOM     21  C   UNL     1      35.281 -21.597 -18.344  0.00  0.00    +0.077 C 
ATOM     22  C   UNL     1      34.259 -20.461 -20.165  0.00  0.00    -0.005 C 
ATOM     23  C   UNL     1      36.600 -20.360 -19.760  0.00  0.00    +0.095 C 
ATOM     24  C   UNL     1      32.787 -21.790 -18.658  0.00  0.00    +0.033 C 
BRANCH  21  26
ATOM     25  N   UNL     1      35.187 -24.081 -14.907  0.00  0.00    -0.248 NA
ATOM     26  C   UNL     1      35.249 -22.444 -17.172  0.00  0.00    +0.020 C 
ATOM     27  C   UNL     1      36.383 -22.582 -16.379  0.00  0.00    +0.016 C 
ATOM     28  C   UNL     1      34.084 -23.123 -16.834  0.00  0.00    +0.022 C 
ATOM     29  C   UNL     1      36.300 -23.406 -15.267  0.00  0.00    +0.059 C 
ATOM     30  C   UNL     1      34.104 -23.922 -15.702  0.00  0.00    +0.098 C 
ATOM     31  C   UNL     1      37.498 -23.578 -14.394  0.00  0.00    +0.052 C 
ENDBRANCH  21  26
ENDBRANCH  17  19
ENDBRANCH   4  17
TORSDOF 4
ENDMDL
MODEL 7
REMARK VINA RESULT:     -11.6      1.483     10.714
REMARK  Name = 46926973
REMARK  4 active torsions:
REMARK  status: ('A' for Active; 'I' for Inactive)
REMARK    1  A    between atoms: C_4  and  C_17
REMARK    2  A    between atoms: C_6  and  C_13
REMARK    3  A    between atoms: C_17  and  C_19
REMARK    4  A    between atoms: C_21  and  C_26
REMARK                            x       y       z     vdW  Elec       q    Type
REMARK                         _______ _______ _______ _____ _____    ______ ____
ROOT
ATOM      1  O   UNL     1      35.602 -17.355 -20.291  0.00  0.00    -0.274 OA
ATOM      2  N   UNL     1      34.924 -17.304 -22.542  0.00  0.00    -0.269 N 
ATOM      3  N   UNL     1      34.124 -15.592 -23.964  0.00  0.00    -0.229 NA
ATOM      4  C   UNL     1      35.403 -17.904 -21.370  0.00  0.00    +0.232 C 
ATOM      5  C   UNL     1      34.568 -15.965 -22.743  0.00  0.00    +0.134 C 
ATOM      6  C   UNL     1      33.889 -13.346 -23.099  0.00  0.00    +0.038 C 
ATOM      7  C   UNL     1      34.698 -15.101 -21.667  0.00  0.00    +0.035 C 
ATOM      8  C   UNL     1      34.349 -13.769 -21.856  0.00  0.00    +0.006 C 
ATOM      9  C   UNL     1      33.794 -14.288 -24.110  0.00  0.00    +0.102 C 
ATOM     10  H   UNL     1      34.824 -17.898 -23.321  0.00  0.00    +0.156 HD
ENDROOT
BRANCH   6  13
ATOM     11  N   UNL     1      32.618 -11.451 -22.467  0.00  0.00    -0.241 NA
ATOM     12  N   UNL     1      33.701  -9.945 -24.569  0.00  0.00    -0.239 NA
ATOM     13  C   UNL     1      33.518 -11.970 -23.326  0.00  0.00    +0.102 C 
ATOM     14  C   UNL     1      34.050 -11.229 -24.359  0.00  0.00    +0.118 C 
ATOM     15  C   UNL     1      32.271 -10.166 -22.677  0.00  0.00    +0.119 C 
ATOM     16  C   UNL     1      32.801  -9.426 -23.710  0.00  0.00    +0.120 C 
ENDBRANCH   6  13
BRANCH   4  17
ATOM     17  C   UNL     1      35.669 -19.386 -21.588  0.00  0.00    +0.113 C 
BRANCH  17  19
ATOM     18  N   UNL     1      33.500 -21.315 -19.157  0.00  0.00    -0.244 NA
ATOM     19  C   UNL     1      35.263 -20.246 -20.419  0.00  0.00    +0.006 C 
ATOM     20  C   UNL     1      35.807 -21.547 -18.471  0.00  0.00    -0.004 C 
ATOM     21  C   UNL     1      34.452 -21.794 -18.325  0.00  0.00    +0.077 C 
ATOM     22  C   UNL     1      36.212 -20.757 -19.542  0.00  0.00    -0.005 C 
ATOM     23  C   UNL     1      33.931 -20.551 -20.185  0.00  0.00    +0.095 C 
ATOM     24  C   UNL     1      36.826 -22.092 -17.531  0.00  0.00    +0.033 C 
BRANCH  21  26
ATOM     25  N   UNL     1      32.938 -24.166 -15.151  0.00  0.00    -0.248 NA
ATOM     26  C   UNL     1      33.936 -22.603 -17.243  0.00  0.00    +0.020 C 
ATOM     27  C   UNL     1      34.803 -23.141 -16.298  0.00  0.00    +0.016 C 
ATOM     28  C   UNL     1      32.570 -22.845 -17.142  0.00  0.00    +0.022 C 
ATOM     29  C   UNL     1      34.258 -23.909 -15.281  0.00  0.00    +0.059 C 
ATOM     30  C   UNL     1      32.126 -23.626 -16.087  0.00  0.00    +0.098 C 
ATOM     31  C   UNL     1      35.159 -24.503 -14.250  0.00  0.00    +0.052 C 
ENDBRANCH  21  26
ENDBRANCH  17  19
ENDBRANCH   4  17
TORSDOF 4
ENDMDL
MODEL 8
REMARK VINA RESULT:     -11.5      1.324      2.125
REMARK  Name = 46926973
REMARK  4 active torsions:
REMARK  status: ('A' for Active; 'I' for Inactive)
REMARK    1  A    between atoms: C_4  and  C_17
REMARK    2  A    between atoms: C_6  and  C_13
REMARK    3  A    between atoms: C_17  and  C_19
REMARK    4  A    between atoms: C_21  and  C_26
REMARK                            x       y       z     vdW  Elec       q    Type
REMARK                         _______ _______ _______ _____ _____    ______ ____
ROOT
ATOM      1  O   UNL     1      33.495 -19.187 -23.166  0.00  0.00    -0.274 OA
ATOM      2  N   UNL     1      35.592 -18.603 -22.274  0.00  0.00    -0.269 N 
ATOM      3  N   UNL     1      36.816 -19.325 -20.383  0.00  0.00    -0.229 NA
ATOM      4  C   UNL     1      34.534 -18.534 -23.191  0.00  0.00    +0.232 C 
ATOM      5  C   UNL     1      35.699 -19.417 -21.140  0.00  0.00    +0.134 C 
ATOM      6  C   UNL     1      35.877 -21.022 -18.941  0.00  0.00    +0.038 C 
ATOM      7  C   UNL     1      34.645 -20.274 -20.866  0.00  0.00    +0.035 C 
ATOM      8  C   UNL     1      34.743 -21.088 -19.743  0.00  0.00    +0.006 C 
ATOM      9  C   UNL     1      36.876 -20.132 -19.300  0.00  0.00    +0.102 C 
ATOM     10  H   UNL     1      36.353 -18.004 -22.448  0.00  0.00    +0.156 HD
ENDROOT
BRANCH   6  13
ATOM     11  N   UNL     1      34.916 -22.567 -17.425  0.00  0.00    -0.241 NA
ATOM     12  N   UNL     1      37.295 -22.694 -15.947  0.00  0.00    -0.239 NA
ATOM     13  C   UNL     1      36.008 -21.854 -17.768  0.00  0.00    +0.102 C 
ATOM     14  C   UNL     1      37.177 -21.917 -17.042  0.00  0.00    +0.118 C 
ATOM     15  C   UNL     1      35.036 -23.345 -16.331  0.00  0.00    +0.119 C 
ATOM     16  C   UNL     1      36.204 -23.407 -15.605  0.00  0.00    +0.120 C 
ENDBRANCH   6  13
BRANCH   4  17
ATOM     17  C   UNL     1      34.826 -17.514 -24.280  0.00  0.00    +0.113 C 
BRANCH  17  19
ATOM     18  N   UNL     1      33.499 -13.979 -24.557  0.00  0.00    -0.244 NA
ATOM     19  C   UNL     1      34.440 -16.107 -23.903  0.00  0.00    +0.006 C 
ATOM     20  C   UNL     1      34.283 -14.324 -22.296  0.00  0.00    -0.004 C 
ATOM     21  C   UNL     1      33.717 -13.548 -23.294  0.00  0.00    +0.077 C 
ATOM     22  C   UNL     1      34.649 -15.628 -22.615  0.00  0.00    -0.005 C 
ATOM     23  C   UNL     1      33.867 -15.250 -24.829  0.00  0.00    +0.095 C 
ATOM     24  C   UNL     1      34.509 -13.813 -20.915  0.00  0.00    +0.033 C 
BRANCH  21  26
ATOM     25  N   UNL     1      32.511  -9.541 -22.601  0.00  0.00    -0.248 NA
ATOM     26  C   UNL     1      33.306 -12.182 -23.057  0.00  0.00    +0.020 C 
ATOM     27  C   UNL     1      34.008 -11.131 -23.639  0.00  0.00    +0.016 C 
ATOM     28  C   UNL     1      32.208 -11.914 -22.249  0.00  0.00    +0.022 C 
ATOM     29  C   UNL     1      33.573  -9.840 -23.381  0.00  0.00    +0.059 C 
ATOM     30  C   UNL     1      31.854 -10.588 -22.053  0.00  0.00    +0.098 C 
ATOM     31  C   UNL     1      34.303  -8.688 -23.987  0.00  0.00    +0.052 C 
ENDBRANCH  21  26
ENDBRANCH  17  19
ENDBRANCH   4  17
TORSDOF 4
ENDMDL
MODEL 9
REMARK VINA RESULT:     -11.2      1.571      2.133
REMARK  Name = 46926973
REMARK  4 active torsions:
REMARK  status: ('A' for Active; 'I' for Inactive)
REMARK    1  A    between atoms: C_4  and  C_17
REMARK    2  A    between atoms: C_6  and  C_13
REMARK    3  A    between atoms: C_17  and  C_19
REMARK    4  A    between atoms: C_21  and  C_26
REMARK                            x       y       z     vdW  Elec       q    Type
REMARK                         _______ _______ _______ _____ _____    ______ ____
ROOT
ATOM      1  O   UNL     1      33.375 -19.652 -21.943  0.00  0.00    -0.274 OA
ATOM      2  N   UNL     1      35.396 -20.268 -20.908  0.00  0.00    -0.269 N 
ATOM      3  N   UNL     1      35.918 -21.484 -18.948  0.00  0.00    -0.229 NA
ATOM      4  C   UNL     1      34.601 -19.664 -21.893  0.00  0.00    +0.232 C 
ATOM      5  C   UNL     1      34.976 -20.980 -19.777  0.00  0.00    +0.134 C 
ATOM      6  C   UNL     1      34.123 -22.365 -17.587  0.00  0.00    +0.038 C 
ATOM      7  C   UNL     1      33.612 -21.124 -19.583  0.00  0.00    +0.035 C 
ATOM      8  C   UNL     1      33.186 -21.830 -18.464  0.00  0.00    +0.006 C 
ATOM      9  C   UNL     1      35.465 -22.165 -17.871  0.00  0.00    +0.102 C 
ATOM     10  H   UNL     1      36.369 -20.180 -21.026  0.00  0.00    +0.156 HD
ENDROOT
BRANCH   6  13
ATOM     11  N   UNL     1      34.701 -23.679 -15.704  0.00  0.00    -0.241 NA
ATOM     12  N   UNL     1      32.009 -23.904 -14.955  0.00  0.00    -0.239 NA
ATOM     13  C   UNL     1      33.712 -23.103 -16.417  0.00  0.00    +0.102 C 
ATOM     14  C   UNL     1      32.389 -23.214 -16.048  0.00  0.00    +0.118 C 
ATOM     15  C   UNL     1      34.320 -24.368 -14.611  0.00  0.00    +0.119 C 
ATOM     16  C   UNL     1      32.998 -24.480 -14.243  0.00  0.00    +0.120 C 
ENDBRANCH   6  13
BRANCH   4  17
ATOM     17  C   UNL     1      35.464 -18.994 -22.950  0.00  0.00    +0.113 C 
BRANCH  17  19
ATOM     18  N   UNL     1      34.277 -15.977 -24.906  0.00  0.00    -0.244 NA
ATOM     19  C   UNL     1      35.036 -17.585 -23.268  0.00  0.00    +0.006 C 
ATOM     20  C   UNL     1      34.598 -15.315 -22.602  0.00  0.00    -0.004 C 
ATOM     21  C   UNL     1      34.252 -15.054 -23.918  0.00  0.00    +0.077 C 
ATOM     22  C   UNL     1      34.997 -16.608 -22.280  0.00  0.00    -0.005 C 
ATOM     23  C   UNL     1      34.670 -17.221 -24.554  0.00  0.00    +0.095 C 
ATOM     24  C   UNL     1      34.558 -14.269 -21.541  0.00  0.00    +0.033 C 
BRANCH  21  26
ATOM     25  N   UNL     1      33.003 -11.203 -25.183  0.00  0.00    -0.248 NA
ATOM     26  C   UNL     1      33.826 -13.741 -24.349  0.00  0.00    +0.020 C 
ATOM     27  C   UNL     1      33.749 -12.696 -23.434  0.00  0.00    +0.016 C 
ATOM     28  C   UNL     1      33.492 -13.518 -25.680  0.00  0.00    +0.022 C 
ATOM     29  C   UNL     1      33.335 -11.457 -23.898  0.00  0.00    +0.059 C 
ATOM     30  C   UNL     1      33.090 -12.242 -26.043  0.00  0.00    +0.098 C 
ATOM     31  C   UNL     1      33.240 -10.314 -22.944  0.00  0.00    +0.052 C 
ENDBRANCH  21  26
ENDBRANCH  17  19
ENDBRANCH   4  17
TORSDOF 4
ENDMDL
