MODEL 1
REMARK VINA RESULT:     -11.5      0.000      0.000
REMARK  Name = 10267580
REMARK  2 active torsions:
REMARK  status: ('A' for Active; 'I' for Inactive)
REMARK    1  A    between atoms: N_1  and  C_21
REMARK    2  A    between atoms: C_7  and  C_14
REMARK                            x       y       z     vdW  Elec       q    Type
REMARK                         _______ _______ _______ _____ _____    ______ ____
ROOT
ATOM      1  N   UNL     1      35.689 -23.516 -16.170  0.00  0.00    -0.290 N 
ATOM      2  N   UNL     1      33.338 -23.450 -16.121  0.00  0.00    -0.327 NA
ATOM      3  N   UNL     1      32.108 -22.216 -17.785  0.00  0.00    -0.342 NA
ATOM      4  C   UNL     1      34.504 -22.258 -17.870  0.00  0.00    +0.143 C 
ATOM      5  C   UNL     1      34.472 -23.063 -16.735  0.00  0.00    +0.184 C 
ATOM      6  C   UNL     1      33.259 -21.847 -18.375  0.00  0.00    +0.133 C 
ATOM      7  C   UNL     1      32.210 -22.997 -16.692  0.00  0.00    +0.165 C 
ATOM      8  C   UNL     1      35.702 -21.866 -18.494  0.00  0.00    -0.011 C 
ATOM      9  C   UNL     1      33.252 -21.041 -19.510  0.00  0.00    +0.029 C 
ATOM     10  C   UNL     1      35.665 -21.059 -19.627  0.00  0.00    -0.004 C 
ATOM     11  C   UNL     1      34.438 -20.646 -20.135  0.00  0.00    +0.002 C 
ATOM     12  H   UNL     1      36.464 -23.542 -16.778  0.00  0.00    +0.154 HD
ENDROOT
BRANCH   7  14
ATOM     13  N   UNL     1      29.866 -22.782 -16.556  0.00  0.00    -0.398 NA
ATOM     14  C   UNL     1      30.973 -23.388 -16.067  0.00  0.00    +0.197 C 
ATOM     15  C   UNL     1      30.951 -24.322 -15.040  0.00  0.00    +0.098 C 
ATOM     16  C   UNL     1      28.688 -23.128 -15.989  0.00  0.00    +0.110 C 
ATOM     17  C   UNL     1      29.721 -24.651 -14.482  0.00  0.00    -0.016 C 
ATOM     18  C   UNL     1      28.563 -24.048 -14.960  0.00  0.00    +0.023 C 
ATOM     19  C   UNL     1      27.466 -22.461 -16.527  0.00  0.00    +0.066 C 
ENDBRANCH   7  14
BRANCH   1  21
ATOM     20  N   UNL     1      36.416 -24.763 -12.220  0.00  0.00    -0.242 NA
ATOM     21  C   UNL     1      35.928 -23.926 -14.871  0.00  0.00    +0.053 C 
ATOM     22  C   UNL     1      36.215 -25.269 -14.576  0.00  0.00    +0.035 C 
ATOM     23  C   UNL     1      35.892 -23.014 -13.804  0.00  0.00    +0.035 C 
ATOM     24  C   UNL     1      36.447 -25.629 -13.259  0.00  0.00    +0.100 C 
ATOM     25  C   UNL     1      36.138 -23.475 -12.521  0.00  0.00    +0.100 C 
ENDBRANCH   1  21
TORSDOF 2
ENDMDL
MODEL 2
REMARK VINA RESULT:     -11.2      1.515      6.788
REMARK  Name = 10267580
REMARK  2 active torsions:
REMARK  status: ('A' for Active; 'I' for Inactive)
REMARK    1  A    between atoms: N_1  and  C_21
REMARK    2  A    between atoms: C_7  and  C_14
REMARK                            x       y       z     vdW  Elec       q    Type
REMARK                         _______ _______ _______ _____ _____    ______ ____
ROOT
ATOM      1  N   UNL     1      32.691 -22.497 -18.027  0.00  0.00    -0.290 N 
ATOM      2  N   UNL     1      34.224 -23.306 -16.437  0.00  0.00    -0.327 NA
ATOM      3  N   UNL     1      33.464 -24.130 -14.305  0.00  0.00    -0.342 NA
ATOM      4  C   UNL     1      31.868 -23.315 -15.898  0.00  0.00    +0.143 C 
ATOM      5  C   UNL     1      32.939 -23.056 -16.749  0.00  0.00    +0.184 C 
ATOM      6  C   UNL     1      32.190 -23.869 -14.648  0.00  0.00    +0.133 C 
ATOM      7  C   UNL     1      34.411 -23.835 -15.217  0.00  0.00    +0.165 C 
ATOM      8  C   UNL     1      30.533 -23.044 -16.247  0.00  0.00    -0.011 C 
ATOM      9  C   UNL     1      31.145 -24.141 -13.770  0.00  0.00    +0.029 C 
ATOM     10  C   UNL     1      29.509 -23.326 -15.348  0.00  0.00    -0.004 C 
ATOM     11  C   UNL     1      29.815 -23.875 -14.109  0.00  0.00    +0.002 C 
ATOM     12  H   UNL     1      31.787 -22.637 -18.391  0.00  0.00    +0.154 HD
ENDROOT
BRANCH   7  14
ATOM     13  N   UNL     1      35.926 -25.145 -13.972  0.00  0.00    -0.398 NA
ATOM     14  C   UNL     1      35.772 -24.119 -14.841  0.00  0.00    +0.197 C 
ATOM     15  C   UNL     1      36.827 -23.375 -15.352  0.00  0.00    +0.098 C 
ATOM     16  C   UNL     1      37.193 -25.435 -13.599  0.00  0.00    +0.110 C 
ATOM     17  C   UNL     1      38.116 -23.703 -14.945  0.00  0.00    -0.016 C 
ATOM     18  C   UNL     1      38.310 -24.751 -14.052  0.00  0.00    +0.023 C 
ATOM     19  C   UNL     1      37.365 -26.565 -12.641  0.00  0.00    +0.066 C 
ENDBRANCH   7  14
BRANCH   1  21
ATOM     20  N   UNL     1      35.331 -20.309 -20.461  0.00  0.00    -0.242 NA
ATOM     21  C   UNL     1      33.558 -21.777 -18.828  0.00  0.00    +0.053 C 
ATOM     22  C   UNL     1      34.947 -21.973 -18.750  0.00  0.00    +0.035 C 
ATOM     23  C   UNL     1      33.081 -20.828 -19.745  0.00  0.00    +0.035 C 
ATOM     24  C   UNL     1      35.775 -21.226 -19.573  0.00  0.00    +0.100 C 
ATOM     25  C   UNL     1      33.992 -20.133 -20.524  0.00  0.00    +0.100 C 
ENDBRANCH   1  21
TORSDOF 2
ENDMDL
MODEL 3
REMARK VINA RESULT:     -10.9      1.463      5.161
REMARK  Name = 10267580
REMARK  2 active torsions:
REMARK  status: ('A' for Active; 'I' for Inactive)
REMARK    1  A    between atoms: N_1  and  C_21
REMARK    2  A    between atoms: C_7  and  C_14
REMARK                            x       y       z     vdW  Elec       q    Type
REMARK                         _______ _______ _______ _____ _____    ______ ____
ROOT
ATOM      1  N   UNL     1      34.672 -24.760 -13.584  0.00  0.00    -0.290 N 
ATOM      2  N   UNL     1      34.349 -23.566 -15.585  0.00  0.00    -0.327 NA
ATOM      3  N   UNL     1      32.129 -23.139 -16.418  0.00  0.00    -0.342 NA
ATOM      4  C   UNL     1      32.414 -24.361 -14.374  0.00  0.00    +0.143 C 
ATOM      5  C   UNL     1      33.788 -24.211 -14.545  0.00  0.00    +0.184 C 
ATOM      6  C   UNL     1      31.600 -23.790 -15.367  0.00  0.00    +0.133 C 
ATOM      7  C   UNL     1      33.473 -23.062 -16.470  0.00  0.00    +0.165 C 
ATOM      8  C   UNL     1      31.851 -25.040 -13.279  0.00  0.00    -0.011 C 
ATOM      9  C   UNL     1      30.221 -23.920 -15.229  0.00  0.00    +0.029 C 
ATOM     10  C   UNL     1      30.469 -25.155 -13.168  0.00  0.00    -0.004 C 
ATOM     11  C   UNL     1      29.654 -24.594 -14.144  0.00  0.00    +0.002 C 
ATOM     12  H   UNL     1      34.294 -24.909 -12.686  0.00  0.00    +0.154 HD
ENDROOT
BRANCH   7  14
ATOM     13  N   UNL     1      33.125 -21.797 -18.429  0.00  0.00    -0.398 NA
ATOM     14  C   UNL     1      34.032 -22.363 -17.599  0.00  0.00    +0.197 C 
ATOM     15  C   UNL     1      35.405 -22.295 -17.792  0.00  0.00    +0.098 C 
ATOM     16  C   UNL     1      33.619 -21.134 -19.499  0.00  0.00    +0.110 C 
ATOM     17  C   UNL     1      35.874 -21.604 -18.905  0.00  0.00    -0.016 C 
ATOM     18  C   UNL     1      34.970 -21.010 -19.779  0.00  0.00    +0.023 C 
ATOM     19  C   UNL     1      32.621 -20.509 -20.415  0.00  0.00    +0.066 C 
ENDBRANCH   7  14
BRANCH   1  21
ATOM     20  N   UNL     1      38.706 -25.837 -14.077  0.00  0.00    -0.242 NA
ATOM     21  C   UNL     1      35.998 -25.115 -13.746  0.00  0.00    +0.053 C 
ATOM     22  C   UNL     1      37.023 -24.400 -13.104  0.00  0.00    +0.035 C 
ATOM     23  C   UNL     1      36.365 -26.199 -14.558  0.00  0.00    +0.035 C 
ATOM     24  C   UNL     1      38.336 -24.795 -13.299  0.00  0.00    +0.100 C 
ATOM     25  C   UNL     1      37.708 -26.514 -14.688  0.00  0.00    +0.100 C 
ENDBRANCH   1  21
TORSDOF 2
ENDMDL
MODEL 4
REMARK VINA RESULT:     -10.7      1.442      6.648
REMARK  Name = 10267580
REMARK  2 active torsions:
REMARK  status: ('A' for Active; 'I' for Inactive)
REMARK    1  A    between atoms: N_1  and  C_21
REMARK    2  A    between atoms: C_7  and  C_14
REMARK                            x       y       z     vdW  Elec       q    Type
REMARK                         _______ _______ _______ _____ _____    ______ ____
ROOT
ATOM      1  N   UNL     1      32.689 -22.616 -17.837  0.00  0.00    -0.290 N 
ATOM      2  N   UNL     1      34.055 -23.334 -16.061  0.00  0.00    -0.327 NA
ATOM      3  N   UNL     1      33.082 -24.082 -13.988  0.00  0.00    -0.342 NA
ATOM      4  C   UNL     1      31.655 -23.359 -15.774  0.00  0.00    +0.143 C 
ATOM      5  C   UNL     1      32.807 -23.118 -16.517  0.00  0.00    +0.184 C 
ATOM      6  C   UNL     1      31.849 -23.856 -14.474  0.00  0.00    +0.133 C 
ATOM      7  C   UNL     1      34.117 -23.809 -14.806  0.00  0.00    +0.165 C 
ATOM      8  C   UNL     1      30.361 -23.125 -16.272  0.00  0.00    -0.011 C 
ATOM      9  C   UNL     1      30.720 -24.109 -13.700  0.00  0.00    +0.029 C 
ATOM     10  C   UNL     1      29.251 -23.386 -15.475  0.00  0.00    -0.004 C 
ATOM     11  C   UNL     1      29.431 -23.879 -14.188  0.00  0.00    +0.002 C 
ATOM     12  H   UNL     1      31.830 -22.786 -18.288  0.00  0.00    +0.154 HD
ENDROOT
BRANCH   7  14
ATOM     13  N   UNL     1      35.704 -23.440 -13.102  0.00  0.00    -0.398 NA
ATOM     14  C   UNL     1      35.434 -24.054 -14.278  0.00  0.00    +0.197 C 
ATOM     15  C   UNL     1      36.337 -24.866 -14.950  0.00  0.00    +0.098 C 
ATOM     16  C   UNL     1      36.934 -23.651 -12.580  0.00  0.00    +0.110 C 
ATOM     17  C   UNL     1      37.592 -25.058 -14.382  0.00  0.00    -0.016 C 
ATOM     18  C   UNL     1      37.904 -24.442 -13.175  0.00  0.00    +0.023 C 
ATOM     19  C   UNL     1      37.234 -22.975 -11.284  0.00  0.00    +0.066 C 
ENDBRANCH   7  14
BRANCH   1  21
ATOM     20  N   UNL     1      35.542 -20.484 -20.073  0.00  0.00    -0.242 NA
ATOM     21  C   UNL     1      33.628 -21.915 -18.572  0.00  0.00    +0.053 C 
ATOM     22  C   UNL     1      33.236 -20.960 -19.524  0.00  0.00    +0.035 C 
ATOM     23  C   UNL     1      35.002 -22.135 -18.391  0.00  0.00    +0.035 C 
ATOM     24  C   UNL     1      34.215 -20.285 -20.235  0.00  0.00    +0.100 C 
ATOM     25  C   UNL     1      35.902 -21.407 -19.153  0.00  0.00    +0.100 C 
ENDBRANCH   1  21
TORSDOF 2
ENDMDL
MODEL 5
REMARK VINA RESULT:     -10.7      1.802      6.620
REMARK  Name = 10267580
REMARK  2 active torsions:
REMARK  status: ('A' for Active; 'I' for Inactive)
REMARK    1  A    between atoms: N_1  and  C_21
REMARK    2  A    between atoms: C_7  and  C_14
REMARK                            x       y       z     vdW  Elec       q    Type
REMARK                         _______ _______ _______ _____ _____    ______ ____
ROOT
ATOM      1  N   UNL     1      32.933 -24.682 -13.135  0.00  0.00    -0.290 N 
ATOM      2  N   UNL     1      34.264 -23.636 -14.769  0.00  0.00    -0.327 NA
ATOM      3  N   UNL     1      36.551 -23.044 -14.299  0.00  0.00    -0.342 NA
ATOM      4  C   UNL     1      35.229 -24.109 -12.605  0.00  0.00    +0.143 C 
ATOM      5  C   UNL     1      34.178 -24.124 -13.517  0.00  0.00    +0.184 C 
ATOM      6  C   UNL     1      36.433 -23.542 -13.055  0.00  0.00    +0.133 C 
ATOM      7  C   UNL     1      35.461 -23.119 -15.088  0.00  0.00    +0.165 C 
ATOM      8  C   UNL     1      35.115 -24.625 -11.301  0.00  0.00    -0.011 C 
ATOM      9  C   UNL     1      37.506 -23.508 -12.169  0.00  0.00    +0.029 C 
ATOM     10  C   UNL     1      36.205 -24.578 -10.437  0.00  0.00    -0.004 C 
ATOM     11  C   UNL     1      37.401 -24.019 -10.872  0.00  0.00    +0.002 C 
ATOM     12  H   UNL     1      32.961 -25.331 -12.394  0.00  0.00    +0.154 HD
ENDROOT
BRANCH   7  14
ATOM     13  N   UNL     1      34.480 -22.656 -17.181  0.00  0.00    -0.398 NA
ATOM     14  C   UNL     1      35.596 -22.585 -16.418  0.00  0.00    +0.197 C 
ATOM     15  C   UNL     1      36.798 -22.044 -16.856  0.00  0.00    +0.098 C 
ATOM     16  C   UNL     1      34.576 -22.163 -18.437  0.00  0.00    +0.110 C 
ATOM     17  C   UNL     1      36.856 -21.548 -18.154  0.00  0.00    -0.016 C 
ATOM     18  C   UNL     1      35.729 -21.604 -18.965  0.00  0.00    +0.023 C 
ATOM     19  C   UNL     1      33.347 -22.240 -19.280  0.00  0.00    +0.066 C 
ENDBRANCH   7  14
BRANCH   1  21
ATOM     20  N   UNL     1      29.132 -23.907 -14.756  0.00  0.00    -0.242 NA
ATOM     21  C   UNL     1      31.683 -24.428 -13.668  0.00  0.00    +0.053 C 
ATOM     22  C   UNL     1      31.270 -23.115 -13.953  0.00  0.00    +0.035 C 
ATOM     23  C   UNL     1      30.785 -25.471 -13.942  0.00  0.00    +0.035 C 
ATOM     24  C   UNL     1      30.008 -22.913 -14.486  0.00  0.00    +0.100 C 
ATOM     25  C   UNL     1      29.544 -25.163 -14.476  0.00  0.00    +0.100 C 
ENDBRANCH   1  21
TORSDOF 2
ENDMDL
MODEL 6
REMARK VINA RESULT:     -10.5      1.157      5.699
REMARK  Name = 10267580
REMARK  2 active torsions:
REMARK  status: ('A' for Active; 'I' for Inactive)
REMARK    1  A    between atoms: N_1  and  C_21
REMARK    2  A    between atoms: C_7  and  C_14
REMARK                            x       y       z     vdW  Elec       q    Type
REMARK                         _______ _______ _______ _____ _____    ______ ____
ROOT
ATOM      1  N   UNL     1      31.383 -22.589 -16.663  0.00  0.00    -0.290 N 
ATOM      2  N   UNL     1      33.365 -23.368 -15.663  0.00  0.00    -0.327 NA
ATOM      3  N   UNL     1      35.502 -22.979 -16.704  0.00  0.00    -0.342 NA
ATOM      4  C   UNL     1      33.505 -22.169 -17.756  0.00  0.00    +0.143 C 
ATOM      5  C   UNL     1      32.794 -22.714 -16.692  0.00  0.00    +0.184 C 
ATOM      6  C   UNL     1      34.900 -22.331 -17.717  0.00  0.00    +0.133 C 
ATOM      7  C   UNL     1      34.703 -23.462 -15.733  0.00  0.00    +0.165 C 
ATOM      8  C   UNL     1      32.886 -21.490 -18.821  0.00  0.00    -0.011 C 
ATOM      9  C   UNL     1      35.646 -21.799 -18.766  0.00  0.00    +0.029 C 
ATOM     10  C   UNL     1      33.657 -20.969 -19.856  0.00  0.00    -0.004 C 
ATOM     11  C   UNL     1      35.038 -21.124 -19.828  0.00  0.00    +0.002 C 
ATOM     12  H   UNL     1      31.005 -21.846 -17.187  0.00  0.00    +0.154 HD
ENDROOT
BRANCH   7  14
ATOM     13  N   UNL     1      36.366 -24.974 -15.022  0.00  0.00    -0.398 NA
ATOM     14  C   UNL     1      35.355 -24.154 -14.651  0.00  0.00    +0.197 C 
ATOM     15  C   UNL     1      34.952 -23.971 -13.336  0.00  0.00    +0.098 C 
ATOM     16  C   UNL     1      36.998 -25.640 -14.028  0.00  0.00    +0.110 C 
ATOM     17  C   UNL     1      35.626 -24.673 -12.342  0.00  0.00    -0.016 C 
ATOM     18  C   UNL     1      36.670 -25.524 -12.687  0.00  0.00    +0.023 C 
ATOM     19  C   UNL     1      38.112 -26.544 -14.434  0.00  0.00    +0.066 C 
ENDBRANCH   7  14
BRANCH   1  21
ATOM     20  N   UNL     1      28.604 -24.996 -14.623  0.00  0.00    -0.242 NA
ATOM     21  C   UNL     1      30.468 -23.380 -15.992  0.00  0.00    +0.053 C 
ATOM     22  C   UNL     1      30.892 -24.378 -15.099  0.00  0.00    +0.035 C 
ATOM     23  C   UNL     1      29.088 -23.213 -16.181  0.00  0.00    +0.035 C 
ATOM     24  C   UNL     1      29.937 -25.145 -14.452  0.00  0.00    +0.100 C 
ATOM     25  C   UNL     1      28.213 -24.032 -15.485  0.00  0.00    +0.100 C 
ENDBRANCH   1  21
TORSDOF 2
ENDMDL
MODEL 7
REMARK VINA RESULT:     -10.4      0.764      1.755
REMARK  Name = 10267580
REMARK  2 active torsions:
REMARK  status: ('A' for Active; 'I' for Inactive)
REMARK    1  A    between atoms: N_1  and  C_21
REMARK    2  A    between atoms: C_7  and  C_14
REMARK                            x       y       z     vdW  Elec       q    Type
REMARK                         _______ _______ _______ _____ _____    ______ ____
ROOT
ATOM      1  N   UNL     1      35.776 -23.370 -16.031  0.00  0.00    -0.290 N 
ATOM      2  N   UNL     1      33.423 -23.368 -15.983  0.00  0.00    -0.327 NA
ATOM      3  N   UNL     1      32.160 -22.258 -17.708  0.00  0.00    -0.342 NA
ATOM      4  C   UNL     1      34.556 -22.236 -17.793  0.00  0.00    +0.143 C 
ATOM      5  C   UNL     1      34.546 -22.981 -16.617  0.00  0.00    +0.184 C 
ATOM      6  C   UNL     1      33.300 -21.888 -18.317  0.00  0.00    +0.133 C 
ATOM      7  C   UNL     1      32.283 -22.977 -16.575  0.00  0.00    +0.165 C 
ATOM      8  C   UNL     1      35.743 -21.843 -18.437  0.00  0.00    -0.011 C 
ATOM      9  C   UNL     1      33.271 -21.142 -19.492  0.00  0.00    +0.029 C 
ATOM     10  C   UNL     1      35.683 -21.098 -19.611  0.00  0.00    -0.004 C 
ATOM     11  C   UNL     1      34.445 -20.747 -20.138  0.00  0.00    +0.002 C 
ATOM     12  H   UNL     1      36.551 -23.405 -16.637  0.00  0.00    +0.154 HD
ENDROOT
BRANCH   7  14
ATOM     13  N   UNL     1      31.211 -24.132 -14.821  0.00  0.00    -0.398 NA
ATOM     14  C   UNL     1      31.057 -23.370 -15.929  0.00  0.00    +0.197 C 
ATOM     15  C   UNL     1      29.824 -22.980 -16.433  0.00  0.00    +0.098 C 
ATOM     16  C   UNL     1      30.078 -24.518 -14.192  0.00  0.00    +0.110 C 
ATOM     17  C   UNL     1      28.681 -23.397 -15.758  0.00  0.00    -0.016 C 
ATOM     18  C   UNL     1      28.802 -24.180 -14.616  0.00  0.00    +0.023 C 
ATOM     19  C   UNL     1      30.245 -25.357 -12.970  0.00  0.00    +0.066 C 
ENDBRANCH   7  14
BRANCH   1  21
ATOM     20  N   UNL     1      36.537 -24.384 -12.022  0.00  0.00    -0.242 NA
ATOM     21  C   UNL     1      36.026 -23.704 -14.713  0.00  0.00    +0.053 C 
ATOM     22  C   UNL     1      36.529 -22.755 -13.808  0.00  0.00    +0.035 C 
ATOM     23  C   UNL     1      35.785 -25.002 -14.235  0.00  0.00    +0.035 C 
ATOM     24  C   UNL     1      36.764 -23.139 -12.498  0.00  0.00    +0.100 C 
ATOM     25  C   UNL     1      36.053 -25.286 -12.905  0.00  0.00    +0.100 C 
ENDBRANCH   1  21
TORSDOF 2
ENDMDL
MODEL 8
REMARK VINA RESULT:     -10.2      1.609      6.197
REMARK  Name = 10267580
REMARK  2 active torsions:
REMARK  status: ('A' for Active; 'I' for Inactive)
REMARK    1  A    between atoms: N_1  and  C_21
REMARK    2  A    between atoms: C_7  and  C_14
REMARK                            x       y       z     vdW  Elec       q    Type
REMARK                         _______ _______ _______ _____ _____    ______ ____
ROOT
ATOM      1  N   UNL     1      32.588 -24.483 -14.665  0.00  0.00    -0.290 N 
ATOM      2  N   UNL     1      33.498 -23.185 -16.404  0.00  0.00    -0.327 NA
ATOM      3  N   UNL     1      35.861 -22.719 -16.483  0.00  0.00    -0.342 NA
ATOM      4  C   UNL     1      34.973 -24.046 -14.694  0.00  0.00    +0.143 C 
ATOM      5  C   UNL     1      33.719 -23.885 -15.275  0.00  0.00    +0.184 C 
ATOM      6  C   UNL     1      36.046 -23.426 -15.354  0.00  0.00    +0.133 C 
ATOM      7  C   UNL     1      34.598 -22.637 -16.947  0.00  0.00    +0.165 C 
ATOM      8  C   UNL     1      35.178 -24.782 -13.513  0.00  0.00    -0.011 C 
ATOM      9  C   UNL     1      37.317 -23.565 -14.801  0.00  0.00    +0.029 C 
ATOM     10  C   UNL     1      36.459 -24.903 -12.983  0.00  0.00    -0.004 C 
ATOM     11  C   UNL     1      37.529 -24.294 -13.628  0.00  0.00    +0.002 C 
ATOM     12  H   UNL     1      32.771 -25.252 -14.078  0.00  0.00    +0.154 HD
ENDROOT
BRANCH   7  14
ATOM     13  N   UNL     1      35.533 -21.336 -18.676  0.00  0.00    -0.398 NA
ATOM     14  C   UNL     1      34.407 -21.880 -18.156  0.00  0.00    +0.197 C 
ATOM     15  C   UNL     1      33.148 -21.735 -18.721  0.00  0.00    +0.098 C 
ATOM     16  C   UNL     1      35.386 -20.617 -19.812  0.00  0.00    +0.110 C 
ATOM     17  C   UNL     1      33.038 -20.988 -19.890  0.00  0.00    -0.016 C 
ATOM     18  C   UNL     1      34.173 -20.416 -20.451  0.00  0.00    +0.023 C 
ATOM     19  C   UNL     1      36.626 -20.018 -20.388  0.00  0.00    +0.066 C 
ENDBRANCH   7  14
BRANCH   1  21
ATOM     20  N   UNL     1      28.547 -23.383 -15.039  0.00  0.00    -0.242 NA
ATOM     21  C   UNL     1      31.260 -24.120 -14.788  0.00  0.00    +0.053 C 
ATOM     22  C   UNL     1      30.294 -25.045 -15.220  0.00  0.00    +0.035 C 
ATOM     23  C   UNL     1      30.831 -22.818 -14.485  0.00  0.00    +0.035 C 
ATOM     24  C   UNL     1      28.975 -24.633 -15.327  0.00  0.00    +0.100 C 
ATOM     25  C   UNL     1      29.488 -22.506 -14.625  0.00  0.00    +0.100 C 
ENDBRANCH   1  21
TORSDOF 2
ENDMDL
MODEL 9
REMARK VINA RESULT:      -9.8      1.492      5.471
REMARK  Name = 10267580
REMARK  2 active torsions:
REMARK  status: ('A' for Active; 'I' for Inactive)
REMARK    1  A    between atoms: N_1  and  C_21
REMARK    2  A    between atoms: C_7  and  C_14
REMARK                            x       y       z     vdW  Elec       q    Type
REMARK                         _______ _______ _______ _____ _____    ______ ____
ROOT
ATOM      1  N   UNL     1      33.766 -24.454 -12.702  0.00  0.00    -0.290 N 
ATOM      2  N   UNL     1      33.802 -23.589 -14.890  0.00  0.00    -0.327 NA
ATOM      3  N   UNL     1      31.820 -23.629 -16.260  0.00  0.00    -0.342 NA
ATOM      4  C   UNL     1      31.742 -24.519 -14.035  0.00  0.00    +0.143 C 
ATOM      5  C   UNL     1      33.085 -24.178 -13.914  0.00  0.00    +0.184 C 
ATOM      6  C   UNL     1      31.133 -24.216 -15.264  0.00  0.00    +0.133 C 
ATOM      7  C   UNL     1      33.116 -23.347 -16.019  0.00  0.00    +0.165 C 
ATOM      8  C   UNL     1      31.014 -25.135 -13.000  0.00  0.00    -0.011 C 
ATOM      9  C   UNL     1      29.789 -24.543 -15.422  0.00  0.00    +0.029 C 
ATOM     10  C   UNL     1      29.672 -25.451 -13.187  0.00  0.00    -0.004 C 
ATOM     11  C   UNL     1      29.059 -25.155 -14.399  0.00  0.00    +0.002 C 
ATOM     12  H   UNL     1      33.200 -24.546 -11.901  0.00  0.00    +0.154 HD
ENDROOT
BRANCH   7  14
ATOM     13  N   UNL     1      35.163 -22.528 -16.853  0.00  0.00    -0.398 NA
ATOM     14  C   UNL     1      33.844 -22.718 -17.091  0.00  0.00    +0.197 C 
ATOM     15  C   UNL     1      33.210 -22.346 -18.268  0.00  0.00    +0.098 C 
ATOM     16  C   UNL     1      35.875 -21.938 -17.841  0.00  0.00    +0.110 C 
ATOM     17  C   UNL     1      33.976 -21.742 -19.260  0.00  0.00    -0.016 C 
ATOM     18  C   UNL     1      35.334 -21.531 -19.049  0.00  0.00    +0.023 C 
ATOM     19  C   UNL     1      37.329 -21.728 -17.581  0.00  0.00    +0.066 C 
ENDBRANCH   7  14
BRANCH   1  21
ATOM     20  N   UNL     1      37.899 -24.937 -12.097  0.00  0.00    -0.242 NA
ATOM     21  C   UNL     1      35.125 -24.612 -12.503  0.00  0.00    +0.053 C 
ATOM     22  C   UNL     1      35.931 -25.237 -13.469  0.00  0.00    +0.035 C 
ATOM     23  C   UNL     1      35.744 -24.155 -11.329  0.00  0.00    +0.035 C 
ATOM     24  C   UNL     1      37.287 -25.373 -13.221  0.00  0.00    +0.100 C 
ATOM     25  C   UNL     1      37.109 -24.339 -11.177  0.00  0.00    +0.100 C 
ENDBRANCH   1  21
TORSDOF 2
ENDMDL
