MODEL 1
REMARK VINA RESULT:     -12.1      0.000      0.000
REMARK  Name = 25118925
REMARK  3 active torsions:
REMARK  status: ('A' for Active; 'I' for Inactive)
REMARK    1  A    between atoms: C_3  and  C_12
REMARK    2  A    between atoms: C_5  and  C_24
REMARK    3  A    between atoms: C_27  and  C_33
REMARK                            x       y       z     vdW  Elec       q    Type
REMARK                         _______ _______ _______ _____ _____    ______ ____
ROOT
ATOM      1  N   UNL     1      33.483 -12.753 -24.862  0.00  0.00    -0.279 N 
ATOM      2  N   UNL     1      33.965 -13.749 -22.936  0.00  0.00    -0.394 NA
ATOM      3  C   UNL     1      33.679 -12.604 -23.517  0.00  0.00    +0.160 C 
ATOM      4  C   UNL     1      33.656 -14.076 -25.157  0.00  0.00    +0.152 C 
ATOM      5  C   UNL     1      33.952 -14.670 -23.953  0.00  0.00    +0.130 C 
ATOM      6  C   UNL     1      33.155 -11.715 -25.810  0.00  0.00    +0.115 C 
ENDROOT
BRANCH   3  12
ATOM      7  N   UNL     1      32.500  -8.601 -22.403  0.00  0.00    -0.296 N 
ATOM      8  N   UNL     1      31.734  -6.955 -20.855  0.00  0.00    -0.233 NA
ATOM      9  N   UNL     1      31.170  -4.459 -23.959  0.00  0.00    -0.223 N 
ATOM     10  N   UNL     1      31.006  -4.736 -21.559  0.00  0.00    -0.232 NA
ATOM     11  N   UNL     1      31.541  -5.152 -25.052  0.00  0.00    -0.183 NA
ATOM     12  C   UNL     1      33.567 -11.258 -22.827  0.00  0.00    +0.070 C 
ATOM     13  C   UNL     1      32.178 -11.037 -22.212  0.00  0.00    +0.030 C 
ATOM     14  C   UNL     1      33.902 -10.095 -23.772  0.00  0.00    +0.030 C 
ATOM     15  C   UNL     1      32.096  -9.687 -21.499  0.00  0.00    +0.092 C 
ATOM     16  C   UNL     1      33.807  -8.747 -23.055  0.00  0.00    +0.092 C 
ATOM     17  C   UNL     1      32.006  -7.320 -22.131  0.00  0.00    +0.118 C 
ATOM     18  C   UNL     1      31.788  -6.405 -23.157  0.00  0.00    +0.152 C 
ATOM     19  C   UNL     1      31.297  -5.162 -22.798  0.00  0.00    +0.133 C 
ATOM     20  C   UNL     1      31.916  -6.336 -24.557  0.00  0.00    +0.105 C 
ATOM     21  C   UNL     1      31.258  -5.704 -20.651  0.00  0.00    +0.252 C 
ATOM     22  H   UNL     1      30.839  -3.533 -23.994  0.00  0.00    +0.176 HD
ENDBRANCH   3  12
BRANCH   5  24
ATOM     23  F   UNL     1      34.968 -20.092 -23.257  0.00  0.00    -0.204 F 
ATOM     24  C   UNL     1      34.216 -16.064 -23.772  0.00  0.00    +0.027 C 
ATOM     25  C   UNL     1      34.952 -16.498 -22.670  0.00  0.00    +0.008 C 
ATOM     26  C   UNL     1      33.733 -16.990 -24.697  0.00  0.00    +0.005 C 
ATOM     27  C   UNL     1      35.208 -17.857 -22.493  0.00  0.00    +0.099 C 
ATOM     28  C   UNL     1      33.989 -18.350 -24.521  0.00  0.00    +0.030 C 
ATOM     29  C   UNL     1      34.727 -18.783 -23.418  0.00  0.00    +0.144 C 
BRANCH  27  33
ATOM     30  F   UNL     1      35.969 -17.448 -20.263  0.00  0.00    -0.166 F 
ATOM     31  F   UNL     1      35.568 -19.509 -20.802  0.00  0.00    -0.166 F 
ATOM     32  F   UNL     1      37.319 -18.498 -21.605  0.00  0.00    -0.166 F 
ATOM     33  C   UNL     1      35.997 -18.319 -21.315  0.00  0.00    +0.421 C 
ENDBRANCH  27  33
ENDBRANCH   5  24
TORSDOF 3
ENDMDL
MODEL 2
REMARK VINA RESULT:     -11.5      2.176      3.442
REMARK  Name = 25118925
REMARK  3 active torsions:
REMARK  status: ('A' for Active; 'I' for Inactive)
REMARK    1  A    between atoms: C_3  and  C_12
REMARK    2  A    between atoms: C_5  and  C_24
REMARK    3  A    between atoms: C_27  and  C_33
REMARK                            x       y       z     vdW  Elec       q    Type
REMARK                         _______ _______ _______ _____ _____    ______ ____
ROOT
ATOM      1  N   UNL     1      31.910 -11.082 -21.287  0.00  0.00    -0.279 N 
ATOM      2  N   UNL     1      33.242 -11.217 -23.059  0.00  0.00    -0.394 NA
ATOM      3  C   UNL     1      32.603 -10.402 -22.250  0.00  0.00    +0.160 C 
ATOM      4  C   UNL     1      32.121 -12.416 -21.496  0.00  0.00    +0.152 C 
ATOM      5  C   UNL     1      32.946 -12.474 -22.594  0.00  0.00    +0.130 C 
ATOM      6  C   UNL     1      31.099 -10.512 -20.238  0.00  0.00    +0.115 C 
ENDROOT
BRANCH   3  12
ATOM      7  N   UNL     1      32.799  -6.324 -23.662  0.00  0.00    -0.296 N 
ATOM      8  N   UNL     1      31.937  -4.116 -23.931  0.00  0.00    -0.233 NA
ATOM      9  N   UNL     1      34.892  -3.405 -26.567  0.00  0.00    -0.223 N 
ATOM     10  N   UNL     1      32.957  -2.489 -25.435  0.00  0.00    -0.232 NA
ATOM     11  N   UNL     1      35.600  -4.548 -26.634  0.00  0.00    -0.183 NA
ATOM     12  C   UNL     1      32.600  -8.887 -22.331  0.00  0.00    +0.070 C 
ATOM     13  C   UNL     1      31.475  -8.358 -23.232  0.00  0.00    +0.030 C 
ATOM     14  C   UNL     1      33.948  -8.331 -22.813  0.00  0.00    +0.030 C 
ATOM     15  C   UNL     1      31.474  -6.830 -23.277  0.00  0.00    +0.092 C 
ATOM     16  C   UNL     1      33.936  -6.803 -22.866  0.00  0.00    +0.092 C 
ATOM     17  C   UNL     1      32.858  -5.057 -24.253  0.00  0.00    +0.118 C 
ATOM     18  C   UNL     1      33.854  -4.742 -25.172  0.00  0.00    +0.152 C 
ATOM     19  C   UNL     1      33.836  -3.466 -25.707  0.00  0.00    +0.133 C 
ATOM     20  C   UNL     1      34.962  -5.358 -25.782  0.00  0.00    +0.105 C 
ATOM     21  C   UNL     1      32.043  -2.908 -24.534  0.00  0.00    +0.252 C 
ATOM     22  H   UNL     1      35.116  -2.601 -27.088  0.00  0.00    +0.176 HD
ENDBRANCH   3  12
BRANCH   5  24
ATOM     23  F   UNL     1      34.847 -17.161 -24.903  0.00  0.00    -0.204 F 
ATOM     24  C   UNL     1      33.437 -13.681 -23.185  0.00  0.00    +0.027 C 
ATOM     25  C   UNL     1      34.059 -14.644 -22.392  0.00  0.00    +0.008 C 
ATOM     26  C   UNL     1      33.290 -13.895 -24.556  0.00  0.00    +0.005 C 
ATOM     27  C   UNL     1      34.537 -15.821 -22.968  0.00  0.00    +0.099 C 
ATOM     28  C   UNL     1      33.768 -15.070 -25.134  0.00  0.00    +0.030 C 
ATOM     29  C   UNL     1      34.391 -16.034 -24.339  0.00  0.00    +0.144 C 
BRANCH  27  33
ATOM     30  F   UNL     1      34.607 -18.077 -22.178  0.00  0.00    -0.166 F 
ATOM     31  F   UNL     1      36.509 -17.071 -22.451  0.00  0.00    -0.166 F 
ATOM     32  F   UNL     1      35.213 -16.512 -20.796  0.00  0.00    -0.166 F 
ATOM     33  C   UNL     1      35.203 -16.849 -22.119  0.00  0.00    +0.421 C 
ENDBRANCH  27  33
ENDBRANCH   5  24
TORSDOF 3
ENDMDL
MODEL 3
REMARK VINA RESULT:     -11.2      1.367      2.592
REMARK  Name = 25118925
REMARK  3 active torsions:
REMARK  status: ('A' for Active; 'I' for Inactive)
REMARK    1  A    between atoms: C_3  and  C_12
REMARK    2  A    between atoms: C_5  and  C_24
REMARK    3  A    between atoms: C_27  and  C_33
REMARK                            x       y       z     vdW  Elec       q    Type
REMARK                         _______ _______ _______ _____ _____    ______ ____
ROOT
ATOM      1  N   UNL     1      32.640 -11.885 -21.857  0.00  0.00    -0.279 N 
ATOM      2  N   UNL     1      33.656 -12.584 -23.705  0.00  0.00    -0.394 NA
ATOM      3  C   UNL     1      33.086 -11.560 -23.108  0.00  0.00    +0.160 C 
ATOM      4  C   UNL     1      32.946 -13.200 -21.643  0.00  0.00    +0.152 C 
ATOM      5  C   UNL     1      33.571 -13.609 -22.796  0.00  0.00    +0.130 C 
ATOM      6  C   UNL     1      31.968 -11.014 -20.922  0.00  0.00    +0.115 C 
ENDROOT
BRANCH   3  12
ATOM      7  N   UNL     1      32.651  -7.289 -23.585  0.00  0.00    -0.296 N 
ATOM      8  N   UNL     1      33.270  -5.169 -24.488  0.00  0.00    -0.233 NA
ATOM      9  N   UNL     1      30.781  -3.441 -21.842  0.00  0.00    -0.223 N 
ATOM     10  N   UNL     1      32.350  -3.072 -23.650  0.00  0.00    -0.232 NA
ATOM     11  N   UNL     1      30.244  -4.453 -21.137  0.00  0.00    -0.183 NA
ATOM     12  C   UNL     1      32.917 -10.170 -23.690  0.00  0.00    +0.070 C 
ATOM     13  C   UNL     1      34.114  -9.261 -23.375  0.00  0.00    +0.030 C 
ATOM     14  C   UNL     1      31.622  -9.496 -23.214  0.00  0.00    +0.030 C 
ATOM     15  C   UNL     1      33.936  -7.875 -23.993  0.00  0.00    +0.092 C 
ATOM     16  C   UNL     1      31.456  -8.105 -23.828  0.00  0.00    +0.092 C 
ATOM     17  C   UNL     1      32.547  -5.894 -23.601  0.00  0.00    +0.118 C 
ATOM     18  C   UNL     1      31.704  -5.230 -22.714  0.00  0.00    +0.152 C 
ATOM     19  C   UNL     1      31.663  -3.850 -22.799  0.00  0.00    +0.133 C 
ATOM     20  C   UNL     1      30.809  -5.540 -21.673  0.00  0.00    +0.105 C 
ATOM     21  C   UNL     1      33.129  -3.823 -24.458  0.00  0.00    +0.252 C 
ATOM     22  H   UNL     1      30.560  -2.495 -21.683  0.00  0.00    +0.176 HD
ENDBRANCH   3  12
BRANCH   5  24
ATOM     23  F   UNL     1      35.514 -18.736 -23.723  0.00  0.00    -0.204 F 
ATOM     24  C   UNL     1      34.073 -14.928 -23.032  0.00  0.00    +0.027 C 
ATOM     25  C   UNL     1      34.597 -15.674 -21.977  0.00  0.00    +0.008 C 
ATOM     26  C   UNL     1      34.034 -15.469 -24.317  0.00  0.00    +0.005 C 
ATOM     27  C   UNL     1      35.085 -16.960 -22.207  0.00  0.00    +0.099 C 
ATOM     28  C   UNL     1      34.522 -16.754 -24.548  0.00  0.00    +0.030 C 
ATOM     29  C   UNL     1      35.047 -17.500 -23.492  0.00  0.00    +0.144 C 
BRANCH  27  33
ATOM     30  F   UNL     1      34.973 -18.921 -20.842  0.00  0.00    -0.166 F 
ATOM     31  F   UNL     1      36.947 -18.129 -21.266  0.00  0.00    -0.166 F 
ATOM     32  F   UNL     1      35.627 -17.076 -19.895  0.00  0.00    -0.166 F 
ATOM     33  C   UNL     1      35.647 -17.756 -21.078  0.00  0.00    +0.421 C 
ENDBRANCH  27  33
ENDBRANCH   5  24
TORSDOF 3
ENDMDL
MODEL 4
REMARK VINA RESULT:     -10.5      1.982      2.907
REMARK  Name = 25118925
REMARK  3 active torsions:
REMARK  status: ('A' for Active; 'I' for Inactive)
REMARK    1  A    between atoms: C_3  and  C_12
REMARK    2  A    between atoms: C_5  and  C_24
REMARK    3  A    between atoms: C_27  and  C_33
REMARK                            x       y       z     vdW  Elec       q    Type
REMARK                         _______ _______ _______ _____ _____    ______ ____
ROOT
ATOM      1  N   UNL     1      33.618 -11.793 -24.420  0.00  0.00    -0.279 N 
ATOM      2  N   UNL     1      33.954 -12.070 -22.241  0.00  0.00    -0.394 NA
ATOM      3  C   UNL     1      33.676 -11.201 -23.189  0.00  0.00    +0.160 C 
ATOM      4  C   UNL     1      33.874 -13.125 -24.246  0.00  0.00    +0.152 C 
ATOM      5  C   UNL     1      34.078 -13.271 -22.894  0.00  0.00    +0.130 C 
ATOM      6  C   UNL     1      33.339 -11.147 -25.680  0.00  0.00    +0.115 C 
ENDROOT
BRANCH   3  12
ATOM      7  N   UNL     1      33.128  -6.968 -23.851  0.00  0.00    -0.296 N 
ATOM      8  N   UNL     1      31.925  -4.916 -23.657  0.00  0.00    -0.233 NA
ATOM      9  N   UNL     1      34.471  -3.302 -26.321  0.00  0.00    -0.223 N 
ATOM     10  N   UNL     1      32.541  -2.916 -24.910  0.00  0.00    -0.232 NA
ATOM     11  N   UNL     1      35.330  -4.287 -26.643  0.00  0.00    -0.183 NA
ATOM     12  C   UNL     1      33.441  -9.715 -22.994  0.00  0.00    +0.070 C 
ATOM     13  C   UNL     1      32.167  -9.233 -23.704  0.00  0.00    +0.030 C 
ATOM     14  C   UNL     1      34.639  -8.875 -23.461  0.00  0.00    +0.030 C 
ATOM     15  C   UNL     1      31.936  -7.740 -23.472  0.00  0.00    +0.092 C 
ATOM     16  C   UNL     1      34.394  -7.382 -23.237  0.00  0.00    +0.092 C 
ATOM     17  C   UNL     1      32.939  -5.628 -24.206  0.00  0.00    +0.118 C 
ATOM     18  C   UNL     1      33.783  -5.006 -25.121  0.00  0.00    +0.152 C 
ATOM     19  C   UNL     1      33.524  -3.678 -25.415  0.00  0.00    +0.133 C 
ATOM     20  C   UNL     1      34.906  -5.322 -25.909  0.00  0.00    +0.105 C 
ATOM     21  C   UNL     1      31.792  -3.623 -24.037  0.00  0.00    +0.252 C 
ATOM     22  H   UNL     1      34.521  -2.397 -26.703  0.00  0.00    +0.176 HD
ENDBRANCH   3  12
BRANCH   5  24
ATOM     23  F   UNL     1      35.262 -18.069 -20.348  0.00  0.00    -0.204 F 
ATOM     24  C   UNL     1      34.382 -14.507 -22.242  0.00  0.00    +0.027 C 
ATOM     25  C   UNL     1      34.618 -15.655 -22.997  0.00  0.00    +0.008 C 
ATOM     26  C   UNL     1      34.446 -14.562 -20.850  0.00  0.00    +0.005 C 
ATOM     27  C   UNL     1      34.915 -16.860 -22.361  0.00  0.00    +0.099 C 
ATOM     28  C   UNL     1      34.742 -15.766 -20.212  0.00  0.00    +0.030 C 
ATOM     29  C   UNL     1      34.977 -16.916 -20.968  0.00  0.00    +0.144 C 
BRANCH  27  33
ATOM     30  F   UNL     1      36.410 -18.619 -22.985  0.00  0.00    -0.166 F 
ATOM     31  F   UNL     1      34.299 -19.108 -22.898  0.00  0.00    -0.166 F 
ATOM     32  F   UNL     1      35.059 -17.863 -24.512  0.00  0.00    -0.166 F 
ATOM     33  C   UNL     1      35.165 -18.087 -23.170  0.00  0.00    +0.421 C 
ENDBRANCH  27  33
ENDBRANCH   5  24
TORSDOF 3
ENDMDL
MODEL 5
REMARK VINA RESULT:     -10.3      2.085      3.821
REMARK  Name = 25118925
REMARK  3 active torsions:
REMARK  status: ('A' for Active; 'I' for Inactive)
REMARK    1  A    between atoms: C_3  and  C_12
REMARK    2  A    between atoms: C_5  and  C_24
REMARK    3  A    between atoms: C_27  and  C_33
REMARK                            x       y       z     vdW  Elec       q    Type
REMARK                         _______ _______ _______ _____ _____    ______ ____
ROOT
ATOM      1  N   UNL     1      34.278 -15.647 -24.316  0.00  0.00    -0.279 N 
ATOM      2  N   UNL     1      34.233 -15.699 -22.096  0.00  0.00    -0.394 NA
ATOM      3  C   UNL     1      33.889 -15.017 -23.167  0.00  0.00    +0.160 C 
ATOM      4  C   UNL     1      34.910 -16.805 -23.956  0.00  0.00    +0.152 C 
ATOM      5  C   UNL     1      34.869 -16.814 -22.581  0.00  0.00    +0.130 C 
ATOM      6  C   UNL     1      34.070 -15.189 -25.669  0.00  0.00    +0.115 C 
ENDROOT
BRANCH   3  12
ATOM      7  N   UNL     1      32.614 -10.974 -22.341  0.00  0.00    -0.296 N 
ATOM      8  N   UNL     1      32.085  -8.733 -22.968  0.00  0.00    -0.233 NA
ATOM      9  N   UNL     1      31.982  -7.783 -19.061  0.00  0.00    -0.223 N 
ATOM     10  N   UNL     1      31.730  -6.965 -21.326  0.00  0.00    -0.232 NA
ATOM     11  N   UNL     1      32.261  -8.924 -18.404  0.00  0.00    -0.183 NA
ATOM     12  C   UNL     1      33.153 -13.691 -23.181  0.00  0.00    +0.070 C 
ATOM     13  C   UNL     1      34.067 -12.526 -23.587  0.00  0.00    +0.030 C 
ATOM     14  C   UNL     1      32.496 -13.381 -21.828  0.00  0.00    +0.030 C 
ATOM     15  C   UNL     1      33.299 -11.205 -23.621  0.00  0.00    +0.092 C 
ATOM     16  C   UNL     1      31.739 -12.052 -21.867  0.00  0.00    +0.092 C 
ATOM     17  C   UNL     1      32.322  -9.649 -21.998  0.00  0.00    +0.118 C 
ATOM     18  C   UNL     1      32.269  -9.251 -20.666  0.00  0.00    +0.152 C 
ATOM     19  C   UNL     1      31.975  -7.922 -20.417  0.00  0.00    +0.133 C 
ATOM     20  C   UNL     1      32.435  -9.814 -19.387  0.00  0.00    +0.105 C 
ATOM     21  C   UNL     1      31.808  -7.467 -22.577  0.00  0.00    +0.252 C 
ATOM     22  H   UNL     1      31.800  -6.929 -18.606  0.00  0.00    +0.176 HD
ENDBRANCH   3  12
BRANCH   5  24
ATOM     23  F   UNL     1      37.006 -20.818 -19.369  0.00  0.00    -0.204 F 
ATOM     24  C   UNL     1      35.415 -17.845 -21.754  0.00  0.00    +0.027 C 
ATOM     25  C   UNL     1      34.590 -18.854 -21.258  0.00  0.00    +0.008 C 
ATOM     26  C   UNL     1      36.776 -17.843 -21.446  0.00  0.00    +0.005 C 
ATOM     27  C   UNL     1      35.123 -19.859 -20.452  0.00  0.00    +0.099 C 
ATOM     28  C   UNL     1      37.310 -18.847 -20.640  0.00  0.00    +0.030 C 
ATOM     29  C   UNL     1      36.483 -19.856 -20.143  0.00  0.00    +0.144 C 
BRANCH  27  33
ATOM     30  F   UNL     1      34.090 -20.902 -18.565  0.00  0.00    -0.166 F 
ATOM     31  F   UNL     1      32.968 -20.894 -20.420  0.00  0.00    -0.166 F 
ATOM     32  F   UNL     1      34.705 -22.187 -20.207  0.00  0.00    -0.166 F 
ATOM     33  C   UNL     1      34.239 -20.936 -19.922  0.00  0.00    +0.421 C 
ENDBRANCH  27  33
ENDBRANCH   5  24
TORSDOF 3
ENDMDL
MODEL 6
REMARK VINA RESULT:     -10.2      1.304      2.739
REMARK  Name = 25118925
REMARK  3 active torsions:
REMARK  status: ('A' for Active; 'I' for Inactive)
REMARK    1  A    between atoms: C_3  and  C_12
REMARK    2  A    between atoms: C_5  and  C_24
REMARK    3  A    between atoms: C_27  and  C_33
REMARK                            x       y       z     vdW  Elec       q    Type
REMARK                         _______ _______ _______ _____ _____    ______ ____
ROOT
ATOM      1  N   UNL     1      33.555 -13.384 -25.057  0.00  0.00    -0.279 N 
ATOM      2  N   UNL     1      33.685 -13.417 -22.840  0.00  0.00    -0.394 NA
ATOM      3  C   UNL     1      33.363 -12.696 -23.891  0.00  0.00    +0.160 C 
ATOM      4  C   UNL     1      34.029 -14.623 -24.727  0.00  0.00    +0.152 C 
ATOM      5  C   UNL     1      34.101 -14.619 -23.354  0.00  0.00    +0.130 C 
ATOM      6  C   UNL     1      33.308 -12.907 -26.396  0.00  0.00    +0.115 C 
ENDROOT
BRANCH   3  12
ATOM      7  N   UNL     1      32.693  -8.539 -22.930  0.00  0.00    -0.296 N 
ATOM      8  N   UNL     1      32.537  -6.221 -23.475  0.00  0.00    -0.233 NA
ATOM      9  N   UNL     1      32.440  -5.416 -19.534  0.00  0.00    -0.223 N 
ATOM     10  N   UNL     1      32.399  -4.483 -21.768  0.00  0.00    -0.232 NA
ATOM     11  N   UNL     1      32.517  -6.611 -18.919  0.00  0.00    -0.183 NA
ATOM     12  C   UNL     1      32.839 -11.273 -23.870  0.00  0.00    +0.070 C 
ATOM     13  C   UNL     1      33.936 -10.248 -24.197  0.00  0.00    +0.030 C 
ATOM     14  C   UNL     1      32.189 -10.916 -22.525  0.00  0.00    +0.030 C 
ATOM     15  C   UNL     1      33.381  -8.824 -24.197  0.00  0.00    +0.092 C 
ATOM     16  C   UNL     1      31.647  -9.486 -22.528  0.00  0.00    +0.092 C 
ATOM     17  C   UNL     1      32.596  -7.199 -22.538  0.00  0.00    +0.118 C 
ATOM     18  C   UNL     1      32.557  -6.848 -21.192  0.00  0.00    +0.152 C 
ATOM     19  C   UNL     1      32.461  -5.500 -20.895  0.00  0.00    +0.133 C 
ATOM     20  C   UNL     1      32.588  -7.479 -19.934  0.00  0.00    +0.105 C 
ATOM     21  C   UNL     1      32.444  -4.942 -23.037  0.00  0.00    +0.252 C 
ATOM     22  H   UNL     1      32.375  -4.562 -19.048  0.00  0.00    +0.176 HD
ENDBRANCH   3  12
BRANCH   5  24
ATOM     23  F   UNL     1      35.848 -18.880 -20.240  0.00  0.00    -0.204 F 
ATOM     24  C   UNL     1      34.549 -15.717 -22.556  0.00  0.00    +0.027 C 
ATOM     25  C   UNL     1      34.715 -16.977 -23.130  0.00  0.00    +0.008 C 
ATOM     26  C   UNL     1      34.824 -15.528 -21.201  0.00  0.00    +0.005 C 
ATOM     27  C   UNL     1      35.153 -18.048 -22.351  0.00  0.00    +0.099 C 
ATOM     28  C   UNL     1      35.262 -16.597 -20.421  0.00  0.00    +0.030 C 
ATOM     29  C   UNL     1      35.427 -17.858 -20.997  0.00  0.00    +0.144 C 
BRANCH  27  33
ATOM     30  F   UNL     1      34.870 -20.417 -22.186  0.00  0.00    -0.166 F 
ATOM     31  F   UNL     1      34.677 -19.539 -24.159  0.00  0.00    -0.166 F 
ATOM     32  F   UNL     1      36.636 -19.688 -23.225  0.00  0.00    -0.166 F 
ATOM     33  C   UNL     1      35.328 -19.394 -22.968  0.00  0.00    +0.421 C 
ENDBRANCH  27  33
ENDBRANCH   5  24
TORSDOF 3
ENDMDL
MODEL 7
REMARK VINA RESULT:     -10.2      7.605     13.227
REMARK  Name = 25118925
REMARK  3 active torsions:
REMARK  status: ('A' for Active; 'I' for Inactive)
REMARK    1  A    between atoms: C_3  and  C_12
REMARK    2  A    between atoms: C_5  and  C_24
REMARK    3  A    between atoms: C_27  and  C_33
REMARK                            x       y       z     vdW  Elec       q    Type
REMARK                         _______ _______ _______ _____ _____    ______ ____
ROOT
ATOM      1  N   UNL     1      35.940 -20.541 -19.839  0.00  0.00    -0.279 N 
ATOM      2  N   UNL     1      34.012 -19.896 -20.732  0.00  0.00    -0.394 NA
ATOM      3  C   UNL     1      34.590 -20.744 -19.910  0.00  0.00    +0.160 C 
ATOM      4  C   UNL     1      36.242 -19.498 -20.668  0.00  0.00    +0.152 C 
ATOM      5  C   UNL     1      35.037 -19.117 -21.208  0.00  0.00    +0.130 C 
ATOM      6  C   UNL     1      36.887 -21.284 -19.041  0.00  0.00    +0.115 C 
ENDROOT
BRANCH   3  12
ATOM      7  N   UNL     1      32.938 -23.129 -16.710  0.00  0.00    -0.296 N 
ATOM      8  N   UNL     1      31.166 -24.281 -15.604  0.00  0.00    -0.233 NA
ATOM      9  N   UNL     1      33.561 -24.651 -12.393  0.00  0.00    -0.223 N 
ATOM     10  N   UNL     1      31.378 -25.129 -13.326  0.00  0.00    -0.232 NA
ATOM     11  N   UNL     1      34.718 -24.054 -12.734  0.00  0.00    -0.183 NA
ATOM     12  C   UNL     1      33.892 -21.831 -19.115  0.00  0.00    +0.070 C 
ATOM     13  C   UNL     1      32.686 -21.291 -18.332  0.00  0.00    +0.030 C 
ATOM     14  C   UNL     1      34.849 -22.549 -18.153  0.00  0.00    +0.030 C 
ATOM     15  C   UNL     1      31.982 -22.407 -17.561  0.00  0.00    +0.092 C 
ATOM     16  C   UNL     1      34.135 -23.656 -17.376  0.00  0.00    +0.092 C 
ATOM     17  C   UNL     1      32.428 -23.790 -15.587  0.00  0.00    +0.118 C 
ATOM     18  C   UNL     1      33.202 -23.954 -14.442  0.00  0.00    +0.152 C 
ATOM     19  C   UNL     1      32.619 -24.619 -13.378  0.00  0.00    +0.133 C 
ATOM     20  C   UNL     1      34.494 -23.632 -13.984  0.00  0.00    +0.105 C 
ATOM     21  C   UNL     1      30.726 -24.911 -14.488  0.00  0.00    +0.252 C 
ATOM     22  H   UNL     1      33.409 -25.070 -11.515  0.00  0.00    +0.176 HD
ENDBRANCH   3  12
BRANCH   5  24
ATOM     23  F   UNL     1      34.356 -14.978 -24.858  0.00  0.00    -0.204 F 
ATOM     24  C   UNL     1      34.861 -18.050 -22.144  0.00  0.00    +0.027 C 
ATOM     25  C   UNL     1      34.673 -16.745 -21.690  0.00  0.00    +0.008 C 
ATOM     26  C   UNL     1      34.879 -18.315 -23.514  0.00  0.00    +0.005 C 
ATOM     27  C   UNL     1      34.502 -15.705 -22.603  0.00  0.00    +0.099 C 
ATOM     28  C   UNL     1      34.708 -17.277 -24.428  0.00  0.00    +0.030 C 
ATOM     29  C   UNL     1      34.520 -15.971 -23.972  0.00  0.00    +0.144 C 
BRANCH  27  33
ATOM     30  F   UNL     1      34.849 -13.362 -22.930  0.00  0.00    -0.166 F 
ATOM     31  F   UNL     1      32.987 -13.959 -21.992  0.00  0.00    -0.166 F 
ATOM     32  F   UNL     1      34.854 -14.100 -20.885  0.00  0.00    -0.166 F 
ATOM     33  C   UNL     1      34.301 -14.311 -22.115  0.00  0.00    +0.421 C 
ENDBRANCH  27  33
ENDBRANCH   5  24
TORSDOF 3
ENDMDL
MODEL 8
REMARK VINA RESULT:     -10.0      6.571     12.019
REMARK  Name = 25118925
REMARK  3 active torsions:
REMARK  status: ('A' for Active; 'I' for Inactive)
REMARK    1  A    between atoms: C_3  and  C_12
REMARK    2  A    between atoms: C_5  and  C_24
REMARK    3  A    between atoms: C_27  and  C_33
REMARK                            x       y       z     vdW  Elec       q    Type
REMARK                         _______ _______ _______ _____ _____    ______ ____
ROOT
ATOM      1  N   UNL     1      34.755 -19.094 -23.676  0.00  0.00    -0.279 N 
ATOM      2  N   UNL     1      34.440 -17.740 -21.944  0.00  0.00    -0.394 NA
ATOM      3  C   UNL     1      34.622 -18.987 -22.320  0.00  0.00    +0.160 C 
ATOM      4  C   UNL     1      34.652 -17.835 -24.199  0.00  0.00    +0.152 C 
ATOM      5  C   UNL     1      34.458 -17.017 -23.110  0.00  0.00    +0.130 C 
ATOM      6  C   UNL     1      34.966 -20.304 -24.434  0.00  0.00    +0.115 C 
ENDROOT
BRANCH   3  12
ATOM      7  N   UNL     1      35.060 -21.565 -18.882  0.00  0.00    -0.296 N 
ATOM      8  N   UNL     1      34.302 -23.239 -17.360  0.00  0.00    -0.233 NA
ATOM      9  N   UNL     1      37.431 -22.346 -14.994  0.00  0.00    -0.223 N 
ATOM     10  N   UNL     1      35.471 -23.739 -15.278  0.00  0.00    -0.232 NA
ATOM     11  N   UNL     1      38.096 -21.363 -15.630  0.00  0.00    -0.183 NA
ATOM     12  C   UNL     1      34.683 -20.194 -21.404  0.00  0.00    +0.070 C 
ATOM     13  C   UNL     1      33.634 -20.125 -20.284  0.00  0.00    +0.030 C 
ATOM     14  C   UNL     1      36.078 -20.383 -20.789  0.00  0.00    +0.030 C 
ATOM     15  C   UNL     1      33.695 -21.362 -19.390  0.00  0.00    +0.092 C 
ATOM     16  C   UNL     1      36.128 -21.616 -19.886  0.00  0.00    +0.092 C 
ATOM     17  C   UNL     1      35.202 -22.280 -17.688  0.00  0.00    +0.118 C 
ATOM     18  C   UNL     1      36.261 -22.024 -16.822  0.00  0.00    +0.152 C 
ATOM     19  C   UNL     1      36.324 -22.778 -15.664  0.00  0.00    +0.133 C 
ATOM     20  C   UNL     1      37.378 -21.172 -16.743  0.00  0.00    +0.105 C 
ATOM     21  C   UNL     1      34.490 -23.899 -16.193  0.00  0.00    +0.252 C 
ATOM     22  H   UNL     1      37.716 -22.717 -14.129  0.00  0.00    +0.176 HD
ENDBRANCH   3  12
BRANCH   5  24
ATOM     23  F   UNL     1      33.819 -11.499 -23.341  0.00  0.00    -0.204 F 
ATOM     24  C   UNL     1      34.294 -15.598 -23.173  0.00  0.00    +0.027 C 
ATOM     25  C   UNL     1      33.930 -14.989 -24.374  0.00  0.00    +0.008 C 
ATOM     26  C   UNL     1      34.495 -14.822 -22.031  0.00  0.00    +0.005 C 
ATOM     27  C   UNL     1      33.769 -13.605 -24.435  0.00  0.00    +0.099 C 
ATOM     28  C   UNL     1      34.335 -13.438 -22.091  0.00  0.00    +0.030 C 
ATOM     29  C   UNL     1      33.972 -12.830 -23.293  0.00  0.00    +0.144 C 
BRANCH  27  33
ATOM     30  F   UNL     1      33.567 -11.603 -25.727  0.00  0.00    -0.166 F 
ATOM     31  F   UNL     1      34.083 -13.416 -26.798  0.00  0.00    -0.166 F 
ATOM     32  F   UNL     1      32.066 -13.147 -26.029  0.00  0.00    -0.166 F 
ATOM     33  C   UNL     1      33.382 -12.956 -25.720  0.00  0.00    +0.421 C 
ENDBRANCH  27  33
ENDBRANCH   5  24
TORSDOF 3
ENDMDL
MODEL 9
REMARK VINA RESULT:     -10.0      9.150     14.596
REMARK  Name = 25118925
REMARK  3 active torsions:
REMARK  status: ('A' for Active; 'I' for Inactive)
REMARK    1  A    between atoms: C_3  and  C_12
REMARK    2  A    between atoms: C_5  and  C_24
REMARK    3  A    between atoms: C_27  and  C_33
REMARK                            x       y       z     vdW  Elec       q    Type
REMARK                         _______ _______ _______ _____ _____    ______ ____
ROOT
ATOM      1  N   UNL     1      33.660 -21.852 -18.391  0.00  0.00    -0.279 N 
ATOM      2  N   UNL     1      35.630 -21.157 -19.147  0.00  0.00    -0.394 NA
ATOM      3  C   UNL     1      35.020 -21.976 -18.318  0.00  0.00    +0.160 C 
ATOM      4  C   UNL     1      33.386 -20.894 -19.326  0.00  0.00    +0.152 C 
ATOM      5  C   UNL     1      34.617 -20.480 -19.778  0.00  0.00    +0.130 C 
ATOM      6  C   UNL     1      32.681 -22.588 -17.628  0.00  0.00    +0.115 C 
ENDROOT
BRANCH   3  12
ATOM      7  N   UNL     1      36.333 -24.109 -14.799  0.00  0.00    -0.296 N 
ATOM      8  N   UNL     1      36.635 -26.079 -13.487  0.00  0.00    -0.233 NA
ATOM      9  N   UNL     1      37.618 -23.722 -10.378  0.00  0.00    -0.223 N 
ATOM     10  N   UNL     1      37.310 -25.999 -11.144  0.00  0.00    -0.232 NA
ATOM     11  N   UNL     1      37.533 -22.461 -10.840  0.00  0.00    -0.183 NA
ATOM     12  C   UNL     1      35.693 -22.955 -17.376  0.00  0.00    +0.070 C 
ATOM     13  C   UNL     1      34.676 -23.802 -16.597  0.00  0.00    +0.030 C 
ATOM     14  C   UNL     1      36.638 -22.253 -16.390  0.00  0.00    +0.030 C 
ATOM     15  C   UNL     1      35.375 -24.800 -15.675  0.00  0.00    +0.092 C 
ATOM     16  C   UNL     1      37.326 -23.257 -15.463  0.00  0.00    +0.092 C 
ATOM     17  C   UNL     1      36.658 -24.728 -13.587  0.00  0.00    +0.118 C 
ATOM     18  C   UNL     1      37.008 -23.974 -12.471  0.00  0.00    +0.152 C 
ATOM     19  C   UNL     1      37.313 -24.667 -11.313  0.00  0.00    +0.133 C 
ATOM     20  C   UNL     1      37.161 -22.621 -12.115  0.00  0.00    +0.105 C 
ATOM     21  C   UNL     1      36.958 -26.623 -12.289  0.00  0.00    +0.252 C 
ATOM     22  H   UNL     1      37.875 -23.942  -9.454  0.00  0.00    +0.176 HD
ENDBRANCH   3  12
BRANCH   5  24
ATOM     23  F   UNL     1      35.437 -16.568 -23.642  0.00  0.00    -0.204 F 
ATOM     24  C   UNL     1      34.827 -19.476 -20.774  0.00  0.00    +0.027 C 
ATOM     25  C   UNL     1      34.363 -19.674 -22.075  0.00  0.00    +0.008 C 
ATOM     26  C   UNL     1      35.494 -18.296 -20.445  0.00  0.00    +0.005 C 
ATOM     27  C   UNL     1      34.568 -18.695 -23.046  0.00  0.00    +0.099 C 
ATOM     28  C   UNL     1      35.699 -17.316 -21.415  0.00  0.00    +0.030 C 
ATOM     29  C   UNL     1      35.236 -17.515 -22.716  0.00  0.00    +0.144 C 
BRANCH  27  33
ATOM     30  F   UNL     1      32.710 -18.915 -24.536  0.00  0.00    -0.166 F 
ATOM     31  F   UNL     1      34.490 -17.954 -25.318  0.00  0.00    -0.166 F 
ATOM     32  F   UNL     1      34.483 -20.100 -24.962  0.00  0.00    -0.166 F 
ATOM     33  C   UNL     1      34.073 -18.909 -24.436  0.00  0.00    +0.421 C 
ENDBRANCH  27  33
ENDBRANCH   5  24
TORSDOF 3
ENDMDL
