MODEL 1
REMARK VINA RESULT:     -11.6      0.000      0.000
REMARK  Name = 25191001
REMARK  7 active torsions:
REMARK  status: ('A' for Active; 'I' for Inactive)
REMARK    1  A    between atoms: C_1  and  N_9
REMARK    2  A    between atoms: C_2  and  O_24
REMARK    3  A    between atoms: N_8  and  C_14
REMARK    4  A    between atoms: C_15  and  C_23
REMARK    5  A    between atoms: O_24  and  C_26
REMARK    6  A    between atoms: C_28  and  C_33
REMARK    7  A    between atoms: N_32  and  C_35
REMARK                            x       y       z     vdW  Elec       q    Type
REMARK                         _______ _______ _______ _____ _____    ______ ____
ROOT
ATOM      1  C   UNL     1      33.394 -13.989 -22.781  0.00  0.00    +0.052 C 
ATOM      2  C   UNL     1      34.831 -16.347 -23.187  0.00  0.00    +0.145 C 
ATOM      3  C   UNL     1      34.146 -14.537 -21.741  0.00  0.00    +0.018 C 
ATOM      4  C   UNL     1      33.361 -14.621 -24.024  0.00  0.00    +0.018 C 
ATOM      5  C   UNL     1      34.864 -15.714 -21.944  0.00  0.00    +0.039 C 
ATOM      6  C   UNL     1      34.079 -15.800 -24.228  0.00  0.00    +0.039 C 
ENDROOT
BRANCH   1   9
ATOM      7  O   UNL     1      34.170 -11.148 -23.276  0.00  0.00    -0.252 OA
ATOM      8  N   UNL     1      32.043 -10.573 -22.479  0.00  0.00    -0.268 N 
ATOM      9  N   UNL     1      32.665 -12.795 -22.575  0.00  0.00    -0.268 N 
ATOM     10  C   UNL     1      33.077 -11.477 -22.825  0.00  0.00    +0.308 C 
ATOM     11  H   UNL     1      31.219 -10.981 -22.128  0.00  0.00    +0.156 HD
ATOM     12  H   UNL     1      31.757 -12.902 -22.211  0.00  0.00    +0.156 HD
BRANCH   8  14
ATOM     13 CL   UNL     1      32.020  -4.678 -22.905  0.00  0.00    -0.082 Cl
ATOM     14  C   UNL     1      32.037  -9.180 -22.570  0.00  0.00    +0.052 C 
ATOM     15  C   UNL     1      31.958  -7.014 -21.504  0.00  0.00    +0.083 C 
ATOM     16  C   UNL     1      31.964  -8.406 -21.412  0.00  0.00    +0.019 C 
ATOM     17  C   UNL     1      32.103  -8.564 -23.819  0.00  0.00    +0.016 C 
ATOM     18  C   UNL     1      32.025  -6.397 -22.753  0.00  0.00    +0.062 C 
ATOM     19  C   UNL     1      32.097  -7.172 -23.911  0.00  0.00    +0.013 C 
BRANCH  15  23
ATOM     20  F   UNL     1      31.812  -6.991 -19.115  0.00  0.00    -0.166 F 
ATOM     21  F   UNL     1      32.952  -5.399 -20.047  0.00  0.00    -0.166 F 
ATOM     22  F   UNL     1      30.783  -5.411 -20.199  0.00  0.00    -0.166 F 
ATOM     23  C   UNL     1      31.879  -6.220 -20.240  0.00  0.00    +0.419 C 
ENDBRANCH  15  23
ENDBRANCH   8  14
ENDBRANCH   1   9
BRANCH   2  24
ATOM     24  O   UNL     1      35.530 -17.498 -23.385  0.00  0.00    -0.453 OA
BRANCH  24  26
ATOM     25  N   UNL     1      36.199 -19.962 -20.076  0.00  0.00    -0.239 NA
ATOM     26  C   UNL     1      35.750 -18.313 -22.288  0.00  0.00    +0.149 C 
ATOM     27  C   UNL     1      34.705 -19.052 -21.744  0.00  0.00    +0.061 C 
ATOM     28  C   UNL     1      34.979 -19.854 -20.648  0.00  0.00    +0.137 C 
ATOM     29  C   UNL     1      37.020 -18.399 -21.727  0.00  0.00    +0.058 C 
ATOM     30  C   UNL     1      37.191 -19.230 -20.631  0.00  0.00    +0.102 C 
BRANCH  28  33
ATOM     31  O   UNL     1      32.754 -20.567 -20.454  0.00  0.00    -0.269 OA
ATOM     32  N   UNL     1      34.295 -21.508 -18.999  0.00  0.00    -0.313 N 
ATOM     33  C   UNL     1      33.925 -20.647 -20.039  0.00  0.00    +0.263 C 
ATOM     34  H   UNL     1      35.239 -21.521 -18.721  0.00  0.00    +0.149 HD
ATOM     35  C   UNL     1      33.368 -22.376 -18.311  0.00  0.00    +0.128 C 
ENDBRANCH  28  33
ENDBRANCH  24  26
ENDBRANCH   2  24
TORSDOF 6
ENDMDL
MODEL 2
REMARK VINA RESULT:     -11.6      1.845      2.312
REMARK  Name = 25191001
REMARK  7 active torsions:
REMARK  status: ('A' for Active; 'I' for Inactive)
REMARK    1  A    between atoms: C_1  and  N_9
REMARK    2  A    between atoms: C_2  and  O_24
REMARK    3  A    between atoms: N_8  and  C_14
REMARK    4  A    between atoms: C_15  and  C_23
REMARK    5  A    between atoms: O_24  and  C_26
REMARK    6  A    between atoms: C_28  and  C_33
REMARK    7  A    between atoms: N_32  and  C_35
REMARK                            x       y       z     vdW  Elec       q    Type
REMARK                         _______ _______ _______ _____ _____    ______ ____
ROOT
ATOM      1  C   UNL     1      33.639 -13.929 -22.675  0.00  0.00    +0.052 C 
ATOM      2  C   UNL     1      34.803 -16.427 -23.114  0.00  0.00    +0.145 C 
ATOM      3  C   UNL     1      33.518 -14.547 -23.920  0.00  0.00    +0.018 C 
ATOM      4  C   UNL     1      34.343 -14.561 -21.650  0.00  0.00    +0.018 C 
ATOM      5  C   UNL     1      34.099 -15.795 -24.139  0.00  0.00    +0.039 C 
ATOM      6  C   UNL     1      34.925 -15.810 -21.868  0.00  0.00    +0.039 C 
ENDROOT
BRANCH   1   9
ATOM      7  O   UNL     1      33.912 -11.383 -24.214  0.00  0.00    -0.252 OA
ATOM      8  N   UNL     1      32.448 -10.441 -22.646  0.00  0.00    -0.268 N 
ATOM      9  N   UNL     1      33.051 -12.662 -22.454  0.00  0.00    -0.268 N 
ATOM     10  C   UNL     1      33.213 -11.490 -23.210  0.00  0.00    +0.308 C 
ATOM     11  H   UNL     1      31.934 -10.673 -21.839  0.00  0.00    +0.156 HD
ATOM     12  H   UNL     1      32.456 -12.593 -21.673  0.00  0.00    +0.156 HD
BRANCH   8  14
ATOM     13 CL   UNL     1      31.884  -4.855 -24.494  0.00  0.00    -0.082 Cl
ATOM     14  C   UNL     1      32.324  -9.121 -23.083  0.00  0.00    +0.052 C 
ATOM     15  C   UNL     1      33.341  -7.055 -23.813  0.00  0.00    +0.083 C 
ATOM     16  C   UNL     1      33.465  -8.374 -23.377  0.00  0.00    +0.019 C 
ATOM     17  C   UNL     1      31.060  -8.550 -23.225  0.00  0.00    +0.016 C 
ATOM     18  C   UNL     1      32.077  -6.483 -23.956  0.00  0.00    +0.062 C 
ATOM     19  C   UNL     1      30.936  -7.231 -23.661  0.00  0.00    +0.013 C 
BRANCH  15  23
ATOM     20  F   UNL     1      35.056  -6.492 -25.384  0.00  0.00    -0.166 F 
ATOM     21  F   UNL     1      34.435  -4.937 -24.006  0.00  0.00    -0.166 F 
ATOM     22  F   UNL     1      35.617  -6.614 -23.287  0.00  0.00    -0.166 F 
ATOM     23  C   UNL     1      34.587  -6.289 -24.119  0.00  0.00    +0.419 C 
ENDBRANCH  15  23
ENDBRANCH   8  14
ENDBRANCH   1   9
BRANCH   2  24
ATOM     24  O   UNL     1      35.372 -17.645 -23.328  0.00  0.00    -0.453 OA
BRANCH  24  26
ATOM     25  N   UNL     1      36.094 -20.068 -19.999  0.00  0.00    -0.239 NA
ATOM     26  C   UNL     1      35.610 -18.447 -22.225  0.00  0.00    +0.149 C 
ATOM     27  C   UNL     1      34.574 -19.178 -21.655  0.00  0.00    +0.061 C 
ATOM     28  C   UNL     1      34.865 -19.967 -20.554  0.00  0.00    +0.137 C 
ATOM     29  C   UNL     1      36.888 -18.525 -21.683  0.00  0.00    +0.058 C 
ATOM     30  C   UNL     1      37.077 -19.342 -20.579  0.00  0.00    +0.102 C 
BRANCH  28  33
ATOM     31  O   UNL     1      32.638 -20.651 -20.291  0.00  0.00    -0.269 OA
ATOM     32  N   UNL     1      34.214 -21.631 -18.901  0.00  0.00    -0.313 N 
ATOM     33  C   UNL     1      33.821 -20.752 -19.918  0.00  0.00    +0.263 C 
ATOM     34  H   UNL     1      35.167 -21.661 -18.656  0.00  0.00    +0.149 HD
ATOM     35  C   UNL     1      33.299 -22.494 -18.192  0.00  0.00    +0.128 C 
ENDBRANCH  28  33
ENDBRANCH  24  26
ENDBRANCH   2  24
TORSDOF 6
ENDMDL
MODEL 3
REMARK VINA RESULT:     -11.3      2.352      3.365
REMARK  Name = 25191001
REMARK  7 active torsions:
REMARK  status: ('A' for Active; 'I' for Inactive)
REMARK    1  A    between atoms: C_1  and  N_9
REMARK    2  A    between atoms: C_2  and  O_24
REMARK    3  A    between atoms: N_8  and  C_14
REMARK    4  A    between atoms: C_15  and  C_23
REMARK    5  A    between atoms: O_24  and  C_26
REMARK    6  A    between atoms: C_28  and  C_33
REMARK    7  A    between atoms: N_32  and  C_35
REMARK                            x       y       z     vdW  Elec       q    Type
REMARK                         _______ _______ _______ _____ _____    ______ ____
ROOT
ATOM      1  C   UNL     1      34.575 -15.737 -23.103  0.00  0.00    +0.052 C 
ATOM      2  C   UNL     1      35.312 -18.312 -22.319  0.00  0.00    +0.145 C 
ATOM      3  C   UNL     1      34.539 -16.785 -24.024  0.00  0.00    +0.018 C 
ATOM      4  C   UNL     1      34.979 -15.978 -21.790  0.00  0.00    +0.018 C 
ATOM      5  C   UNL     1      34.907 -18.071 -23.633  0.00  0.00    +0.039 C 
ATOM      6  C   UNL     1      35.348 -17.265 -21.397  0.00  0.00    +0.039 C 
ENDROOT
BRANCH   1   9
ATOM      7  O   UNL     1      33.847 -13.355 -21.456  0.00  0.00    -0.252 OA
ATOM      8  N   UNL     1      33.556 -12.215 -23.482  0.00  0.00    -0.268 N 
ATOM      9  N   UNL     1      34.203 -14.432 -23.501  0.00  0.00    -0.268 N 
ATOM     10  C   UNL     1      33.869 -13.342 -22.683  0.00  0.00    +0.308 C 
ATOM     11  H   UNL     1      33.616 -12.352 -24.455  0.00  0.00    +0.156 HD
ATOM     12  H   UNL     1      34.175 -14.268 -24.471  0.00  0.00    +0.156 HD
BRANCH   8  14
ATOM     13 CL   UNL     1      31.917  -6.813 -21.730  0.00  0.00    -0.082 Cl
ATOM     14  C   UNL     1      33.176 -10.936 -23.073  0.00  0.00    +0.052 C 
ATOM     15  C   UNL     1      33.473  -8.540 -23.153  0.00  0.00    +0.083 C 
ATOM     16  C   UNL     1      33.853  -9.818 -23.561  0.00  0.00    +0.019 C 
ATOM     17  C   UNL     1      32.119 -10.776 -22.177  0.00  0.00    +0.016 C 
ATOM     18  C   UNL     1      32.415  -8.379 -22.257  0.00  0.00    +0.062 C 
ATOM     19  C   UNL     1      31.739  -9.498 -21.769  0.00  0.00    +0.013 C 
BRANCH  15  23
ATOM     20  F   UNL     1      33.416  -6.403 -24.229  0.00  0.00    -0.166 F 
ATOM     21  F   UNL     1      34.982  -6.725 -22.765  0.00  0.00    -0.166 F 
ATOM     22  F   UNL     1      35.083  -7.718 -24.697  0.00  0.00    -0.166 F 
ATOM     23  C   UNL     1      34.223  -7.368 -23.699  0.00  0.00    +0.419 C 
ENDBRANCH  15  23
ENDBRANCH   8  14
ENDBRANCH   1   9
BRANCH   2  24
ATOM     24  O   UNL     1      35.673 -19.567 -21.937  0.00  0.00    -0.453 OA
BRANCH  24  26
ATOM     25  N   UNL     1      33.481 -21.365 -18.865  0.00  0.00    -0.239 NA
ATOM     26  C   UNL     1      34.948 -20.164 -20.919  0.00  0.00    +0.149 C 
ATOM     27  C   UNL     1      35.605 -20.819 -19.884  0.00  0.00    +0.061 C 
ATOM     28  C   UNL     1      34.833 -21.398 -18.889  0.00  0.00    +0.137 C 
ATOM     29  C   UNL     1      33.559 -20.108 -20.929  0.00  0.00    +0.058 C 
ATOM     30  C   UNL     1      32.877 -20.719 -19.888  0.00  0.00    +0.102 C 
BRANCH  28  33
ATOM     31  O   UNL     1      34.868 -23.013 -17.191  0.00  0.00    -0.269 OA
ATOM     32  N   UNL     1      36.766 -21.704 -17.443  0.00  0.00    -0.313 N 
ATOM     33  C   UNL     1      35.466 -22.095 -17.783  0.00  0.00    +0.263 C 
ATOM     34  H   UNL     1      37.179 -20.970 -17.952  0.00  0.00    +0.149 HD
ATOM     35  C   UNL     1      37.535 -22.317 -16.384  0.00  0.00    +0.128 C 
ENDBRANCH  28  33
ENDBRANCH  24  26
ENDBRANCH   2  24
TORSDOF 6
ENDMDL
MODEL 4
REMARK VINA RESULT:     -11.3      8.420     13.673
REMARK  Name = 25191001
REMARK  7 active torsions:
REMARK  status: ('A' for Active; 'I' for Inactive)
REMARK    1  A    between atoms: C_1  and  N_9
REMARK    2  A    between atoms: C_2  and  O_24
REMARK    3  A    between atoms: N_8  and  C_14
REMARK    4  A    between atoms: C_15  and  C_23
REMARK    5  A    between atoms: O_24  and  C_26
REMARK    6  A    between atoms: C_28  and  C_33
REMARK    7  A    between atoms: N_32  and  C_35
REMARK                            x       y       z     vdW  Elec       q    Type
REMARK                         _______ _______ _______ _____ _____    ______ ____
ROOT
ATOM      1  C   UNL     1      35.444 -21.260 -19.085  0.00  0.00    +0.052 C 
ATOM      2  C   UNL     1      36.101 -19.403 -21.062  0.00  0.00    +0.145 C 
ATOM      3  C   UNL     1      34.440 -20.686 -19.866  0.00  0.00    +0.018 C 
ATOM      4  C   UNL     1      36.776 -20.904 -19.292  0.00  0.00    +0.018 C 
ATOM      5  C   UNL     1      34.768 -19.759 -20.854  0.00  0.00    +0.039 C 
ATOM      6  C   UNL     1      37.106 -19.975 -20.281  0.00  0.00    +0.039 C 
ENDROOT
BRANCH   1   9
ATOM      7  O   UNL     1      36.392 -21.482 -16.262  0.00  0.00    -0.252 OA
ATOM      8  N   UNL     1      35.000 -23.358 -16.087  0.00  0.00    -0.268 N 
ATOM      9  N   UNL     1      35.110 -22.199 -18.082  0.00  0.00    -0.268 N 
ATOM     10  C   UNL     1      35.587 -22.260 -16.763  0.00  0.00    +0.308 C 
ATOM     11  H   UNL     1      34.369 -23.898 -16.617  0.00  0.00    +0.156 HD
ATOM     12  H   UNL     1      34.464 -22.895 -18.340  0.00  0.00    +0.156 HD
BRANCH   8  14
ATOM     13 CL   UNL     1      35.796 -25.123 -10.503  0.00  0.00    -0.082 Cl
ATOM     14  C   UNL     1      35.197 -23.777 -14.770  0.00  0.00    +0.052 C 
ATOM     15  C   UNL     1      36.666 -24.571 -13.025  0.00  0.00    +0.083 C 
ATOM     16  C   UNL     1      36.470 -24.153 -14.342  0.00  0.00    +0.019 C 
ATOM     17  C   UNL     1      34.121 -23.818 -13.884  0.00  0.00    +0.016 C 
ATOM     18  C   UNL     1      35.591 -24.612 -12.138  0.00  0.00    +0.062 C 
ATOM     19  C   UNL     1      34.317 -24.235 -12.568  0.00  0.00    +0.013 C 
BRANCH  15  23
ATOM     20  F   UNL     1      38.546 -24.200 -11.593  0.00  0.00    -0.166 F 
ATOM     21  F   UNL     1      38.128 -26.252 -12.155  0.00  0.00    -0.166 F 
ATOM     22  F   UNL     1      38.948 -24.872 -13.621  0.00  0.00    -0.166 F 
ATOM     23  C   UNL     1      38.045 -24.966 -12.604  0.00  0.00    +0.419 C 
ENDBRANCH  15  23
ENDBRANCH   8  14
ENDBRANCH   1   9
BRANCH   2  24
ATOM     24  O   UNL     1      36.422 -18.496 -22.024  0.00  0.00    -0.453 OA
BRANCH  24  26
ATOM     25  N   UNL     1      33.449 -17.434 -24.763  0.00  0.00    -0.239 NA
ATOM     26  C   UNL     1      35.437 -18.143 -22.931  0.00  0.00    +0.149 C 
ATOM     27  C   UNL     1      35.163 -16.803 -23.179  0.00  0.00    +0.061 C 
ATOM     28  C   UNL     1      34.168 -16.503 -24.096  0.00  0.00    +0.137 C 
ATOM     29  C   UNL     1      34.719 -19.129 -23.598  0.00  0.00    +0.058 C 
ATOM     30  C   UNL     1      33.743 -18.726 -24.496  0.00  0.00    +0.102 C 
BRANCH  28  33
ATOM     31  O   UNL     1      33.479 -14.789 -25.539  0.00  0.00    -0.269 OA
ATOM     32  N   UNL     1      33.923 -14.203 -23.340  0.00  0.00    -0.313 N 
ATOM     33  C   UNL     1      33.839 -15.120 -24.394  0.00  0.00    +0.263 C 
ATOM     34  H   UNL     1      34.215 -14.532 -22.459  0.00  0.00    +0.149 HD
ATOM     35  C   UNL     1      33.605 -12.800 -23.472  0.00  0.00    +0.128 C 
ENDBRANCH  28  33
ENDBRANCH  24  26
ENDBRANCH   2  24
TORSDOF 6
ENDMDL
MODEL 5
REMARK VINA RESULT:     -11.2      2.330      3.529
REMARK  Name = 25191001
REMARK  7 active torsions:
REMARK  status: ('A' for Active; 'I' for Inactive)
REMARK    1  A    between atoms: C_1  and  N_9
REMARK    2  A    between atoms: C_2  and  O_24
REMARK    3  A    between atoms: N_8  and  C_14
REMARK    4  A    between atoms: C_15  and  C_23
REMARK    5  A    between atoms: O_24  and  C_26
REMARK    6  A    between atoms: C_28  and  C_33
REMARK    7  A    between atoms: N_32  and  C_35
REMARK                            x       y       z     vdW  Elec       q    Type
REMARK                         _______ _______ _______ _____ _____    ______ ____
ROOT
ATOM      1  C   UNL     1      34.787 -16.549 -22.951  0.00  0.00    +0.052 C 
ATOM      2  C   UNL     1      35.455 -18.949 -21.694  0.00  0.00    +0.145 C 
ATOM      3  C   UNL     1      35.288 -16.539 -21.649  0.00  0.00    +0.018 C 
ATOM      4  C   UNL     1      34.620 -17.759 -23.624  0.00  0.00    +0.018 C 
ATOM      5  C   UNL     1      35.622 -17.738 -21.021  0.00  0.00    +0.039 C 
ATOM      6  C   UNL     1      34.954 -18.960 -22.996  0.00  0.00    +0.039 C 
ENDROOT
BRANCH   1   9
ATOM      7  O   UNL     1      34.686 -13.769 -21.864  0.00  0.00    -0.252 OA
ATOM      8  N   UNL     1      34.019 -13.102 -24.008  0.00  0.00    -0.268 N 
ATOM      9  N   UNL     1      34.446 -15.332 -23.587  0.00  0.00    -0.268 N 
ATOM     10  C   UNL     1      34.414 -14.045 -23.028  0.00  0.00    +0.308 C 
ATOM     11  H   UNL     1      33.832 -13.469 -24.903  0.00  0.00    +0.156 HD
ATOM     12  H   UNL     1      34.202 -15.397 -24.538  0.00  0.00    +0.156 HD
BRANCH   8  14
ATOM     13 CL   UNL     1      33.380  -7.251 -23.471  0.00  0.00    -0.082 Cl
ATOM     14  C   UNL     1      33.861 -11.722 -23.876  0.00  0.00    +0.052 C 
ATOM     15  C   UNL     1      32.732  -9.832 -22.882  0.00  0.00    +0.083 C 
ATOM     16  C   UNL     1      32.890 -11.211 -23.014  0.00  0.00    +0.019 C 
ATOM     17  C   UNL     1      34.675 -10.854 -24.604  0.00  0.00    +0.016 C 
ATOM     18  C   UNL     1      33.546  -8.963 -23.609  0.00  0.00    +0.062 C 
ATOM     19  C   UNL     1      34.517  -9.475 -24.471  0.00  0.00    +0.013 C 
BRANCH  15  23
ATOM     20  F   UNL     1      30.859 -10.302 -21.470  0.00  0.00    -0.166 F 
ATOM     21  F   UNL     1      32.188  -8.708 -20.842  0.00  0.00    -0.166 F 
ATOM     22  F   UNL     1      30.860  -8.408 -22.537  0.00  0.00    -0.166 F 
ATOM     23  C   UNL     1      31.681  -9.324 -21.949  0.00  0.00    +0.419 C 
ENDBRANCH  15  23
ENDBRANCH   8  14
ENDBRANCH   1   9
BRANCH   2  24
ATOM     24  O   UNL     1      35.780 -20.120 -21.081  0.00  0.00    -0.453 OA
BRANCH  24  26
ATOM     25  N   UNL     1      32.984 -21.767 -18.445  0.00  0.00    -0.239 NA
ATOM     26  C   UNL     1      34.854 -20.667 -20.208  0.00  0.00    +0.149 C 
ATOM     27  C   UNL     1      35.276 -21.466 -19.152  0.00  0.00    +0.061 C 
ATOM     28  C   UNL     1      34.311 -21.988 -18.306  0.00  0.00    +0.137 C 
ATOM     29  C   UNL     1      33.498 -20.416 -20.384  0.00  0.00    +0.058 C 
ATOM     30  C   UNL     1      32.611 -20.985 -19.484  0.00  0.00    +0.102 C 
BRANCH  28  33
ATOM     31  O   UNL     1      33.999 -23.811 -16.866  0.00  0.00    -0.269 OA
ATOM     32  N   UNL     1      35.879 -22.500 -16.516  0.00  0.00    -0.313 N 
ATOM     33  C   UNL     1      34.695 -22.830 -17.186  0.00  0.00    +0.263 C 
ATOM     34  H   UNL     1      36.381 -21.710 -16.822  0.00  0.00    +0.149 HD
ATOM     35  C   UNL     1      36.404 -23.253 -15.402  0.00  0.00    +0.128 C 
ENDBRANCH  28  33
ENDBRANCH  24  26
ENDBRANCH   2  24
TORSDOF 6
ENDMDL
MODEL 6
REMARK VINA RESULT:     -11.2      7.123     11.876
REMARK  Name = 25191001
REMARK  7 active torsions:
REMARK  status: ('A' for Active; 'I' for Inactive)
REMARK    1  A    between atoms: C_1  and  N_9
REMARK    2  A    between atoms: C_2  and  O_24
REMARK    3  A    between atoms: N_8  and  C_14
REMARK    4  A    between atoms: C_15  and  C_23
REMARK    5  A    between atoms: O_24  and  C_26
REMARK    6  A    between atoms: C_28  and  C_33
REMARK    7  A    between atoms: N_32  and  C_35
REMARK                            x       y       z     vdW  Elec       q    Type
REMARK                         _______ _______ _______ _____ _____    ______ ____
ROOT
ATOM      1  C   UNL     1      35.115 -18.738 -22.358  0.00  0.00    +0.052 C 
ATOM      2  C   UNL     1      34.337 -16.881 -24.289  0.00  0.00    +0.145 C 
ATOM      3  C   UNL     1      35.539 -17.412 -22.262  0.00  0.00    +0.018 C 
ATOM      4  C   UNL     1      34.303 -19.135 -23.420  0.00  0.00    +0.018 C 
ATOM      5  C   UNL     1      35.150 -16.484 -23.227  0.00  0.00    +0.039 C 
ATOM      6  C   UNL     1      33.913 -18.207 -24.386  0.00  0.00    +0.039 C 
ENDROOT
BRANCH   1   9
ATOM      7  O   UNL     1      33.578 -19.918 -20.085  0.00  0.00    -0.252 OA
ATOM      8  N   UNL     1      35.523 -21.121 -19.575  0.00  0.00    -0.268 N 
ATOM      9  N   UNL     1      35.512 -19.680 -21.380  0.00  0.00    -0.268 N 
ATOM     10  C   UNL     1      34.747 -20.205 -20.326  0.00  0.00    +0.308 C 
ATOM     11  H   UNL     1      36.448 -21.252 -19.886  0.00  0.00    +0.156 HD
ATOM     12  H   UNL     1      36.438 -20.007 -21.446  0.00  0.00    +0.156 HD
BRANCH   8  14
ATOM     13 CL   UNL     1      33.909 -24.266 -14.838  0.00  0.00    -0.082 Cl
ATOM     14  C   UNL     1      35.150 -21.863 -18.453  0.00  0.00    +0.052 C 
ATOM     15  C   UNL     1      35.693 -22.815 -16.300  0.00  0.00    +0.083 C 
ATOM     16  C   UNL     1      36.066 -22.074 -17.421  0.00  0.00    +0.019 C 
ATOM     17  C   UNL     1      33.863 -22.392 -18.364  0.00  0.00    +0.016 C 
ATOM     18  C   UNL     1      34.406 -23.345 -16.210  0.00  0.00    +0.062 C 
ATOM     19  C   UNL     1      33.491 -23.134 -17.242  0.00  0.00    +0.013 C 
BRANCH  15  23
ATOM     20  F   UNL     1      37.863 -22.330 -15.417  0.00  0.00    -0.166 F 
ATOM     21  F   UNL     1      36.263 -22.627 -13.985  0.00  0.00    -0.166 F 
ATOM     22  F   UNL     1      37.066 -24.325 -15.081  0.00  0.00    -0.166 F 
ATOM     23  C   UNL     1      36.702 -23.018 -15.216  0.00  0.00    +0.419 C 
ENDBRANCH  15  23
ENDBRANCH   8  14
ENDBRANCH   1   9
BRANCH   2  24
ATOM     24  O   UNL     1      33.959 -15.976 -25.233  0.00  0.00    -0.453 OA
BRANCH  24  26
ATOM     25  N   UNL     1      33.141 -12.076 -23.969  0.00  0.00    -0.239 NA
ATOM     26  C   UNL     1      33.687 -14.685 -24.814  0.00  0.00    +0.149 C 
ATOM     27  C   UNL     1      33.318 -14.441 -23.496  0.00  0.00    +0.061 C 
ATOM     28  C   UNL     1      33.058 -13.131 -23.126  0.00  0.00    +0.137 C 
ATOM     29  C   UNL     1      33.784 -13.626 -25.710  0.00  0.00    +0.058 C 
ATOM     30  C   UNL     1      33.503 -12.352 -25.243  0.00  0.00    +0.102 C 
BRANCH  28  33
ATOM     31  O   UNL     1      32.934 -13.602 -20.833  0.00  0.00    -0.269 OA
ATOM     32  N   UNL     1      32.012 -11.598 -21.551  0.00  0.00    -0.313 N 
ATOM     33  C   UNL     1      32.668 -12.817 -21.763  0.00  0.00    +0.263 C 
ATOM     34  H   UNL     1      31.833 -11.026 -22.331  0.00  0.00    +0.149 HD
ATOM     35  C   UNL     1      31.584 -11.135 -20.252  0.00  0.00    +0.128 C 
ENDBRANCH  28  33
ENDBRANCH  24  26
ENDBRANCH   2  24
TORSDOF 6
ENDMDL
MODEL 7
REMARK VINA RESULT:     -11.2      7.478     12.736
REMARK  Name = 25191001
REMARK  7 active torsions:
REMARK  status: ('A' for Active; 'I' for Inactive)
REMARK    1  A    between atoms: C_1  and  N_9
REMARK    2  A    between atoms: C_2  and  O_24
REMARK    3  A    between atoms: N_8  and  C_14
REMARK    4  A    between atoms: C_15  and  C_23
REMARK    5  A    between atoms: O_24  and  C_26
REMARK    6  A    between atoms: C_28  and  C_33
REMARK    7  A    between atoms: N_32  and  C_35
REMARK                            x       y       z     vdW  Elec       q    Type
REMARK                         _______ _______ _______ _____ _____    ______ ____
ROOT
ATOM      1  C   UNL     1      35.037 -21.207 -19.042  0.00  0.00    +0.052 C 
ATOM      2  C   UNL     1      35.870 -19.564 -21.138  0.00  0.00    +0.145 C 
ATOM      3  C   UNL     1      36.397 -20.969 -19.245  0.00  0.00    +0.018 C 
ATOM      4  C   UNL     1      34.094 -20.623 -19.888  0.00  0.00    +0.018 C 
ATOM      5  C   UNL     1      36.813 -20.148 -20.292  0.00  0.00    +0.039 C 
ATOM      6  C   UNL     1      34.510 -19.801 -20.937  0.00  0.00    +0.039 C 
ENDROOT
BRANCH   1   9
ATOM      7  O   UNL     1      32.284 -21.949 -18.153  0.00  0.00    -0.252 OA
ATOM      8  N   UNL     1      33.317 -23.229 -16.485  0.00  0.00    -0.268 N 
ATOM      9  N   UNL     1      34.615 -22.041 -17.981  0.00  0.00    -0.268 N 
ATOM     10  C   UNL     1      33.301 -22.360 -17.602  0.00  0.00    +0.308 C 
ATOM     11  H   UNL     1      34.209 -23.475 -16.148  0.00  0.00    +0.156 HD
ATOM     12  H   UNL     1      35.330 -22.448 -17.442  0.00  0.00    +0.156 HD
BRANCH   8  14
ATOM     13 CL   UNL     1      28.766 -25.599 -13.551  0.00  0.00    -0.082 Cl
ATOM     14  C   UNL     1      32.237 -23.784 -15.798  0.00  0.00    +0.052 C 
ATOM     15  C   UNL     1      29.854 -24.092 -15.543  0.00  0.00    +0.083 C 
ATOM     16  C   UNL     1      30.933 -23.536 -16.230  0.00  0.00    +0.019 C 
ATOM     17  C   UNL     1      32.460 -24.587 -14.679  0.00  0.00    +0.016 C 
ATOM     18  C   UNL     1      30.077 -24.895 -14.425  0.00  0.00    +0.062 C 
ATOM     19  C   UNL     1      31.381 -25.142 -13.992  0.00  0.00    +0.013 C 
BRANCH  15  23
ATOM     20  F   UNL     1      27.854 -24.887 -16.588  0.00  0.00    -0.166 F 
ATOM     21  F   UNL     1      27.627 -23.363 -15.062  0.00  0.00    -0.166 F 
ATOM     22  F   UNL     1      28.456 -22.839 -17.003  0.00  0.00    -0.166 F 
ATOM     23  C   UNL     1      28.473 -23.803 -16.038  0.00  0.00    +0.419 C 
ENDBRANCH  15  23
ENDBRANCH   8  14
ENDBRANCH   1   9
BRANCH   2  24
ATOM     24  O   UNL     1      36.276 -18.764 -22.162  0.00  0.00    -0.453 OA
BRANCH  24  26
ATOM     25  N   UNL     1      33.374 -17.443 -24.865  0.00  0.00    -0.239 NA
ATOM     26  C   UNL     1      35.314 -18.326 -23.056  0.00  0.00    +0.149 C 
ATOM     27  C   UNL     1      35.115 -16.965 -23.257  0.00  0.00    +0.061 C 
ATOM     28  C   UNL     1      34.141 -16.578 -24.164  0.00  0.00    +0.137 C 
ATOM     29  C   UNL     1      34.545 -19.247 -23.759  0.00  0.00    +0.058 C 
ATOM     30  C   UNL     1      33.596 -18.759 -24.644  0.00  0.00    +0.102 C 
BRANCH  28  33
ATOM     31  O   UNL     1      33.568 -14.776 -25.550  0.00  0.00    -0.269 OA
ATOM     32  N   UNL     1      34.001 -14.299 -23.322  0.00  0.00    -0.313 N 
ATOM     33  C   UNL     1      33.889 -15.169 -24.413  0.00  0.00    +0.263 C 
ATOM     34  H   UNL     1      34.259 -14.677 -22.451  0.00  0.00    +0.149 HD
ATOM     35  C   UNL     1      33.759 -12.877 -23.405  0.00  0.00    +0.128 C 
ENDBRANCH  28  33
ENDBRANCH  24  26
ENDBRANCH   2  24
TORSDOF 6
ENDMDL
MODEL 8
REMARK VINA RESULT:     -11.1      1.579      2.213
REMARK  Name = 25191001
REMARK  7 active torsions:
REMARK  status: ('A' for Active; 'I' for Inactive)
REMARK    1  A    between atoms: C_1  and  N_9
REMARK    2  A    between atoms: C_2  and  O_24
REMARK    3  A    between atoms: N_8  and  C_14
REMARK    4  A    between atoms: C_15  and  C_23
REMARK    5  A    between atoms: O_24  and  C_26
REMARK    6  A    between atoms: C_28  and  C_33
REMARK    7  A    between atoms: N_32  and  C_35
REMARK                            x       y       z     vdW  Elec       q    Type
REMARK                         _______ _______ _______ _____ _____    ______ ____
ROOT
ATOM      1  C   UNL     1      33.329 -13.820 -22.661  0.00  0.00    +0.052 C 
ATOM      2  C   UNL     1      34.739 -16.172 -23.179  0.00  0.00    +0.145 C 
ATOM      3  C   UNL     1      33.300 -14.385 -23.937  0.00  0.00    +0.018 C 
ATOM      4  C   UNL     1      34.064 -14.431 -21.645  0.00  0.00    +0.018 C 
ATOM      5  C   UNL     1      34.004 -15.561 -24.195  0.00  0.00    +0.039 C 
ATOM      6  C   UNL     1      34.769 -15.607 -21.903  0.00  0.00    +0.039 C 
ENDROOT
BRANCH   1   9
ATOM      7  O   UNL     1      34.194 -10.970 -22.887  0.00  0.00    -0.252 OA
ATOM      8  N   UNL     1      32.040 -10.403 -22.161  0.00  0.00    -0.268 N 
ATOM      9  N   UNL     1      32.616 -12.627 -22.400  0.00  0.00    -0.268 N 
ATOM     10  C   UNL     1      33.071 -11.304 -22.522  0.00  0.00    +0.308 C 
ATOM     11  H   UNL     1      31.189 -10.815 -21.887  0.00  0.00    +0.156 HD
ATOM     12  H   UNL     1      31.687 -12.738 -22.095  0.00  0.00    +0.156 HD
BRANCH   8  14
ATOM     13 CL   UNL     1      32.176  -4.495 -22.041  0.00  0.00    -0.082 Cl
ATOM     14  C   UNL     1      32.070  -9.008 -22.141  0.00  0.00    +0.052 C 
ATOM     15  C   UNL     1      31.773  -6.893 -23.271  0.00  0.00    +0.083 C 
ATOM     16  C   UNL     1      31.743  -8.288 -23.291  0.00  0.00    +0.019 C 
ATOM     17  C   UNL     1      32.426  -8.335 -20.973  0.00  0.00    +0.016 C 
ATOM     18  C   UNL     1      32.129  -6.219 -22.102  0.00  0.00    +0.062 C 
ATOM     19  C   UNL     1      32.456  -6.941 -20.953  0.00  0.00    +0.013 C 
BRANCH  15  23
ATOM     20  F   UNL     1      30.666  -5.040 -24.302  0.00  0.00    -0.166 F 
ATOM     21  F   UNL     1      32.502  -5.728 -25.228  0.00  0.00    -0.166 F 
ATOM     22  F   UNL     1      30.692  -6.923 -25.388  0.00  0.00    -0.166 F 
ATOM     23  C   UNL     1      31.416  -6.158 -24.522  0.00  0.00    +0.419 C 
ENDBRANCH  15  23
ENDBRANCH   8  14
ENDBRANCH   1   9
BRANCH   2  24
ATOM     24  O   UNL     1      35.429 -17.318 -23.431  0.00  0.00    -0.453 OA
BRANCH  24  26
ATOM     25  N   UNL     1      36.210 -19.868 -20.213  0.00  0.00    -0.239 NA
ATOM     26  C   UNL     1      35.686 -18.162 -22.364  0.00  0.00    +0.149 C 
ATOM     27  C   UNL     1      34.662 -18.921 -21.810  0.00  0.00    +0.061 C 
ATOM     28  C   UNL     1      34.972 -19.751 -20.746  0.00  0.00    +0.137 C 
ATOM     29  C   UNL     1      36.973 -18.255 -21.844  0.00  0.00    +0.058 C 
ATOM     30  C   UNL     1      37.181 -19.115 -20.777  0.00  0.00    +0.102 C 
BRANCH  28  33
ATOM     31  O   UNL     1      32.759 -20.489 -20.510  0.00  0.00    -0.269 OA
ATOM     32  N   UNL     1      34.346 -21.447 -19.116  0.00  0.00    -0.313 N 
ATOM     33  C   UNL     1      33.941 -20.567 -20.127  0.00  0.00    +0.263 C 
ATOM     34  H   UNL     1      35.297 -21.457 -18.862  0.00  0.00    +0.149 HD
ATOM     35  C   UNL     1      33.444 -22.338 -18.423  0.00  0.00    +0.128 C 
ENDBRANCH  28  33
ENDBRANCH  24  26
ENDBRANCH   2  24
TORSDOF 6
ENDMDL
MODEL 9
REMARK VINA RESULT:     -11.0      5.312      8.658
REMARK  Name = 25191001
REMARK  7 active torsions:
REMARK  status: ('A' for Active; 'I' for Inactive)
REMARK    1  A    between atoms: C_1  and  N_9
REMARK    2  A    between atoms: C_2  and  O_24
REMARK    3  A    between atoms: N_8  and  C_14
REMARK    4  A    between atoms: C_15  and  C_23
REMARK    5  A    between atoms: O_24  and  C_26
REMARK    6  A    between atoms: C_28  and  C_33
REMARK    7  A    between atoms: N_32  and  C_35
REMARK                            x       y       z     vdW  Elec       q    Type
REMARK                         _______ _______ _______ _____ _____    ______ ____
ROOT
ATOM      1  C   UNL     1      35.659 -21.214 -18.941  0.00  0.00    +0.052 C 
ATOM      2  C   UNL     1      35.106 -23.060 -16.924  0.00  0.00    +0.145 C 
ATOM      3  C   UNL     1      36.574 -21.414 -17.907  0.00  0.00    +0.018 C 
ATOM      4  C   UNL     1      34.467 -21.938 -18.966  0.00  0.00    +0.018 C 
ATOM      5  C   UNL     1      36.298 -22.337 -16.899  0.00  0.00    +0.039 C 
ATOM      6  C   UNL     1      34.190 -22.861 -17.957  0.00  0.00    +0.039 C 
ENDROOT
BRANCH   1   9
ATOM      7  O   UNL     1      33.845 -19.314 -20.362  0.00  0.00    -0.252 OA
ATOM      8  N   UNL     1      35.733 -18.629 -21.569  0.00  0.00    -0.268 N 
ATOM      9  N   UNL     1      35.939 -20.276 -19.963  0.00  0.00    -0.268 N 
ATOM     10  C   UNL     1      35.045 -19.402 -20.601  0.00  0.00    +0.308 C 
ATOM     11  H   UNL     1      36.697 -18.809 -21.651  0.00  0.00    +0.156 HD
ATOM     12  H   UNL     1      36.875 -20.232 -20.263  0.00  0.00    +0.156 HD
BRANCH   8  14
ATOM     13 CL   UNL     1      33.584 -14.494 -25.204  0.00  0.00    -0.082 Cl
ATOM     14  C   UNL     1      35.225 -17.647 -22.420  0.00  0.00    +0.052 C 
ATOM     15  C   UNL     1      34.442 -15.390 -22.778  0.00  0.00    +0.083 C 
ATOM     16  C   UNL     1      34.950 -16.371 -21.927  0.00  0.00    +0.019 C 
ATOM     17  C   UNL     1      34.993 -17.941 -23.763  0.00  0.00    +0.016 C 
ATOM     18  C   UNL     1      34.210 -15.683 -24.122  0.00  0.00    +0.062 C 
ATOM     19  C   UNL     1      34.485 -16.960 -24.615  0.00  0.00    +0.013 C 
BRANCH  15  23
ATOM     20  F   UNL     1      34.654 -13.859 -20.951  0.00  0.00    -0.166 F 
ATOM     21  F   UNL     1      34.691 -13.017 -22.949  0.00  0.00    -0.166 F 
ATOM     22  F   UNL     1      32.826 -13.773 -22.125  0.00  0.00    -0.166 F 
ATOM     23  C   UNL     1      34.161 -14.035 -22.211  0.00  0.00    +0.419 C 
ENDBRANCH  15  23
ENDBRANCH   8  14
ENDBRANCH   1   9
BRANCH   2  24
ATOM     24  O   UNL     1      34.834 -23.960 -15.939  0.00  0.00    -0.453 OA
BRANCH  24  26
ATOM     25  N   UNL     1      31.367 -23.382 -13.676  0.00  0.00    -0.239 NA
ATOM     26  C   UNL     1      33.686 -23.767 -15.190  0.00  0.00    +0.149 C 
ATOM     27  C   UNL     1      32.492 -23.425 -15.816  0.00  0.00    +0.061 C 
ATOM     28  C   UNL     1      31.371 -23.245 -15.022  0.00  0.00    +0.137 C 
ATOM     29  C   UNL     1      33.722 -23.918 -13.808  0.00  0.00    +0.058 C 
ATOM     30  C   UNL     1      32.546 -23.715 -13.103  0.00  0.00    +0.102 C 
BRANCH  28  33
ATOM     31  O   UNL     1      30.041 -22.514 -16.808  0.00  0.00    -0.269 OA
ATOM     32  N   UNL     1      28.958 -23.003 -14.816  0.00  0.00    -0.313 N 
ATOM     33  C   UNL     1      30.098 -22.886 -15.622  0.00  0.00    +0.263 C 
ATOM     34  H   UNL     1      29.076 -23.303 -13.886  0.00  0.00    +0.149 HD
ATOM     35  C   UNL     1      27.621 -22.708 -15.275  0.00  0.00    +0.128 C 
ENDBRANCH  28  33
ENDBRANCH  24  26
ENDBRANCH   2  24
TORSDOF 6
ENDMDL
