MODEL 1
REMARK VINA RESULT:     -13.0      0.000      0.000
REMARK  Name = 24767976
REMARK  5 active torsions:
REMARK  status: ('A' for Active; 'I' for Inactive)
REMARK    1  A    between atoms: C_1  and  N_9
REMARK    2  A    between atoms: C_2  and  O_19
REMARK    3  A    between atoms: C_10  and  C_14
REMARK    4  A    between atoms: O_19  and  C_27
REMARK    5  A    between atoms: C_31  and  C_33
REMARK                            x       y       z     vdW  Elec       q    Type
REMARK                         _______ _______ _______ _____ _____    ______ ____
ROOT
ATOM      1  C   UNL     1      35.054 -21.846 -18.372  0.00  0.00    +0.050 C 
ATOM      2  C   UNL     1      35.509 -20.415 -20.264  0.00  0.00    +0.148 C 
ATOM      3  C   UNL     1      33.685 -21.710 -18.598  0.00  0.00    -0.008 C 
ATOM      4  C   UNL     1      35.966 -21.199 -19.205  0.00  0.00    +0.052 C 
ATOM      5  C   UNL     1      33.227 -20.926 -19.658  0.00  0.00    +0.000 C 
ATOM      6  C   UNL     1      34.139 -20.279 -20.491  0.00  0.00    +0.037 C 
ATOM      7  C   UNL     1      32.685 -22.392 -17.721  0.00  0.00    +0.032 C 
ENDROOT
BRANCH   1   9
ATOM      8  O   UNL     1      37.001 -21.178 -16.192  0.00  0.00    -0.268 OA
ATOM      9  N   UNL     1      35.532 -22.628 -17.317  0.00  0.00    -0.279 N 
ATOM     10  C   UNL     1      36.446 -22.264 -16.322  0.00  0.00    +0.265 C 
ATOM     11  H   UNL     1      35.184 -23.548 -17.269  0.00  0.00    +0.155 HD
BRANCH  10  14
ATOM     12  N   UNL     1      35.881 -24.036 -14.600  0.00  0.00    -0.206 N 
ATOM     13  N   UNL     1      36.442 -24.949 -13.789  0.00  0.00    -0.182 NA
ATOM     14  C   UNL     1      36.782 -23.333 -15.344  0.00  0.00    +0.124 C 
ATOM     15  C   UNL     1      38.018 -23.820 -14.997  0.00  0.00    +0.037 C 
ATOM     16  C   UNL     1      37.748 -24.813 -14.036  0.00  0.00    +0.078 C 
ATOM     17  C   UNL     1      34.444 -23.888 -14.609  0.00  0.00    +0.140 C 
ATOM     18  C   UNL     1      38.719 -25.661 -13.325  0.00  0.00    +0.054 C 
ENDBRANCH  10  14
ENDBRANCH   1   9
BRANCH   2  19
ATOM     19  O   UNL     1      36.419 -19.768 -21.096  0.00  0.00    -0.435 OA
BRANCH  19  27
ATOM     20  N   UNL     1      33.780 -16.716 -24.585  0.00  0.00    -0.373 NA
ATOM     21  N   UNL     1      34.990 -17.043 -22.739  0.00  0.00    -0.173 N 
ATOM     22  N   UNL     1      35.696 -17.679 -21.764  0.00  0.00    -0.138 NA
ATOM     23  C   UNL     1      34.006 -15.520 -23.951  0.00  0.00    +0.187 C 
ATOM     24  C   UNL     1      34.749 -15.695 -22.809  0.00  0.00    +0.193 C 
ATOM     25  C   UNL     1      34.381 -17.622 -23.841  0.00  0.00    +0.204 C 
ATOM     26  C   UNL     1      34.497 -19.025 -23.980  0.00  0.00    +0.054 C 
ATOM     27  C   UNL     1      35.764 -18.958 -21.951  0.00  0.00    +0.245 C 
ATOM     28  C   UNL     1      35.175 -19.730 -23.066  0.00  0.00    +0.063 C 
ATOM     29  O   UNL     1      34.286 -12.728 -22.861  0.00  0.00    -0.275 OA
ATOM     30  N   UNL     1      33.530 -14.323 -24.429  0.00  0.00    -0.261 N 
ATOM     31  C   UNL     1      33.685 -13.032 -23.884  0.00  0.00    +0.227 C 
ATOM     32  H   UNL     1      33.012 -14.373 -25.264  0.00  0.00    +0.157 HD
BRANCH  31  33
ATOM     33  C   UNL     1      33.032 -11.941 -24.674  0.00  0.00    +0.077 C 
ATOM     34  C   UNL     1      33.853 -11.164 -25.661  0.00  0.00    +0.010 C 
ATOM     35  C   UNL     1      33.397 -10.514 -24.387  0.00  0.00    +0.010 C 
ENDBRANCH  31  33
ENDBRANCH  19  27
ENDBRANCH   2  19
TORSDOF 5
ENDMDL
MODEL 2
REMARK VINA RESULT:     -12.2      0.751      1.167
REMARK  Name = 24767976
REMARK  5 active torsions:
REMARK  status: ('A' for Active; 'I' for Inactive)
REMARK    1  A    between atoms: C_1  and  N_9
REMARK    2  A    between atoms: C_2  and  O_19
REMARK    3  A    between atoms: C_10  and  C_14
REMARK    4  A    between atoms: O_19  and  C_27
REMARK    5  A    between atoms: C_31  and  C_33
REMARK                            x       y       z     vdW  Elec       q    Type
REMARK                         _______ _______ _______ _____ _____    ______ ____
ROOT
ATOM      1  C   UNL     1      34.877 -21.762 -18.314  0.00  0.00    +0.050 C 
ATOM      2  C   UNL     1      35.397 -20.454 -20.276  0.00  0.00    +0.148 C 
ATOM      3  C   UNL     1      33.519 -21.684 -18.622  0.00  0.00    -0.008 C 
ATOM      4  C   UNL     1      35.816 -21.146 -19.141  0.00  0.00    +0.052 C 
ATOM      5  C   UNL     1      33.100 -20.991 -19.758  0.00  0.00    +0.000 C 
ATOM      6  C   UNL     1      34.039 -20.375 -20.585  0.00  0.00    +0.037 C 
ATOM      7  C   UNL     1      32.491 -22.334 -17.753  0.00  0.00    +0.032 C 
ENDROOT
BRANCH   1   9
ATOM      8  O   UNL     1      37.024 -21.075 -16.337  0.00  0.00    -0.268 OA
ATOM      9  N   UNL     1      35.316 -22.452 -17.181  0.00  0.00    -0.279 N 
ATOM     10  C   UNL     1      36.329 -22.085 -16.288  0.00  0.00    +0.265 C 
ATOM     11  H   UNL     1      34.858 -23.303 -16.989  0.00  0.00    +0.155 HD
BRANCH  10  14
ATOM     12  N   UNL     1      37.768 -23.693 -14.958  0.00  0.00    -0.206 N 
ATOM     13  N   UNL     1      37.741 -24.515 -13.896  0.00  0.00    -0.182 NA
ATOM     14  C   UNL     1      36.587 -23.049 -15.186  0.00  0.00    +0.124 C 
ATOM     15  C   UNL     1      35.728 -23.480 -14.205  0.00  0.00    +0.037 C 
ATOM     16  C   UNL     1      36.493 -24.381 -13.439  0.00  0.00    +0.078 C 
ATOM     17  C   UNL     1      38.985 -23.571 -15.727  0.00  0.00    +0.140 C 
ATOM     18  C   UNL     1      36.062 -25.140 -12.253  0.00  0.00    +0.054 C 
ENDBRANCH  10  14
ENDBRANCH   1   9
BRANCH   2  19
ATOM     19  O   UNL     1      36.335 -19.838 -21.103  0.00  0.00    -0.435 OA
BRANCH  19  27
ATOM     20  N   UNL     1      33.834 -16.671 -24.591  0.00  0.00    -0.373 NA
ATOM     21  N   UNL     1      34.986 -17.057 -22.720  0.00  0.00    -0.173 N 
ATOM     22  N   UNL     1      35.657 -17.725 -21.741  0.00  0.00    -0.138 NA
ATOM     23  C   UNL     1      34.056 -15.494 -23.922  0.00  0.00    +0.187 C 
ATOM     24  C   UNL     1      34.764 -15.705 -22.764  0.00  0.00    +0.193 C 
ATOM     25  C   UNL     1      34.402 -17.602 -23.851  0.00  0.00    +0.204 C 
ATOM     26  C   UNL     1      34.505 -19.003 -24.020  0.00  0.00    +0.054 C 
ATOM     27  C   UNL     1      35.714 -19.000 -21.956  0.00  0.00    +0.245 C 
ATOM     28  C   UNL     1      35.147 -19.738 -23.105  0.00  0.00    +0.063 C 
ATOM     29  O   UNL     1      34.339 -12.732 -22.759  0.00  0.00    -0.275 OA
ATOM     30  N   UNL     1      33.609 -14.279 -24.385  0.00  0.00    -0.261 N 
ATOM     31  C   UNL     1      33.764 -13.003 -23.805  0.00  0.00    +0.227 C 
ATOM     32  H   UNL     1      33.114 -14.303 -25.235  0.00  0.00    +0.157 HD
BRANCH  31  33
ATOM     33  C   UNL     1      33.147 -11.886 -24.587  0.00  0.00    +0.077 C 
ATOM     34  C   UNL     1      34.005 -11.096 -25.532  0.00  0.00    +0.010 C 
ATOM     35  C   UNL     1      33.522 -10.471 -24.257  0.00  0.00    +0.010 C 
ENDBRANCH  31  33
ENDBRANCH  19  27
ENDBRANCH   2  19
TORSDOF 5
ENDMDL
MODEL 3
REMARK VINA RESULT:     -11.8      1.183      1.557
REMARK  Name = 24767976
REMARK  5 active torsions:
REMARK  status: ('A' for Active; 'I' for Inactive)
REMARK    1  A    between atoms: C_1  and  N_9
REMARK    2  A    between atoms: C_2  and  O_19
REMARK    3  A    between atoms: C_10  and  C_14
REMARK    4  A    between atoms: O_19  and  C_27
REMARK    5  A    between atoms: C_31  and  C_33
REMARK                            x       y       z     vdW  Elec       q    Type
REMARK                         _______ _______ _______ _____ _____    ______ ____
ROOT
ATOM      1  C   UNL     1      34.954 -21.742 -18.601  0.00  0.00    +0.050 C 
ATOM      2  C   UNL     1      35.100 -20.429 -20.623  0.00  0.00    +0.148 C 
ATOM      3  C   UNL     1      33.562 -21.677 -18.658  0.00  0.00    -0.008 C 
ATOM      4  C   UNL     1      35.723 -21.118 -19.584  0.00  0.00    +0.052 C 
ATOM      5  C   UNL     1      32.939 -20.986 -19.699  0.00  0.00    +0.000 C 
ATOM      6  C   UNL     1      33.708 -20.362 -20.681  0.00  0.00    +0.037 C 
ATOM      7  C   UNL     1      32.713 -22.336 -17.620  0.00  0.00    +0.032 C 
ENDROOT
BRANCH   1   9
ATOM      8  O   UNL     1      37.170 -20.871 -16.779  0.00  0.00    -0.268 OA
ATOM      9  N   UNL     1      35.597 -22.430 -17.568  0.00  0.00    -0.279 N 
ATOM     10  C   UNL     1      36.632 -21.973 -16.744  0.00  0.00    +0.265 C 
ATOM     11  H   UNL     1      35.284 -23.349 -17.400  0.00  0.00    +0.155 HD
BRANCH  10  14
ATOM     12  N   UNL     1      36.388 -23.520 -14.751  0.00  0.00    -0.206 N 
ATOM     13  N   UNL     1      37.076 -24.379 -13.980  0.00  0.00    -0.182 NA
ATOM     14  C   UNL     1      37.131 -22.955 -15.746  0.00  0.00    +0.124 C 
ATOM     15  C   UNL     1      38.393 -23.482 -15.617  0.00  0.00    +0.037 C 
ATOM     16  C   UNL     1      38.300 -24.352 -14.514  0.00  0.00    +0.078 C 
ATOM     17  C   UNL     1      34.991 -23.282 -14.470  0.00  0.00    +0.140 C 
ATOM     18  C   UNL     1      39.369 -25.182 -13.935  0.00  0.00    +0.054 C 
ENDBRANCH  10  14
ENDBRANCH   1   9
BRANCH   2  19
ATOM     19  O   UNL     1      35.867 -19.805 -21.604  0.00  0.00    -0.435 OA
BRANCH  19  27
ATOM     20  N   UNL     1      34.518 -14.648 -21.803  0.00  0.00    -0.373 NA
ATOM     21  N   UNL     1      34.886 -16.648 -22.719  0.00  0.00    -0.173 N 
ATOM     22  N   UNL     1      35.205 -17.967 -22.835  0.00  0.00    -0.138 NA
ATOM     23  C   UNL     1      34.295 -14.595 -23.155  0.00  0.00    +0.187 C 
ATOM     24  C   UNL     1      34.516 -15.817 -23.744  0.00  0.00    +0.193 C 
ATOM     25  C   UNL     1      34.874 -15.893 -21.558  0.00  0.00    +0.204 C 
ATOM     26  C   UNL     1      35.229 -16.549 -20.356  0.00  0.00    +0.054 C 
ATOM     27  C   UNL     1      35.519 -18.506 -21.702  0.00  0.00    +0.245 C 
ATOM     28  C   UNL     1      35.557 -17.847 -20.379  0.00  0.00    +0.063 C 
ATOM     29  O   UNL     1      33.712 -14.088 -26.064  0.00  0.00    -0.275 OA
ATOM     30  N   UNL     1      33.901 -13.447 -23.800  0.00  0.00    -0.261 N 
ATOM     31  C   UNL     1      33.638 -13.253 -25.172  0.00  0.00    +0.227 C 
ATOM     32  H   UNL     1      33.788 -12.655 -23.228  0.00  0.00    +0.157 HD
BRANCH  31  33
ATOM     33  C   UNL     1      33.224 -11.860 -25.534  0.00  0.00    +0.077 C 
ATOM     34  C   UNL     1      34.276 -10.799 -25.669  0.00  0.00    +0.010 C 
ATOM     35  C   UNL     1      33.332 -10.776 -24.503  0.00  0.00    +0.010 C 
ENDBRANCH  31  33
ENDBRANCH  19  27
ENDBRANCH   2  19
TORSDOF 5
ENDMDL
MODEL 4
REMARK VINA RESULT:     -11.2      1.809     11.334
REMARK  Name = 24767976
REMARK  5 active torsions:
REMARK  status: ('A' for Active; 'I' for Inactive)
REMARK    1  A    between atoms: C_1  and  N_9
REMARK    2  A    between atoms: C_2  and  O_19
REMARK    3  A    between atoms: C_10  and  C_14
REMARK    4  A    between atoms: O_19  and  C_27
REMARK    5  A    between atoms: C_31  and  C_33
REMARK                            x       y       z     vdW  Elec       q    Type
REMARK                         _______ _______ _______ _____ _____    ______ ____
ROOT
ATOM      1  C   UNL     1      35.234 -19.102 -20.878  0.00  0.00    +0.050 C 
ATOM      2  C   UNL     1      34.397 -21.090 -19.791  0.00  0.00    +0.148 C 
ATOM      3  C   UNL     1      36.542 -19.508 -20.615  0.00  0.00    -0.008 C 
ATOM      4  C   UNL     1      34.161 -19.893 -20.466  0.00  0.00    +0.052 C 
ATOM      5  C   UNL     1      36.777 -20.707 -19.939  0.00  0.00    +0.000 C 
ATOM      6  C   UNL     1      35.705 -21.497 -19.527  0.00  0.00    +0.037 C 
ATOM      7  C   UNL     1      37.710 -18.681 -21.044  0.00  0.00    +0.032 C 
ENDROOT
BRANCH   1   9
ATOM      8  O   UNL     1      35.133 -16.284 -19.860  0.00  0.00    -0.268 OA
ATOM      9  N   UNL     1      34.978 -17.906 -21.554  0.00  0.00    -0.279 N 
ATOM     10  C   UNL     1      34.942 -16.610 -21.027  0.00  0.00    +0.265 C 
ATOM     11  H   UNL     1      34.799 -17.986 -22.519  0.00  0.00    +0.155 HD
BRANCH  10  14
ATOM     12  N   UNL     1      34.530 -15.692 -23.353  0.00  0.00    -0.206 N 
ATOM     13  N   UNL     1      34.215 -14.563 -24.011  0.00  0.00    -0.182 NA
ATOM     14  C   UNL     1      34.611 -15.536 -22.000  0.00  0.00    +0.124 C 
ATOM     15  C   UNL     1      34.330 -14.214 -21.756  0.00  0.00    +0.037 C 
ATOM     16  C   UNL     1      34.093 -13.664 -23.030  0.00  0.00    +0.078 C 
ATOM     17  C   UNL     1      34.745 -16.909 -24.101  0.00  0.00    +0.140 C 
ATOM     18  C   UNL     1      33.745 -12.271 -23.355  0.00  0.00    +0.054 C 
ENDBRANCH  10  14
ENDBRANCH   1   9
BRANCH   2  19
ATOM     19  O   UNL     1      33.326 -21.880 -19.379  0.00  0.00    -0.435 OA
BRANCH  19  27
ATOM     20  N   UNL     1      34.018 -23.718 -14.419  0.00  0.00    -0.373 NA
ATOM     21  N   UNL     1      34.754 -22.995 -16.397  0.00  0.00    -0.173 N 
ATOM     22  N   UNL     1      34.746 -22.523 -17.675  0.00  0.00    -0.138 NA
ATOM     23  C   UNL     1      35.390 -23.724 -14.443  0.00  0.00    +0.187 C 
ATOM     24  C   UNL     1      35.868 -23.282 -15.653  0.00  0.00    +0.193 C 
ATOM     25  C   UNL     1      33.652 -23.276 -15.606  0.00  0.00    +0.204 C 
ATOM     26  C   UNL     1      32.375 -23.054 -16.173  0.00  0.00    +0.054 C 
ATOM     27  C   UNL     1      33.549 -22.342 -18.132  0.00  0.00    +0.245 C 
ATOM     28  C   UNL     1      32.275 -22.590 -17.425  0.00  0.00    +0.063 C 
ATOM     29  O   UNL     1      38.378 -23.876 -14.113  0.00  0.00    -0.275 OA
ATOM     30  N   UNL     1      36.151 -24.127 -13.372  0.00  0.00    -0.261 N 
ATOM     31  C   UNL     1      37.555 -24.183 -13.261  0.00  0.00    +0.227 C 
ATOM     32  H   UNL     1      35.648 -24.416 -12.577  0.00  0.00    +0.157 HD
BRANCH  31  33
ATOM     33  C   UNL     1      38.054 -24.675 -11.937  0.00  0.00    +0.077 C 
ATOM     34  C   UNL     1      37.797 -26.101 -11.545  0.00  0.00    +0.010 C 
ATOM     35  C   UNL     1      37.063 -24.988 -10.855  0.00  0.00    +0.010 C 
ENDBRANCH  31  33
ENDBRANCH  19  27
ENDBRANCH   2  19
TORSDOF 5
ENDMDL
MODEL 5
REMARK VINA RESULT:     -11.1      4.923     11.969
REMARK  Name = 24767976
REMARK  5 active torsions:
REMARK  status: ('A' for Active; 'I' for Inactive)
REMARK    1  A    between atoms: C_1  and  N_9
REMARK    2  A    between atoms: C_2  and  O_19
REMARK    3  A    between atoms: C_10  and  C_14
REMARK    4  A    between atoms: O_19  and  C_27
REMARK    5  A    between atoms: C_31  and  C_33
REMARK                            x       y       z     vdW  Elec       q    Type
REMARK                         _______ _______ _______ _____ _____    ______ ____
ROOT
ATOM      1  C   UNL     1      33.211 -23.223 -15.043  0.00  0.00    +0.050 C 
ATOM      2  C   UNL     1      33.547 -24.092 -12.815  0.00  0.00    +0.148 C 
ATOM      3  C   UNL     1      31.914 -23.735 -15.048  0.00  0.00    -0.008 C 
ATOM      4  C   UNL     1      34.028 -23.401 -13.927  0.00  0.00    +0.052 C 
ATOM      5  C   UNL     1      31.433 -24.426 -13.935  0.00  0.00    +0.000 C 
ATOM      6  C   UNL     1      32.250 -24.604 -12.818  0.00  0.00    +0.037 C 
ATOM      7  C   UNL     1      31.017 -23.560 -16.231  0.00  0.00    +0.032 C 
ENDROOT
BRANCH   1   9
ATOM      8  O   UNL     1      33.795 -24.170 -17.828  0.00  0.00    -0.268 OA
ATOM      9  N   UNL     1      33.711 -22.528 -16.148  0.00  0.00    -0.279 N 
ATOM     10  C   UNL     1      33.966 -23.021 -17.432  0.00  0.00    +0.265 C 
ATOM     11  H   UNL     1      33.908 -21.573 -16.004  0.00  0.00    +0.155 HD
BRANCH  10  14
ATOM     12  N   UNL     1      35.812 -21.577 -18.397  0.00  0.00    -0.206 N 
ATOM     13  N   UNL     1      36.068 -20.687 -19.371  0.00  0.00    -0.182 NA
ATOM     14  C   UNL     1      34.527 -22.035 -18.393  0.00  0.00    +0.124 C 
ATOM     15  C   UNL     1      33.899 -21.401 -19.437  0.00  0.00    +0.037 C 
ATOM     16  C   UNL     1      34.896 -20.584 -20.003  0.00  0.00    +0.078 C 
ATOM     17  C   UNL     1      36.869 -21.950 -17.485  0.00  0.00    +0.140 C 
ATOM     18  C   UNL     1      34.766 -19.682 -21.160  0.00  0.00    +0.054 C 
ENDBRANCH  10  14
ENDBRANCH   1   9
BRANCH   2  19
ATOM     19  O   UNL     1      34.363 -24.270 -11.700  0.00  0.00    -0.435 OA
BRANCH  19  27
ATOM     20  N   UNL     1      39.392 -25.338 -13.120  0.00  0.00    -0.373 NA
ATOM     21  N   UNL     1      37.183 -25.614 -13.253  0.00  0.00    -0.173 N 
ATOM     22  N   UNL     1      35.853 -25.457 -13.004  0.00  0.00    -0.138 NA
ATOM     23  C   UNL     1      39.091 -26.288 -14.063  0.00  0.00    +0.187 C 
ATOM     24  C   UNL     1      37.734 -26.477 -14.163  0.00  0.00    +0.193 C 
ATOM     25  C   UNL     1      38.229 -24.943 -12.643  0.00  0.00    +0.204 C 
ATOM     26  C   UNL     1      37.895 -23.989 -11.653  0.00  0.00    +0.054 C 
ATOM     27  C   UNL     1      35.617 -24.572 -12.091  0.00  0.00    +0.245 C 
ATOM     28  C   UNL     1      36.610 -23.771 -11.346  0.00  0.00    +0.063 C 
ATOM     29  O   UNL     1      38.834 -28.403 -16.189  0.00  0.00    -0.275 OA
ATOM     30  N   UNL     1      40.055 -26.944 -14.792  0.00  0.00    -0.261 N 
ATOM     31  C   UNL     1      39.889 -27.933 -15.783  0.00  0.00    +0.227 C 
ATOM     32  H   UNL     1      40.984 -26.689 -14.596  0.00  0.00    +0.157 HD
BRANCH  31  33
ATOM     33  C   UNL     1      41.167 -28.435 -16.380  0.00  0.00    +0.077 C 
ATOM     34  C   UNL     1      41.250 -29.864 -16.830  0.00  0.00    +0.010 C 
ATOM     35  C   UNL     1      41.996 -29.417 -15.607  0.00  0.00    +0.010 C 
ENDBRANCH  31  33
ENDBRANCH  19  27
ENDBRANCH   2  19
TORSDOF 5
ENDMDL
MODEL 6
REMARK VINA RESULT:     -10.9      1.792     11.134
REMARK  Name = 24767976
REMARK  5 active torsions:
REMARK  status: ('A' for Active; 'I' for Inactive)
REMARK    1  A    between atoms: C_1  and  N_9
REMARK    2  A    between atoms: C_2  and  O_19
REMARK    3  A    between atoms: C_10  and  C_14
REMARK    4  A    between atoms: O_19  and  C_27
REMARK    5  A    between atoms: C_31  and  C_33
REMARK                            x       y       z     vdW  Elec       q    Type
REMARK                         _______ _______ _______ _____ _____    ______ ____
ROOT
ATOM      1  C   UNL     1      34.913 -17.191 -22.806  0.00  0.00    +0.050 C 
ATOM      2  C   UNL     1      36.268 -18.834 -21.665  0.00  0.00    +0.148 C 
ATOM      3  C   UNL     1      34.449 -18.177 -23.675  0.00  0.00    -0.008 C 
ATOM      4  C   UNL     1      35.823 -17.519 -21.800  0.00  0.00    +0.052 C 
ATOM      5  C   UNL     1      34.894 -19.493 -23.539  0.00  0.00    +0.000 C 
ATOM      6  C   UNL     1      35.804 -19.821 -22.534  0.00  0.00    +0.037 C 
ATOM      7  C   UNL     1      33.475 -17.854 -24.762  0.00  0.00    +0.032 C 
ENDROOT
BRANCH   1   9
ATOM      8  O   UNL     1      34.601 -15.058 -20.722  0.00  0.00    -0.268 OA
ATOM      9  N   UNL     1      34.479 -15.868 -22.925  0.00  0.00    -0.279 N 
ATOM     10  C   UNL     1      34.351 -14.910 -21.914  0.00  0.00    +0.265 C 
ATOM     11  H   UNL     1      34.231 -15.575 -23.833  0.00  0.00    +0.155 HD
BRANCH  10  14
ATOM     12  N   UNL     1      32.877 -12.858 -21.705  0.00  0.00    -0.206 N 
ATOM     13  N   UNL     1      32.582 -11.694 -22.308  0.00  0.00    -0.182 NA
ATOM     14  C   UNL     1      33.831 -13.588 -22.352  0.00  0.00    +0.124 C 
ATOM     15  C   UNL     1      34.184 -12.850 -23.455  0.00  0.00    +0.037 C 
ATOM     16  C   UNL     1      33.384 -11.694 -23.376  0.00  0.00    +0.078 C 
ATOM     17  C   UNL     1      32.190 -13.216 -20.485  0.00  0.00    +0.140 C 
ATOM     18  C   UNL     1      33.356 -10.557 -24.311  0.00  0.00    +0.054 C 
ENDBRANCH  10  14
ENDBRANCH   1   9
BRANCH   2  19
ATOM     19  O   UNL     1      37.176 -19.162 -20.661  0.00  0.00    -0.435 OA
BRANCH  19  27
ATOM     20  N   UNL     1      34.807 -22.640 -17.384  0.00  0.00    -0.373 NA
ATOM     21  N   UNL     1      36.505 -21.341 -18.021  0.00  0.00    -0.173 N 
ATOM     22  N   UNL     1      37.241 -20.459 -18.752  0.00  0.00    -0.138 NA
ATOM     23  C   UNL     1      35.842 -22.744 -16.489  0.00  0.00    +0.187 C 
ATOM     24  C   UNL     1      36.901 -21.952 -16.860  0.00  0.00    +0.193 C 
ATOM     25  C   UNL     1      35.225 -21.790 -18.300  0.00  0.00    +0.204 C 
ATOM     26  C   UNL     1      34.604 -21.288 -19.469  0.00  0.00    +0.054 C 
ATOM     27  C   UNL     1      36.617 -20.040 -19.805  0.00  0.00    +0.245 C 
ATOM     28  C   UNL     1      35.257 -20.417 -20.246  0.00  0.00    +0.063 C 
ATOM     29  O   UNL     1      37.874 -23.231 -14.323  0.00  0.00    -0.275 OA
ATOM     30  N   UNL     1      35.785 -23.549 -15.376  0.00  0.00    -0.261 N 
ATOM     31  C   UNL     1      36.766 -23.748 -14.383  0.00  0.00    +0.227 C 
ATOM     32  H   UNL     1      34.949 -24.053 -15.257  0.00  0.00    +0.157 HD
BRANCH  31  33
ATOM     33  C   UNL     1      36.367 -24.702 -13.300  0.00  0.00    +0.077 C 
ATOM     34  C   UNL     1      35.594 -24.185 -12.121  0.00  0.00    +0.010 C 
ATOM     35  C   UNL     1      37.028 -24.597 -11.956  0.00  0.00    +0.010 C 
ENDBRANCH  31  33
ENDBRANCH  19  27
ENDBRANCH   2  19
TORSDOF 5
ENDMDL
MODEL 7
REMARK VINA RESULT:     -10.6      1.648      1.868
REMARK  Name = 24767976
REMARK  5 active torsions:
REMARK  status: ('A' for Active; 'I' for Inactive)
REMARK    1  A    between atoms: C_1  and  N_9
REMARK    2  A    between atoms: C_2  and  O_19
REMARK    3  A    between atoms: C_10  and  C_14
REMARK    4  A    between atoms: O_19  and  C_27
REMARK    5  A    between atoms: C_31  and  C_33
REMARK                            x       y       z     vdW  Elec       q    Type
REMARK                         _______ _______ _______ _____ _____    ______ ____
ROOT
ATOM      1  C   UNL     1      35.015 -21.936 -18.062  0.00  0.00    +0.050 C 
ATOM      2  C   UNL     1      35.621 -20.404 -19.828  0.00  0.00    +0.148 C 
ATOM      3  C   UNL     1      33.678 -21.856 -18.451  0.00  0.00    -0.008 C 
ATOM      4  C   UNL     1      35.987 -21.210 -18.751  0.00  0.00    +0.052 C 
ATOM      5  C   UNL     1      33.312 -21.049 -19.529  0.00  0.00    +0.000 C 
ATOM      6  C   UNL     1      34.284 -20.322 -20.217  0.00  0.00    +0.037 C 
ATOM      7  C   UNL     1      32.616 -22.623 -17.732  0.00  0.00    +0.032 C 
ENDROOT
BRANCH   1   9
ATOM      8  O   UNL     1      36.949 -21.397 -15.836  0.00  0.00    -0.268 OA
ATOM      9  N   UNL     1      35.400 -22.740 -16.986  0.00  0.00    -0.279 N 
ATOM     10  C   UNL     1      36.314 -22.437 -15.970  0.00  0.00    +0.265 C 
ATOM     11  H   UNL     1      34.979 -23.629 -16.938  0.00  0.00    +0.155 HD
BRANCH  10  14
ATOM     12  N   UNL     1      35.568 -24.112 -14.220  0.00  0.00    -0.206 N 
ATOM     13  N   UNL     1      36.032 -25.063 -13.391  0.00  0.00    -0.182 NA
ATOM     14  C   UNL     1      36.537 -23.517 -14.973  0.00  0.00    +0.124 C 
ATOM     15  C   UNL     1      37.717 -24.120 -14.611  0.00  0.00    +0.037 C 
ATOM     16  C   UNL     1      37.345 -25.063 -13.634  0.00  0.00    +0.078 C 
ATOM     17  C   UNL     1      34.153 -23.820 -14.238  0.00  0.00    +0.140 C 
ATOM     18  C   UNL     1      38.224 -25.992 -12.904  0.00  0.00    +0.054 C 
ENDBRANCH  10  14
ENDBRANCH   1   9
BRANCH   2  19
ATOM     19  O   UNL     1      36.591 -19.678 -20.515  0.00  0.00    -0.435 OA
BRANCH  19  27
ATOM     20  N   UNL     1      34.442 -15.406 -22.878  0.00  0.00    -0.373 NA
ATOM     21  N   UNL     1      35.006 -16.624 -21.097  0.00  0.00    -0.173 N 
ATOM     22  N   UNL     1      35.511 -17.643 -20.348  0.00  0.00    -0.138 NA
ATOM     23  C   UNL     1      34.054 -14.767 -21.727  0.00  0.00    +0.187 C 
ATOM     24  C   UNL     1      34.391 -15.500 -20.615  0.00  0.00    +0.193 C 
ATOM     25  C   UNL     1      35.014 -16.523 -22.479  0.00  0.00    +0.204 C 
ATOM     26  C   UNL     1      35.606 -17.586 -23.201  0.00  0.00    +0.054 C 
ATOM     27  C   UNL     1      36.037 -18.580 -21.068  0.00  0.00    +0.245 C 
ATOM     28  C   UNL     1      36.128 -18.629 -22.543  0.00  0.00    +0.063 C 
ATOM     29  O   UNL     1      33.060 -13.074 -19.447  0.00  0.00    -0.275 OA
ATOM     30  N   UNL     1      33.412 -13.552 -21.731  0.00  0.00    -0.261 N 
ATOM     31  C   UNL     1      32.962 -12.790 -20.633  0.00  0.00    +0.227 C 
ATOM     32  H   UNL     1      33.245 -13.161 -22.618  0.00  0.00    +0.157 HD
BRANCH  31  33
ATOM     33  C   UNL     1      32.299 -11.499 -21.003  0.00  0.00    +0.077 C 
ATOM     34  C   UNL     1      30.860 -11.514 -21.428  0.00  0.00    +0.010 C 
ATOM     35  C   UNL     1      31.938 -11.250 -22.438  0.00  0.00    +0.010 C 
ENDBRANCH  31  33
ENDBRANCH  19  27
ENDBRANCH   2  19
TORSDOF 5
ENDMDL
MODEL 8
REMARK VINA RESULT:     -10.6      2.272      3.662
REMARK  Name = 24767976
REMARK  5 active torsions:
REMARK  status: ('A' for Active; 'I' for Inactive)
REMARK    1  A    between atoms: C_1  and  N_9
REMARK    2  A    between atoms: C_2  and  O_19
REMARK    3  A    between atoms: C_10  and  C_14
REMARK    4  A    between atoms: O_19  and  C_27
REMARK    5  A    between atoms: C_31  and  C_33
REMARK                            x       y       z     vdW  Elec       q    Type
REMARK                         _______ _______ _______ _____ _____    ______ ____
ROOT
ATOM      1  C   UNL     1      34.950 -21.034 -19.115  0.00  0.00    +0.050 C 
ATOM      2  C   UNL     1      35.314 -19.943 -21.238  0.00  0.00    +0.148 C 
ATOM      3  C   UNL     1      36.328 -21.108 -18.916  0.00  0.00    -0.008 C 
ATOM      4  C   UNL     1      34.443 -20.452 -20.276  0.00  0.00    +0.052 C 
ATOM      5  C   UNL     1      37.200 -20.598 -19.879  0.00  0.00    +0.000 C 
ATOM      6  C   UNL     1      36.692 -20.016 -21.040  0.00  0.00    +0.037 C 
ATOM      7  C   UNL     1      36.900 -21.727 -17.681  0.00  0.00    +0.032 C 
ENDROOT
BRANCH   1   9
ATOM      8  O   UNL     1      33.804 -23.787 -18.796  0.00  0.00    -0.268 OA
ATOM      9  N   UNL     1      34.061 -21.538 -18.161  0.00  0.00    -0.279 N 
ATOM     10  C   UNL     1      33.555 -22.838 -18.058  0.00  0.00    +0.265 C 
ATOM     11  H   UNL     1      33.752 -20.898 -17.479  0.00  0.00    +0.155 HD
BRANCH  10  14
ATOM     12  N   UNL     1      32.912 -23.583 -15.722  0.00  0.00    -0.206 N 
ATOM     13  N   UNL     1      31.863 -23.684 -14.889  0.00  0.00    -0.182 NA
ATOM     14  C   UNL     1      32.597 -23.063 -16.944  0.00  0.00    +0.124 C 
ATOM     15  C   UNL     1      31.249 -22.806 -16.906  0.00  0.00    +0.037 C 
ATOM     16  C   UNL     1      30.850 -23.208 -15.617  0.00  0.00    +0.078 C 
ATOM     17  C   UNL     1      34.216 -24.013 -15.273  0.00  0.00    +0.140 C 
ATOM     18  C   UNL     1      29.496 -23.152 -15.039  0.00  0.00    +0.054 C 
ENDBRANCH  10  14
ENDBRANCH   1   9
BRANCH   2  19
ATOM     19  O   UNL     1      34.808 -19.361 -22.398  0.00  0.00    -0.435 OA
BRANCH  19  27
ATOM     20  N   UNL     1      34.677 -14.080 -21.659  0.00  0.00    -0.373 NA
ATOM     21  N   UNL     1      34.473 -15.924 -22.897  0.00  0.00    -0.173 N 
ATOM     22  N   UNL     1      34.463 -17.241 -23.246  0.00  0.00    -0.138 NA
ATOM     23  C   UNL     1      34.330 -13.750 -22.944  0.00  0.00    +0.187 C 
ATOM     24  C   UNL     1      34.199 -14.870 -23.728  0.00  0.00    +0.193 C 
ATOM     25  C   UNL     1      34.758 -15.395 -21.649  0.00  0.00    +0.204 C 
ATOM     26  C   UNL     1      35.076 -16.309 -20.617  0.00  0.00    +0.054 C 
ATOM     27  C   UNL     1      34.762 -18.021 -22.258  0.00  0.00    +0.245 C 
ATOM     28  C   UNL     1      35.090 -17.623 -20.873  0.00  0.00    +0.063 C 
ATOM     29  O   UNL     1      33.577 -12.637 -25.638  0.00  0.00    -0.275 OA
ATOM     30  N   UNL     1      34.147 -12.450 -23.355  0.00  0.00    -0.261 N 
ATOM     31  C   UNL     1      33.794 -11.972 -24.633  0.00  0.00    +0.227 C 
ATOM     32  H   UNL     1      34.281 -11.763 -22.665  0.00  0.00    +0.157 HD
BRANCH  31  33
ATOM     33  C   UNL     1      33.677 -10.482 -24.729  0.00  0.00    +0.077 C 
ATOM     34  C   UNL     1      34.921  -9.665 -24.918  0.00  0.00    +0.010 C 
ATOM     35  C   UNL     1      34.198  -9.637 -23.604  0.00  0.00    +0.010 C 
ENDBRANCH  31  33
ENDBRANCH  19  27
ENDBRANCH   2  19
TORSDOF 5
ENDMDL
MODEL 9
REMARK VINA RESULT:     -10.5      4.379      7.843
REMARK  Name = 24767976
REMARK  5 active torsions:
REMARK  status: ('A' for Active; 'I' for Inactive)
REMARK    1  A    between atoms: C_1  and  N_9
REMARK    2  A    between atoms: C_2  and  O_19
REMARK    3  A    between atoms: C_10  and  C_14
REMARK    4  A    between atoms: O_19  and  C_27
REMARK    5  A    between atoms: C_31  and  C_33
REMARK                            x       y       z     vdW  Elec       q    Type
REMARK                         _______ _______ _______ _____ _____    ______ ____
ROOT
ATOM      1  C   UNL     1      36.492 -25.167 -13.118  0.00  0.00    +0.050 C 
ATOM      2  C   UNL     1      34.130 -24.664 -13.156  0.00  0.00    +0.148 C 
ATOM      3  C   UNL     1      36.648 -24.351 -11.998  0.00  0.00    -0.008 C 
ATOM      4  C   UNL     1      35.232 -25.323 -13.697  0.00  0.00    +0.052 C 
ATOM      5  C   UNL     1      35.545 -23.691 -11.456  0.00  0.00    +0.000 C 
ATOM      6  C   UNL     1      34.285 -23.848 -12.035  0.00  0.00    +0.037 C 
ATOM      7  C   UNL     1      37.986 -24.165 -11.358  0.00  0.00    +0.032 C 
ENDROOT
BRANCH   1   9
ATOM      8  O   UNL     1      36.656 -26.935 -15.534  0.00  0.00    -0.268 OA
ATOM      9  N   UNL     1      37.585 -25.836 -13.675  0.00  0.00    -0.279 N 
ATOM     10  C   UNL     1      37.606 -26.654 -14.810  0.00  0.00    +0.265 C 
ATOM     11  H   UNL     1      38.446 -25.719 -13.210  0.00  0.00    +0.155 HD
BRANCH  10  14
ATOM     12  N   UNL     1      40.130 -26.831 -14.654  0.00  0.00    -0.206 N 
ATOM     13  N   UNL     1      41.176 -27.542 -15.106  0.00  0.00    -0.182 NA
ATOM     14  C   UNL     1      38.926 -27.254 -15.139  0.00  0.00    +0.124 C 
ATOM     15  C   UNL     1      39.205 -28.315 -15.965  0.00  0.00    +0.037 C 
ATOM     16  C   UNL     1      40.606 -28.447 -15.906  0.00  0.00    +0.078 C 
ATOM     17  C   UNL     1      40.361 -25.736 -13.741  0.00  0.00    +0.140 C 
ATOM     18  C   UNL     1      41.443 -29.436 -16.606  0.00  0.00    +0.054 C 
ENDBRANCH  10  14
ENDBRANCH   1   9
BRANCH   2  19
ATOM     19  O   UNL     1      32.872 -24.820 -13.733  0.00  0.00    -0.435 OA
BRANCH  19  27
ATOM     20  N   UNL     1      32.372 -21.950 -18.202  0.00  0.00    -0.373 NA
ATOM     21  N   UNL     1      33.557 -22.983 -16.620  0.00  0.00    -0.173 N 
ATOM     22  N   UNL     1      33.851 -23.704 -15.502  0.00  0.00    -0.138 NA
ATOM     23  C   UNL     1      33.714 -21.812 -18.452  0.00  0.00    +0.187 C 
ATOM     24  C   UNL     1      34.466 -22.440 -17.489  0.00  0.00    +0.193 C 
ATOM     25  C   UNL     1      32.296 -22.659 -17.094  0.00  0.00    +0.204 C 
ATOM     26  C   UNL     1      31.187 -23.120 -16.347  0.00  0.00    +0.054 C 
ATOM     27  C   UNL     1      32.794 -24.094 -14.867  0.00  0.00    +0.245 C 
ATOM     28  C   UNL     1      31.385 -23.836 -15.233  0.00  0.00    +0.063 C 
ATOM     29  O   UNL     1      36.546 -21.295 -19.328  0.00  0.00    -0.275 OA
ATOM     30  N   UNL     1      34.201 -21.124 -19.537  0.00  0.00    -0.261 N 
ATOM     31  C   UNL     1      35.543 -20.905 -19.911  0.00  0.00    +0.227 C 
ATOM     32  H   UNL     1      33.524 -20.732 -20.133  0.00  0.00    +0.157 HD
BRANCH  31  33
ATOM     33  C   UNL     1      35.716 -20.106 -21.166  0.00  0.00    +0.077 C 
ATOM     34  C   UNL     1      35.578 -18.613 -21.105  0.00  0.00    +0.010 C 
ATOM     35  C   UNL     1      34.519 -19.438 -21.775  0.00  0.00    +0.010 C 
ENDBRANCH  31  33
ENDBRANCH  19  27
ENDBRANCH   2  19
TORSDOF 5
ENDMDL
