MODEL 1
REMARK VINA RESULT:     -12.1      0.000      0.000
REMARK  Name = 44814409
REMARK  5 active torsions:
REMARK  status: ('A' for Active; 'I' for Inactive)
REMARK    1  A    between atoms: N_2  and  C_22
REMARK    2  A    between atoms: C_3  and  C_7
REMARK    3  A    between atoms: C_9  and  C_14
REMARK    4  A    between atoms: C_21  and  C_26
REMARK    5  A    between atoms: C_29  and  N_33
REMARK                            x       y       z     vdW  Elec       q    Type
REMARK                         _______ _______ _______ _____ _____    ______ ____
ROOT
ATOM      1  O   UNL     1      32.443 -21.826 -19.667  0.00  0.00    -0.267 OA
ATOM      2  N   UNL     1      33.537 -22.105 -17.605  0.00  0.00    -0.278 N 
ATOM      3  C   UNL     1      33.424 -21.701 -18.942  0.00  0.00    +0.275 C 
ATOM      4  H   UNL     1      34.403 -21.925 -17.171  0.00  0.00    +0.155 HD
ENDROOT
BRANCH   3   7
ATOM      5  F   UNL     1      37.807 -19.102 -21.150  0.00  0.00    -0.202 F 
ATOM      6  N   UNL     1      34.380 -20.083 -20.442  0.00  0.00    -0.399 NA
ATOM      7  C   UNL     1      34.623 -21.030 -19.508  0.00  0.00    +0.167 C 
ATOM      8  C   UNL     1      35.891 -21.386 -19.077  0.00  0.00    +0.092 C 
ATOM      9  C   UNL     1      35.462 -19.463 -20.964  0.00  0.00    +0.162 C 
ATOM     10  C   UNL     1      36.978 -20.726 -19.639  0.00  0.00    +0.014 C 
ATOM     11  C   UNL     1      36.768 -19.745 -20.601  0.00  0.00    +0.166 C 
BRANCH   9  14
ATOM     12  F   UNL     1      35.447 -16.727 -20.349  0.00  0.00    -0.204 F 
ATOM     13  F   UNL     1      34.861 -20.128 -23.621  0.00  0.00    -0.204 F 
ATOM     14  C   UNL     1      35.163 -18.457 -21.957  0.00  0.00    +0.087 C 
ATOM     15  C   UNL     1      35.168 -17.107 -21.605  0.00  0.00    +0.145 C 
ATOM     16  C   UNL     1      34.871 -18.835 -23.267  0.00  0.00    +0.145 C 
ATOM     17  C   UNL     1      34.880 -16.136 -22.564  0.00  0.00    +0.030 C 
ATOM     18  C   UNL     1      34.583 -17.864 -24.226  0.00  0.00    +0.030 C 
ATOM     19  C   UNL     1      34.586 -16.514 -23.873  0.00  0.00    +0.005 C 
ENDBRANCH   9  14
ENDBRANCH   3   7
BRANCH   2  22
ATOM     20  N   UNL     1      30.232 -23.054 -16.311  0.00  0.00    -0.241 NA
ATOM     21  C   UNL     1      32.922 -23.606 -15.789  0.00  0.00    -0.006 C 
ATOM     22  C   UNL     1      32.575 -22.730 -16.812  0.00  0.00    +0.066 C 
ATOM     23  C   UNL     1      31.926 -24.206 -15.027  0.00  0.00    +0.018 C 
ATOM     24  C   UNL     1      31.228 -22.490 -17.031  0.00  0.00    +0.113 C 
ATOM     25  C   UNL     1      30.608 -23.900 -15.326  0.00  0.00    +0.099 C 
BRANCH  21  26
ATOM     26  C   UNL     1      34.353 -23.919 -15.490  0.00  0.00    +0.022 C 
ATOM     27  C   UNL     1      35.971 -24.628 -13.662  0.00  0.00    -0.002 C 
ATOM     28  C   UNL     1      34.503 -24.357 -14.021  0.00  0.00    +0.004 C 
ATOM     29  C   UNL     1      36.703 -22.969 -15.436  0.00  0.00    -0.065 C 
ATOM     30  C   UNL     1      35.237 -22.695 -15.792  0.00  0.00    -0.017 C 
ATOM     31  C   UNL     1      36.845 -23.404 -13.973  0.00  0.00    -0.022 C 
ATOM     32  C   UNL     1      36.100 -25.023 -12.191  0.00  0.00    -0.000 C 
BRANCH  29  33
ATOM     33  N   UNL     1      37.504 -21.771 -15.677  0.00  0.00    +0.382 N 
ATOM     34  H   UNL     1      38.214 -21.971 -16.381  0.00  0.00    -0.089 HD
ATOM     35  H   UNL     1      37.959 -21.485 -14.809  0.00  0.00    -0.089 HD
ATOM     36  H   UNL     1      36.900 -21.019 -16.007  0.00  0.00    -0.089 HD
ENDBRANCH  29  33
ENDBRANCH  21  26
ENDBRANCH   2  22
TORSDOF 5
ENDMDL
MODEL 2
REMARK VINA RESULT:     -12.1      0.007      1.464
REMARK  Name = 44814409
REMARK  5 active torsions:
REMARK  status: ('A' for Active; 'I' for Inactive)
REMARK    1  A    between atoms: N_2  and  C_22
REMARK    2  A    between atoms: C_3  and  C_7
REMARK    3  A    between atoms: C_9  and  C_14
REMARK    4  A    between atoms: C_21  and  C_26
REMARK    5  A    between atoms: C_29  and  N_33
REMARK                            x       y       z     vdW  Elec       q    Type
REMARK                         _______ _______ _______ _____ _____    ______ ____
ROOT
ATOM      1  O   UNL     1      32.444 -21.820 -19.671  0.00  0.00    -0.267 OA
ATOM      2  N   UNL     1      33.541 -22.103 -17.610  0.00  0.00    -0.278 N 
ATOM      3  C   UNL     1      33.426 -21.697 -18.946  0.00  0.00    +0.275 C 
ATOM      4  H   UNL     1      34.407 -21.924 -17.177  0.00  0.00    +0.155 HD
ENDROOT
BRANCH   3   7
ATOM      5  F   UNL     1      37.809 -19.099 -21.156  0.00  0.00    -0.202 F 
ATOM      6  N   UNL     1      34.382 -20.079 -20.447  0.00  0.00    -0.399 NA
ATOM      7  C   UNL     1      34.626 -21.026 -19.513  0.00  0.00    +0.167 C 
ATOM      8  C   UNL     1      35.894 -21.382 -19.081  0.00  0.00    +0.092 C 
ATOM      9  C   UNL     1      35.464 -19.460 -20.970  0.00  0.00    +0.162 C 
ATOM     10  C   UNL     1      36.981 -20.722 -19.644  0.00  0.00    +0.014 C 
ATOM     11  C   UNL     1      36.770 -19.741 -20.607  0.00  0.00    +0.166 C 
BRANCH   9  14
ATOM     12  F   UNL     1      34.871 -20.127 -23.628  0.00  0.00    -0.204 F 
ATOM     13  F   UNL     1      35.443 -16.724 -20.355  0.00  0.00    -0.204 F 
ATOM     14  C   UNL     1      35.165 -18.454 -21.963  0.00  0.00    +0.087 C 
ATOM     15  C   UNL     1      34.876 -18.833 -23.274  0.00  0.00    +0.145 C 
ATOM     16  C   UNL     1      35.166 -17.105 -21.611  0.00  0.00    +0.145 C 
ATOM     17  C   UNL     1      34.587 -17.862 -24.233  0.00  0.00    +0.030 C 
ATOM     18  C   UNL     1      34.878 -16.133 -22.570  0.00  0.00    +0.030 C 
ATOM     19  C   UNL     1      34.589 -16.512 -23.881  0.00  0.00    +0.005 C 
ENDBRANCH   9  14
ENDBRANCH   3   7
BRANCH   2  22
ATOM     20  N   UNL     1      30.236 -23.054 -16.315  0.00  0.00    -0.241 NA
ATOM     21  C   UNL     1      32.927 -23.604 -15.794  0.00  0.00    -0.006 C 
ATOM     22  C   UNL     1      32.579 -22.728 -16.816  0.00  0.00    +0.066 C 
ATOM     23  C   UNL     1      31.932 -24.204 -15.032  0.00  0.00    +0.018 C 
ATOM     24  C   UNL     1      31.232 -22.489 -17.035  0.00  0.00    +0.113 C 
ATOM     25  C   UNL     1      30.613 -23.899 -15.330  0.00  0.00    +0.099 C 
BRANCH  21  26
ATOM     26  C   UNL     1      34.358 -23.916 -15.495  0.00  0.00    +0.022 C 
ATOM     27  C   UNL     1      35.977 -24.625 -13.667  0.00  0.00    -0.002 C 
ATOM     28  C   UNL     1      34.508 -24.355 -14.026  0.00  0.00    +0.004 C 
ATOM     29  C   UNL     1      36.708 -22.965 -15.440  0.00  0.00    -0.065 C 
ATOM     30  C   UNL     1      35.241 -22.691 -15.796  0.00  0.00    -0.017 C 
ATOM     31  C   UNL     1      36.850 -23.401 -13.977  0.00  0.00    -0.022 C 
ATOM     32  C   UNL     1      36.106 -25.022 -12.197  0.00  0.00    -0.000 C 
BRANCH  29  33
ATOM     33  N   UNL     1      37.508 -21.765 -15.680  0.00  0.00    +0.382 N 
ATOM     34  H   UNL     1      37.635 -21.260 -14.803  0.00  0.00    -0.089 HD
ATOM     35  H   UNL     1      37.027 -21.165 -16.351  0.00  0.00    -0.089 HD
ATOM     36  H   UNL     1      38.418 -22.033 -16.054  0.00  0.00    -0.089 HD
ENDBRANCH  29  33
ENDBRANCH  21  26
ENDBRANCH   2  22
TORSDOF 5
ENDMDL
MODEL 3
REMARK VINA RESULT:     -10.5      4.336      8.491
REMARK  Name = 44814409
REMARK  5 active torsions:
REMARK  status: ('A' for Active; 'I' for Inactive)
REMARK    1  A    between atoms: N_2  and  C_22
REMARK    2  A    between atoms: C_3  and  C_7
REMARK    3  A    between atoms: C_9  and  C_14
REMARK    4  A    between atoms: C_21  and  C_26
REMARK    5  A    between atoms: C_29  and  N_33
REMARK                            x       y       z     vdW  Elec       q    Type
REMARK                         _______ _______ _______ _____ _____    ______ ____
ROOT
ATOM      1  O   UNL     1      37.736 -20.940 -16.397  0.00  0.00    -0.267 OA
ATOM      2  N   UNL     1      36.285 -22.612 -17.190  0.00  0.00    -0.278 N 
ATOM      3  C   UNL     1      37.318 -22.093 -16.397  0.00  0.00    +0.275 C 
ATOM      4  H   UNL     1      36.078 -23.566 -17.059  0.00  0.00    +0.155 HD
ENDROOT
BRANCH   3   7
ATOM      5  F   UNL     1      39.509 -25.650 -12.739  0.00  0.00    -0.202 F 
ATOM      6  N   UNL     1      37.316 -23.178 -14.252  0.00  0.00    -0.399 NA
ATOM      7  C   UNL     1      37.936 -23.054 -15.446  0.00  0.00    +0.167 C 
ATOM      8  C   UNL     1      39.076 -23.756 -15.806  0.00  0.00    +0.092 C 
ATOM      9  C   UNL     1      37.866 -24.050 -13.378  0.00  0.00    +0.162 C 
ATOM     10  C   UNL     1      39.612 -24.643 -14.879  0.00  0.00    +0.014 C 
ATOM     11  C   UNL     1      39.002 -24.799 -13.640  0.00  0.00    +0.166 C 
BRANCH   9  14
ATOM     12  F   UNL     1      38.039 -22.053 -11.417  0.00  0.00    -0.204 F 
ATOM     13  F   UNL     1      36.275 -26.269 -12.736  0.00  0.00    -0.204 F 
ATOM     14  C   UNL     1      37.177 -24.158 -12.113  0.00  0.00    +0.087 C 
ATOM     15  C   UNL     1      37.292 -23.140 -11.167  0.00  0.00    +0.145 C 
ATOM     16  C   UNL     1      36.395 -25.280 -11.838  0.00  0.00    +0.145 C 
ATOM     17  C   UNL     1      36.625 -23.243  -9.946  0.00  0.00    +0.030 C 
ATOM     18  C   UNL     1      35.729 -25.385 -10.617  0.00  0.00    +0.030 C 
ATOM     19  C   UNL     1      35.845 -24.366  -9.671  0.00  0.00    +0.005 C 
ENDBRANCH   9  14
ENDBRANCH   3   7
BRANCH   2  22
ATOM     20  N   UNL     1      35.450 -20.437 -20.032  0.00  0.00    -0.241 NA
ATOM     21  C   UNL     1      34.132 -22.082 -18.195  0.00  0.00    -0.006 C 
ATOM     22  C   UNL     1      35.515 -21.945 -18.143  0.00  0.00    +0.066 C 
ATOM     23  C   UNL     1      33.408 -21.397 -19.164  0.00  0.00    +0.018 C 
ATOM     24  C   UNL     1      36.121 -21.119 -19.075  0.00  0.00    +0.113 C 
ATOM     25  C   UNL     1      34.108 -20.595 -20.051  0.00  0.00    +0.099 C 
BRANCH  21  26
ATOM     26  C   UNL     1      33.403 -22.955 -17.225  0.00  0.00    +0.022 C 
ATOM     27  C   UNL     1      31.157 -23.375 -16.111  0.00  0.00    -0.002 C 
ATOM     28  C   UNL     1      31.923 -22.536 -17.145  0.00  0.00    +0.004 C 
ATOM     29  C   UNL     1      33.306 -23.723 -14.811  0.00  0.00    -0.065 C 
ATOM     30  C   UNL     1      34.072 -22.882 -15.841  0.00  0.00    -0.017 C 
ATOM     31  C   UNL     1      31.835 -23.300 -14.735  0.00  0.00    -0.022 C 
ATOM     32  C   UNL     1      29.702 -22.915 -16.020  0.00  0.00    -0.000 C 
BRANCH  29  33
ATOM     33  N   UNL     1      33.930 -23.585 -13.496  0.00  0.00    +0.382 N 
ATOM     34  H   UNL     1      34.871 -23.206 -13.604  0.00  0.00    -0.089 HD
ATOM     35  H   UNL     1      33.982 -24.500 -13.046  0.00  0.00    -0.089 HD
ATOM     36  H   UNL     1      33.374 -22.954 -12.920  0.00  0.00    -0.089 HD
ENDBRANCH  29  33
ENDBRANCH  21  26
ENDBRANCH   2  22
TORSDOF 5
ENDMDL
MODEL 4
REMARK VINA RESULT:     -10.3      4.427      8.671
REMARK  Name = 44814409
REMARK  5 active torsions:
REMARK  status: ('A' for Active; 'I' for Inactive)
REMARK    1  A    between atoms: N_2  and  C_22
REMARK    2  A    between atoms: C_3  and  C_7
REMARK    3  A    between atoms: C_9  and  C_14
REMARK    4  A    between atoms: C_21  and  C_26
REMARK    5  A    between atoms: C_29  and  N_33
REMARK                            x       y       z     vdW  Elec       q    Type
REMARK                         _______ _______ _______ _____ _____    ______ ____
ROOT
ATOM      1  O   UNL     1      36.947 -21.477 -15.725  0.00  0.00    -0.267 OA
ATOM      2  N   UNL     1      35.390 -23.071 -16.476  0.00  0.00    -0.278 N 
ATOM      3  C   UNL     1      36.422 -22.584 -15.663  0.00  0.00    +0.275 C 
ATOM      4  H   UNL     1      35.087 -23.988 -16.285  0.00  0.00    +0.155 HD
ENDROOT
BRANCH   3   7
ATOM      5  F   UNL     1      38.271 -26.140 -11.819  0.00  0.00    -0.202 F 
ATOM      6  N   UNL     1      37.749 -24.480 -15.009  0.00  0.00    -0.399 NA
ATOM      7  C   UNL     1      36.893 -23.515 -14.604  0.00  0.00    +0.167 C 
ATOM      8  C   UNL     1      36.455 -23.366 -13.298  0.00  0.00    +0.092 C 
ATOM      9  C   UNL     1      38.186 -25.334 -14.057  0.00  0.00    +0.162 C 
ATOM     10  C   UNL     1      36.927 -24.264 -12.347  0.00  0.00    +0.014 C 
ATOM     11  C   UNL     1      37.809 -25.269 -12.725  0.00  0.00    +0.166 C 
BRANCH   9  14
ATOM     12  F   UNL     1      37.389 -27.330 -15.858  0.00  0.00    -0.204 F 
ATOM     13  F   UNL     1      40.861 -25.429 -13.221  0.00  0.00    -0.204 F 
ATOM     14  C   UNL     1      39.099 -26.350 -14.526  0.00  0.00    +0.087 C 
ATOM     15  C   UNL     1      38.658 -27.323 -15.422  0.00  0.00    +0.145 C 
ATOM     16  C   UNL     1      40.422 -26.357 -14.083  0.00  0.00    +0.145 C 
ATOM     17  C   UNL     1      39.540 -28.304 -15.876  0.00  0.00    +0.030 C 
ATOM     18  C   UNL     1      41.304 -27.338 -14.536  0.00  0.00    +0.030 C 
ATOM     19  C   UNL     1      40.862 -28.312 -15.432  0.00  0.00    +0.005 C 
ENDBRANCH   9  14
ENDBRANCH   3   7
BRANCH   2  22
ATOM     20  N   UNL     1      34.923 -21.086 -19.533  0.00  0.00    -0.241 NA
ATOM     21  C   UNL     1      33.355 -22.418 -17.640  0.00  0.00    -0.006 C 
ATOM     22  C   UNL     1      34.740 -22.417 -17.523  0.00  0.00    +0.066 C 
ATOM     23  C   UNL     1      32.752 -21.754 -18.703  0.00  0.00    +0.018 C 
ATOM     24  C   UNL     1      35.472 -21.744 -18.486  0.00  0.00    +0.113 C 
ATOM     25  C   UNL     1      33.574 -21.109 -19.614  0.00  0.00    +0.099 C 
BRANCH  21  26
ATOM     26  C   UNL     1      32.493 -23.123 -16.643  0.00  0.00    +0.022 C 
ATOM     27  C   UNL     1      30.135 -23.292 -15.707  0.00  0.00    -0.002 C 
ATOM     28  C   UNL     1      31.038 -22.632 -16.760  0.00  0.00    +0.004 C 
ATOM     29  C   UNL     1      32.136 -23.562 -14.171  0.00  0.00    -0.065 C 
ATOM     30  C   UNL     1      33.037 -22.898 -15.221  0.00  0.00    -0.017 C 
ATOM     31  C   UNL     1      30.689 -23.067 -14.293  0.00  0.00    -0.022 C 
ATOM     32  C   UNL     1      28.706 -22.760 -15.816  0.00  0.00    -0.000 C 
BRANCH  29  33
ATOM     33  N   UNL     1      32.645 -23.280 -12.831  0.00  0.00    +0.382 N 
ATOM     34  H   UNL     1      33.582 -23.671 -12.734  0.00  0.00    -0.089 HD
ATOM     35  H   UNL     1      32.028 -23.701 -12.136  0.00  0.00    -0.089 HD
ATOM     36  H   UNL     1      32.681 -22.271 -12.686  0.00  0.00    -0.089 HD
ENDBRANCH  29  33
ENDBRANCH  21  26
ENDBRANCH   2  22
TORSDOF 5
ENDMDL
MODEL 5
REMARK VINA RESULT:     -10.2      4.712     10.900
REMARK  Name = 44814409
REMARK  5 active torsions:
REMARK  status: ('A' for Active; 'I' for Inactive)
REMARK    1  A    between atoms: N_2  and  C_22
REMARK    2  A    between atoms: C_3  and  C_7
REMARK    3  A    between atoms: C_9  and  C_14
REMARK    4  A    between atoms: C_21  and  C_26
REMARK    5  A    between atoms: C_29  and  N_33
REMARK                            x       y       z     vdW  Elec       q    Type
REMARK                         _______ _______ _______ _____ _____    ______ ____
ROOT
ATOM      1  O   UNL     1      34.913 -14.399 -20.454  0.00  0.00    -0.267 OA
ATOM      2  N   UNL     1      33.266 -14.007 -22.086  0.00  0.00    -0.278 N 
ATOM      3  C   UNL     1      34.293 -14.727 -21.460  0.00  0.00    +0.275 C 
ATOM      4  H   UNL     1      32.875 -14.422 -22.889  0.00  0.00    +0.155 HD
ENDROOT
BRANCH   3   7
ATOM      5  F   UNL     1      35.559 -19.672 -23.648  0.00  0.00    -0.202 F 
ATOM      6  N   UNL     1      34.904 -17.041 -21.228  0.00  0.00    -0.399 NA
ATOM      7  C   UNL     1      34.627 -16.033 -22.085  0.00  0.00    +0.167 C 
ATOM      8  C   UNL     1      34.643 -16.163 -23.465  0.00  0.00    +0.092 C 
ATOM      9  C   UNL     1      35.208 -18.235 -21.783  0.00  0.00    +0.162 C 
ATOM     10  C   UNL     1      34.961 -17.407 -23.998  0.00  0.00    +0.014 C 
ATOM     11  C   UNL     1      35.251 -18.468 -23.147  0.00  0.00    +0.166 C 
BRANCH   9  14
ATOM     12  F   UNL     1      37.756 -18.566 -20.660  0.00  0.00    -0.204 F 
ATOM     13  F   UNL     1      33.254 -20.069 -20.958  0.00  0.00    -0.204 F 
ATOM     14  C   UNL     1      35.497 -19.287 -20.836  0.00  0.00    +0.087 C 
ATOM     15  C   UNL     1      36.779 -19.414 -20.304  0.00  0.00    +0.145 C 
ATOM     16  C   UNL     1      34.492 -20.177 -20.455  0.00  0.00    +0.145 C 
ATOM     17  C   UNL     1      37.057 -20.430 -19.389  0.00  0.00    +0.030 C 
ATOM     18  C   UNL     1      34.770 -21.193 -19.541  0.00  0.00    +0.030 C 
ATOM     19  C   UNL     1      36.053 -21.320 -19.009  0.00  0.00    +0.005 C 
ENDBRANCH   9  14
ENDBRANCH   3   7
BRANCH   2  22
ATOM     20  N   UNL     1      31.306 -11.539 -20.196  0.00  0.00    -0.241 NA
ATOM     21  C   UNL     1      33.030 -11.604 -22.396  0.00  0.00    -0.006 C 
ATOM     22  C   UNL     1      32.728 -12.775 -21.711  0.00  0.00    +0.066 C 
ATOM     23  C   UNL     1      32.470 -10.400 -21.983  0.00  0.00    +0.018 C 
ATOM     24  C   UNL     1      31.869 -12.690 -20.628  0.00  0.00    +0.113 C 
ATOM     25  C   UNL     1      31.623 -10.421 -20.887  0.00  0.00    +0.099 C 
BRANCH  21  26
ATOM     26  C   UNL     1      33.949 -11.611 -23.575  0.00  0.00    +0.022 C 
ATOM     27  C   UNL     1      35.255 -10.135 -25.182  0.00  0.00    -0.002 C 
ATOM     28  C   UNL     1      34.358 -10.170 -23.935  0.00  0.00    +0.004 C 
ATOM     29  C   UNL     1      34.172 -12.273 -26.012  0.00  0.00    -0.065 C 
ATOM     30  C   UNL     1      33.272 -12.306 -24.770  0.00  0.00    -0.017 C 
ATOM     31  C   UNL     1      34.574 -10.837 -26.366  0.00  0.00    -0.022 C 
ATOM     32  C   UNL     1      35.615  -8.694 -25.543  0.00  0.00    -0.000 C 
BRANCH  29  33
ATOM     33  N   UNL     1      33.478 -12.887 -27.143  0.00  0.00    +0.382 N 
ATOM     34  H   UNL     1      32.580 -13.255 -26.831  0.00  0.00    -0.089 HD
ATOM     35  H   UNL     1      34.045 -13.647 -27.518  0.00  0.00    -0.089 HD
ATOM     36  H   UNL     1      33.325 -12.187 -27.869  0.00  0.00    -0.089 HD
ENDBRANCH  29  33
ENDBRANCH  21  26
ENDBRANCH   2  22
TORSDOF 5
ENDMDL
MODEL 6
REMARK VINA RESULT:      -9.7      9.012     14.803
REMARK  Name = 44814409
REMARK  5 active torsions:
REMARK  status: ('A' for Active; 'I' for Inactive)
REMARK    1  A    between atoms: N_2  and  C_22
REMARK    2  A    between atoms: C_3  and  C_7
REMARK    3  A    between atoms: C_9  and  C_14
REMARK    4  A    between atoms: C_21  and  C_26
REMARK    5  A    between atoms: C_29  and  N_33
REMARK                            x       y       z     vdW  Elec       q    Type
REMARK                         _______ _______ _______ _____ _____    ______ ____
ROOT
ATOM      1  O   UNL     1      34.821  -9.974 -24.948  0.00  0.00    -0.267 OA
ATOM      2  N   UNL     1      33.626  -8.329 -23.767  0.00  0.00    -0.278 N 
ATOM      3  C   UNL     1      34.022  -9.636 -24.082  0.00  0.00    +0.275 C 
ATOM      4  H   UNL     1      32.971  -8.241 -23.037  0.00  0.00    +0.155 HD
ENDROOT
BRANCH   3   7
ATOM      5  F   UNL     1      31.853 -13.736 -21.026  0.00  0.00    -0.202 F 
ATOM      6  N   UNL     1      33.887 -11.954 -23.454  0.00  0.00    -0.399 NA
ATOM      7  C   UNL     1      33.415 -10.705 -23.245  0.00  0.00    +0.167 C 
ATOM      8  C   UNL     1      32.430 -10.393 -22.321  0.00  0.00    +0.092 C 
ATOM      9  C   UNL     1      33.345 -12.935 -22.699  0.00  0.00    +0.162 C 
ATOM     10  C   UNL     1      31.897 -11.430 -21.563  0.00  0.00    +0.014 C 
ATOM     11  C   UNL     1      32.358 -12.728 -21.750  0.00  0.00    +0.166 C 
BRANCH   9  14
ATOM     12  F   UNL     1      34.747 -14.371 -20.740  0.00  0.00    -0.204 F 
ATOM     13  F   UNL     1      33.034 -14.216 -25.174  0.00  0.00    -0.204 F 
ATOM     14  C   UNL     1      33.875 -14.256 -22.950  0.00  0.00    +0.087 C 
ATOM     15  C   UNL     1      34.565 -14.932 -21.945  0.00  0.00    +0.145 C 
ATOM     16  C   UNL     1      33.695 -14.854 -24.197  0.00  0.00    +0.145 C 
ATOM     17  C   UNL     1      35.076 -16.208 -22.187  0.00  0.00    +0.030 C 
ATOM     18  C   UNL     1      34.206 -16.129 -24.440  0.00  0.00    +0.030 C 
ATOM     19  C   UNL     1      34.897 -16.805 -23.435  0.00  0.00    +0.005 C 
ENDBRANCH   9  14
ENDBRANCH   3   7
BRANCH   2  22
ATOM     20  N   UNL     1      35.525  -6.042 -25.926  0.00  0.00    -0.241 NA
ATOM     21  C   UNL     1      33.469  -5.915 -24.037  0.00  0.00    -0.006 C 
ATOM     22  C   UNL     1      34.045  -7.138 -24.360  0.00  0.00    +0.066 C 
ATOM     23  C   UNL     1      33.920  -4.755 -24.657  0.00  0.00    +0.018 C 
ATOM     24  C   UNL     1      35.060  -7.149 -25.303  0.00  0.00    +0.113 C 
ATOM     25  C   UNL     1      34.941  -4.872 -25.586  0.00  0.00    +0.099 C 
BRANCH  21  26
ATOM     26  C   UNL     1      32.367  -5.819 -23.030  0.00  0.00    +0.022 C 
ATOM     27  C   UNL     1      30.805  -4.214 -21.828  0.00  0.00    -0.002 C 
ATOM     28  C   UNL     1      31.896  -4.359 -22.900  0.00  0.00    +0.004 C 
ATOM     29  C   UNL     1      31.749  -6.226 -20.605  0.00  0.00    -0.065 C 
ATOM     30  C   UNL     1      32.842  -6.368 -21.673  0.00  0.00    -0.017 C 
ATOM     31  C   UNL     1      31.285  -4.770 -20.480  0.00  0.00    -0.022 C 
ATOM     32  C   UNL     1      30.381  -2.752 -21.689  0.00  0.00    -0.000 C 
BRANCH  29  33
ATOM     33  N   UNL     1      32.251  -6.699 -19.317  0.00  0.00    +0.382 N 
ATOM     34  H   UNL     1      33.196  -7.064 -19.433  0.00  0.00    -0.089 HD
ATOM     35  H   UNL     1      31.641  -7.439 -18.966  0.00  0.00    -0.089 HD
ATOM     36  H   UNL     1      32.264  -5.926 -18.652  0.00  0.00    -0.089 HD
ENDBRANCH  29  33
ENDBRANCH  21  26
ENDBRANCH   2  22
TORSDOF 5
ENDMDL
MODEL 7
REMARK VINA RESULT:      -9.3      8.852     14.497
REMARK  Name = 44814409
REMARK  5 active torsions:
REMARK  status: ('A' for Active; 'I' for Inactive)
REMARK    1  A    between atoms: N_2  and  C_22
REMARK    2  A    between atoms: C_3  and  C_7
REMARK    3  A    between atoms: C_9  and  C_14
REMARK    4  A    between atoms: C_21  and  C_26
REMARK    5  A    between atoms: C_29  and  N_33
REMARK                            x       y       z     vdW  Elec       q    Type
REMARK                         _______ _______ _______ _____ _____    ______ ____
ROOT
ATOM      1  O   UNL     1      31.644 -10.672 -21.380  0.00  0.00    -0.267 OA
ATOM      2  N   UNL     1      32.909  -8.836 -22.128  0.00  0.00    -0.278 N 
ATOM      3  C   UNL     1      32.424 -10.150 -22.170  0.00  0.00    +0.275 C 
ATOM      4  H   UNL     1      33.532  -8.583 -22.848  0.00  0.00    +0.155 HD
ENDROOT
BRANCH   3   7
ATOM      5  F   UNL     1      34.220 -13.333 -26.352  0.00  0.00    -0.202 F 
ATOM      6  N   UNL     1      33.251 -12.241 -23.024  0.00  0.00    -0.399 NA
ATOM      7  C   UNL     1      32.900 -10.969 -23.316  0.00  0.00    +0.167 C 
ATOM      8  C   UNL     1      32.964 -10.419 -24.587  0.00  0.00    +0.092 C 
ATOM      9  C   UNL     1      33.684 -12.997 -24.057  0.00  0.00    +0.162 C 
ATOM     10  C   UNL     1      33.415 -11.228 -25.623  0.00  0.00    +0.014 C 
ATOM     11  C   UNL     1      33.784 -12.543 -25.362  0.00  0.00    +0.166 C 
BRANCH   9  14
ATOM     12  F   UNL     1      34.846 -13.631 -21.585  0.00  0.00    -0.204 F 
ATOM     13  F   UNL     1      33.273 -15.147 -25.810  0.00  0.00    -0.204 F 
ATOM     14  C   UNL     1      34.049 -14.350 -23.707  0.00  0.00    +0.087 C 
ATOM     15  C   UNL     1      34.625 -14.618 -22.466  0.00  0.00    +0.145 C 
ATOM     16  C   UNL     1      33.825 -15.388 -24.611  0.00  0.00    +0.145 C 
ATOM     17  C   UNL     1      34.976 -15.925 -22.128  0.00  0.00    +0.030 C 
ATOM     18  C   UNL     1      34.177 -16.696 -24.274  0.00  0.00    +0.030 C 
ATOM     19  C   UNL     1      34.754 -16.963 -23.032  0.00  0.00    +0.005 C 
ENDBRANCH   9  14
ENDBRANCH   3   7
BRANCH   2  22
ATOM     20  N   UNL     1      32.339  -7.237 -18.870  0.00  0.00    -0.241 NA
ATOM     21  C   UNL     1      32.333  -6.536 -21.576  0.00  0.00    -0.006 C 
ATOM     22  C   UNL     1      32.618  -7.842 -21.194  0.00  0.00    +0.066 C 
ATOM     23  C   UNL     1      32.050  -5.580 -20.607  0.00  0.00    +0.018 C 
ATOM     24  C   UNL     1      32.609  -8.138 -19.841  0.00  0.00    +0.113 C 
ATOM     25  C   UNL     1      32.066  -5.978 -19.280  0.00  0.00    +0.099 C 
BRANCH  21  26
ATOM     26  C   UNL     1      32.324  -6.135 -23.016  0.00  0.00    +0.022 C 
ATOM     27  C   UNL     1      33.789  -5.433 -24.972  0.00  0.00    -0.002 C 
ATOM     28  C   UNL     1      33.764  -5.907 -23.511  0.00  0.00    +0.004 C 
ATOM     29  C   UNL     1      31.492  -4.400 -24.668  0.00  0.00    -0.065 C 
ATOM     30  C   UNL     1      31.469  -4.869 -23.207  0.00  0.00    -0.017 C 
ATOM     31  C   UNL     1      32.929  -4.174 -25.153  0.00  0.00    -0.022 C 
ATOM     32  C   UNL     1      35.225  -5.176 -25.429  0.00  0.00    -0.000 C 
BRANCH  29  33
ATOM     33  N   UNL     1      30.723  -3.165 -24.803  0.00  0.00    +0.382 N 
ATOM     34  H   UNL     1      30.219  -2.981 -23.936  0.00  0.00    -0.089 HD
ATOM     35  H   UNL     1      30.056  -3.262 -25.570  0.00  0.00    -0.089 HD
ATOM     36  H   UNL     1      31.355  -2.390 -25.000  0.00  0.00    -0.089 HD
ENDBRANCH  29  33
ENDBRANCH  21  26
ENDBRANCH   2  22
TORSDOF 5
ENDMDL
MODEL 8
REMARK VINA RESULT:      -9.3     10.305     14.510
REMARK  Name = 44814409
REMARK  5 active torsions:
REMARK  status: ('A' for Active; 'I' for Inactive)
REMARK    1  A    between atoms: N_2  and  C_22
REMARK    2  A    between atoms: C_3  and  C_7
REMARK    3  A    between atoms: C_9  and  C_14
REMARK    4  A    between atoms: C_21  and  C_26
REMARK    5  A    between atoms: C_29  and  N_33
REMARK                            x       y       z     vdW  Elec       q    Type
REMARK                         _______ _______ _______ _____ _____    ______ ____
ROOT
ATOM      1  O   UNL     1      32.692  -8.531 -19.339  0.00  0.00    -0.267 OA
ATOM      2  N   UNL     1      32.060  -9.422 -21.422  0.00  0.00    -0.278 N 
ATOM      3  C   UNL     1      32.316  -8.399 -20.499  0.00  0.00    +0.275 C 
ATOM      4  H   UNL     1      31.765  -9.133 -22.316  0.00  0.00    +0.155 HD
ENDROOT
BRANCH   3   7
ATOM      5  F   UNL     1      31.697  -3.278 -22.558  0.00  0.00    -0.202 F 
ATOM      6  N   UNL     1      32.628  -6.777 -22.248  0.00  0.00    -0.399 NA
ATOM      7  C   UNL     1      32.131  -7.016 -21.014  0.00  0.00    +0.167 C 
ATOM      8  C   UNL     1      31.483  -6.066 -20.241  0.00  0.00    +0.092 C 
ATOM      9  C   UNL     1      32.465  -5.525 -22.728  0.00  0.00    +0.162 C 
ATOM     10  C   UNL     1      31.335  -4.788 -20.770  0.00  0.00    +0.014 C 
ATOM     11  C   UNL     1      31.833  -4.504 -22.037  0.00  0.00    +0.166 C 
BRANCH   9  14
ATOM     12  F   UNL     1      30.883  -4.603 -24.852  0.00  0.00    -0.204 F 
ATOM     13  F   UNL     1      35.165  -5.999 -23.322  0.00  0.00    -0.204 F 
ATOM     14  C   UNL     1      33.008  -5.307 -24.049  0.00  0.00    +0.087 C 
ATOM     15  C   UNL     1      32.183  -4.848 -25.075  0.00  0.00    +0.145 C 
ATOM     16  C   UNL     1      34.358  -5.556 -24.298  0.00  0.00    +0.145 C 
ATOM     17  C   UNL     1      32.708  -4.637 -26.351  0.00  0.00    +0.030 C 
ATOM     18  C   UNL     1      34.883  -5.346 -25.573  0.00  0.00    +0.030 C 
ATOM     19  C   UNL     1      34.057  -4.887 -26.599  0.00  0.00    +0.005 C 
ENDBRANCH   9  14
ENDBRANCH   3   7
BRANCH   2  22
ATOM     20  N   UNL     1      31.971 -12.680 -19.725  0.00  0.00    -0.241 NA
ATOM     21  C   UNL     1      32.568 -11.652 -22.255  0.00  0.00    -0.006 C 
ATOM     22  C   UNL     1      32.174 -10.799 -21.231  0.00  0.00    +0.066 C 
ATOM     23  C   UNL     1      32.664 -13.019 -22.016  0.00  0.00    +0.018 C 
ATOM     24  C   UNL     1      31.888 -11.358 -19.995  0.00  0.00    +0.113 C 
ATOM     25  C   UNL     1      32.357 -13.478 -20.745  0.00  0.00    +0.099 C 
BRANCH  21  26
ATOM     26  C   UNL     1      32.892 -11.129 -23.618  0.00  0.00    +0.022 C 
ATOM     27  C   UNL     1      33.542 -11.797 -25.983  0.00  0.00    -0.002 C 
ATOM     28  C   UNL     1      33.145 -12.299 -24.587  0.00  0.00    +0.004 C 
ATOM     29  C   UNL     1      34.506  -9.693 -24.944  0.00  0.00    -0.065 C 
ATOM     30  C   UNL     1      34.115 -10.196 -23.549  0.00  0.00    -0.017 C 
ATOM     31  C   UNL     1      34.758 -10.862 -25.904  0.00  0.00    -0.022 C 
ATOM     32  C   UNL     1      33.826 -12.973 -26.916  0.00  0.00    -0.000 C 
BRANCH  29  33
ATOM     33  N   UNL     1      35.703  -8.860 -24.852  0.00  0.00    +0.382 N 
ATOM     34  H   UNL     1      36.532  -9.438 -24.996  0.00  0.00    -0.089 HD
ATOM     35  H   UNL     1      35.747  -8.428 -23.929  0.00  0.00    -0.089 HD
ATOM     36  H   UNL     1      35.668  -8.133 -25.566  0.00  0.00    -0.089 HD
ENDBRANCH  29  33
ENDBRANCH  21  26
ENDBRANCH   2  22
TORSDOF 5
ENDMDL
MODEL 9
REMARK VINA RESULT:      -9.2     10.132     16.110
REMARK  Name = 44814409
REMARK  5 active torsions:
REMARK  status: ('A' for Active; 'I' for Inactive)
REMARK    1  A    between atoms: N_2  and  C_22
REMARK    2  A    between atoms: C_3  and  C_7
REMARK    3  A    between atoms: C_9  and  C_14
REMARK    4  A    between atoms: C_21  and  C_26
REMARK    5  A    between atoms: C_29  and  N_33
REMARK                            x       y       z     vdW  Elec       q    Type
REMARK                         _______ _______ _______ _____ _____    ______ ____
ROOT
ATOM      1  O   UNL     1      34.408  -7.565 -22.701  0.00  0.00    -0.267 OA
ATOM      2  N   UNL     1      32.265  -7.282 -23.626  0.00  0.00    -0.278 N 
ATOM      3  C   UNL     1      33.432  -7.991 -23.309  0.00  0.00    +0.275 C 
ATOM      4  H   UNL     1      31.577  -7.784 -24.121  0.00  0.00    +0.155 HD
ENDROOT
BRANCH   3   7
ATOM      5  F   UNL     1      33.481 -13.347 -24.775  0.00  0.00    -0.202 F 
ATOM      6  N   UNL     1      33.297 -10.328 -22.760  0.00  0.00    -0.399 NA
ATOM      7  C   UNL     1      33.451  -9.413 -23.742  0.00  0.00    +0.167 C 
ATOM      8  C   UNL     1      33.620  -9.731 -25.081  0.00  0.00    +0.092 C 
ATOM      9  C   UNL     1      33.312 -11.625 -23.140  0.00  0.00    +0.162 C 
ATOM     10  C   UNL     1      33.630 -11.077 -25.432  0.00  0.00    +0.014 C 
ATOM     11  C   UNL     1      33.473 -12.048 -24.450  0.00  0.00    +0.166 C 
BRANCH   9  14
ATOM     12  F   UNL     1      31.214 -11.417 -21.290  0.00  0.00    -0.204 F 
ATOM     13  F   UNL     1      35.062 -13.785 -22.777  0.00  0.00    -0.204 F 
ATOM     14  C   UNL     1      33.143 -12.574 -22.064  0.00  0.00    +0.087 C 
ATOM     15  C   UNL     1      32.085 -12.431 -21.168  0.00  0.00    +0.145 C 
ATOM     16  C   UNL     1      34.039 -13.634 -21.923  0.00  0.00    +0.145 C 
ATOM     17  C   UNL     1      31.922 -13.348 -20.129  0.00  0.00    +0.030 C 
ATOM     18  C   UNL     1      33.877 -14.551 -20.885  0.00  0.00    +0.030 C 
ATOM     19  C   UNL     1      32.818 -14.407 -19.987  0.00  0.00    +0.005 C 
ENDBRANCH   9  14
ENDBRANCH   3   7
BRANCH   2  22
ATOM     20  N   UNL     1      30.904  -4.389 -21.815  0.00  0.00    -0.241 NA
ATOM     21  C   UNL     1      32.353  -4.907 -24.149  0.00  0.00    -0.006 C 
ATOM     22  C   UNL     1      31.958  -5.955 -23.327  0.00  0.00    +0.066 C 
ATOM     23  C   UNL     1      32.025  -3.600 -23.807  0.00  0.00    +0.018 C 
ATOM     24  C   UNL     1      31.242  -5.646 -22.181  0.00  0.00    +0.113 C 
ATOM     25  C   UNL     1      31.306  -3.396 -22.640  0.00  0.00    +0.099 C 
BRANCH  21  26
ATOM     26  C   UNL     1      33.130  -5.156 -25.403  0.00  0.00    +0.022 C 
ATOM     27  C   UNL     1      35.439  -5.033 -26.458  0.00  0.00    -0.002 C 
ATOM     28  C   UNL     1      34.621  -4.847 -25.172  0.00  0.00    +0.004 C 
ATOM     29  C   UNL     1      33.380  -4.496 -27.838  0.00  0.00    -0.065 C 
ATOM     30  C   UNL     1      32.563  -4.305 -26.554  0.00  0.00    -0.017 C 
ATOM     31  C   UNL     1      34.863  -4.186 -27.601  0.00  0.00    -0.022 C 
ATOM     32  C   UNL     1      36.907  -4.683 -26.215  0.00  0.00    -0.000 C 
BRANCH  29  33
ATOM     33  N   UNL     1      32.855  -3.631 -28.892  0.00  0.00    +0.382 N 
ATOM     34  H   UNL     1      32.401  -4.201 -29.606  0.00  0.00    -0.089 HD
ATOM     35  H   UNL     1      33.621  -3.105 -29.314  0.00  0.00    -0.089 HD
ATOM     36  H   UNL     1      32.176  -2.982 -28.494  0.00  0.00    -0.089 HD
ENDBRANCH  29  33
ENDBRANCH  21  26
ENDBRANCH   2  22
TORSDOF 5
ENDMDL
