MODEL 1
REMARK VINA RESULT:     -12.5      0.000      0.000
REMARK  Name = 24794406
REMARK  5 active torsions:
REMARK  status: ('A' for Active; 'I' for Inactive)
REMARK    1  A    between atoms: C_1  and  S_24
REMARK    2  A    between atoms: C_2  and  N_8
REMARK    3  A    between atoms: C_9  and  C_11
REMARK    4  A    between atoms: C_12  and  N_18
REMARK    5  A    between atoms: S_24  and  N_28
REMARK                            x       y       z     vdW  Elec       q    Type
REMARK                         _______ _______ _______ _____ _____    ______ ____
ROOT
ATOM      1  C   UNL     1      32.771 -24.065 -14.154  0.00  0.00    +0.139 C 
ATOM      2  C   UNL     1      31.954 -23.689 -15.219  0.00  0.00    +0.070 C 
ATOM      3  C   UNL     1      32.231 -24.768 -13.076  0.00  0.00    +0.021 C 
ATOM      4  C   UNL     1      30.597 -24.013 -15.207  0.00  0.00    +0.016 C 
ATOM      5  C   UNL     1      30.874 -25.094 -13.065  0.00  0.00    +0.001 C 
ATOM      6  C   UNL     1      30.058 -24.717 -14.132  0.00  0.00    +0.001 C 
ENDROOT
BRANCH   2   8
ATOM      7  O   UNL     1      33.560 -24.646 -17.563  0.00  0.00    -0.270 OA
ATOM      8  N   UNL     1      32.476 -22.973 -16.325  0.00  0.00    -0.279 N 
ATOM      9  C   UNL     1      33.226 -23.461 -17.405  0.00  0.00    +0.250 C 
ATOM     10  H   UNL     1      32.289 -22.007 -16.337  0.00  0.00    +0.155 HD
BRANCH   9  11
ATOM     11  C   UNL     1      33.649 -22.471 -18.382  0.00  0.00    +0.054 C 
ATOM     12  C   UNL     1      34.458 -20.572 -20.258  0.00  0.00    +0.058 C 
ATOM     13  C   UNL     1      32.712 -21.605 -18.946  0.00  0.00    +0.006 C 
ATOM     14  C   UNL     1      34.989 -22.388 -18.757  0.00  0.00    +0.006 C 
ATOM     15  C   UNL     1      33.117 -20.655 -19.884  0.00  0.00    +0.015 C 
ATOM     16  C   UNL     1      35.394 -21.439 -19.695  0.00  0.00    +0.015 C 
BRANCH  12  18
ATOM     17  O   UNL     1      36.693 -18.763 -19.947  0.00  0.00    -0.269 OA
ATOM     18  N   UNL     1      34.879 -19.584 -21.233  0.00  0.00    -0.233 N 
ATOM     19  C   UNL     1      36.020 -18.781 -20.979  0.00  0.00    +0.257 C 
ATOM     20  C   UNL     1      34.155 -19.400 -22.414  0.00  0.00    +0.072 C 
ATOM     21  C   UNL     1      36.412 -17.820 -22.056  0.00  0.00    +0.059 C 
ATOM     22  C   UNL     1      34.507 -18.510 -23.348  0.00  0.00    +0.017 C 
ATOM     23  C   UNL     1      35.675 -17.703 -23.163  0.00  0.00    +0.006 C 
ENDBRANCH  12  18
ENDBRANCH   9  11
ENDBRANCH   2   8
BRANCH   1  24
ATOM     24  S   UNL     1      34.478 -23.677 -14.130  0.00  0.00    +0.076 S 
ATOM     25  O   UNL     1      34.932 -23.776 -12.749  0.00  0.00    -0.150 OA
ATOM     26  O   UNL     1      34.677 -22.427 -14.850  0.00  0.00    -0.150 OA
BRANCH  24  28
ATOM     27 CL   UNL     1      40.776 -26.311 -13.833  0.00  0.00    -0.081 Cl
ATOM     28  N   UNL     1      35.173 -24.976 -15.020  0.00  0.00    -0.199 N 
ATOM     29  N   UNL     1      37.380 -24.325 -14.458  0.00  0.00    -0.227 NA
ATOM     30  C   UNL     1      36.535 -25.344 -14.735  0.00  0.00    +0.147 C 
ATOM     31  C   UNL     1      36.907 -26.677 -14.756  0.00  0.00    +0.036 C 
ATOM     32  C   UNL     1      38.233 -26.987 -14.473  0.00  0.00    +0.016 C 
ATOM     33  C   UNL     1      38.660 -24.665 -14.188  0.00  0.00    +0.112 C 
ATOM     34  C   UNL     1      39.133 -25.967 -14.183  0.00  0.00    +0.077 C 
ATOM     35  H   UNL     1      34.653 -25.455 -15.705  0.00  0.00    +0.175 HD
ENDBRANCH  24  28
ENDBRANCH   1  24
TORSDOF 5
ENDMDL
MODEL 2
REMARK VINA RESULT:     -10.2      3.283      5.406
REMARK  Name = 24794406
REMARK  5 active torsions:
REMARK  status: ('A' for Active; 'I' for Inactive)
REMARK    1  A    between atoms: C_1  and  S_24
REMARK    2  A    between atoms: C_2  and  N_8
REMARK    3  A    between atoms: C_9  and  C_11
REMARK    4  A    between atoms: C_12  and  N_18
REMARK    5  A    between atoms: S_24  and  N_28
REMARK                            x       y       z     vdW  Elec       q    Type
REMARK                         _______ _______ _______ _____ _____    ______ ____
ROOT
ATOM      1  C   UNL     1      35.061 -24.106 -12.772  0.00  0.00    +0.139 C 
ATOM      2  C   UNL     1      36.092 -23.267 -13.194  0.00  0.00    +0.070 C 
ATOM      3  C   UNL     1      35.091 -24.655 -11.490  0.00  0.00    +0.021 C 
ATOM      4  C   UNL     1      37.154 -22.979 -12.336  0.00  0.00    +0.016 C 
ATOM      5  C   UNL     1      36.152 -24.366 -10.631  0.00  0.00    +0.001 C 
ATOM      6  C   UNL     1      37.183 -23.528 -11.055  0.00  0.00    +0.001 C 
ENDROOT
BRANCH   2   8
ATOM      7  O   UNL     1      38.201 -23.281 -15.326  0.00  0.00    -0.270 OA
ATOM      8  N   UNL     1      36.087 -22.697 -14.491  0.00  0.00    -0.279 N 
ATOM      9  C   UNL     1      37.099 -22.726 -15.462  0.00  0.00    +0.250 C 
ATOM     10  H   UNL     1      35.266 -22.216 -14.744  0.00  0.00    +0.155 HD
BRANCH   9  11
ATOM     11  C   UNL     1      36.811 -22.020 -16.699  0.00  0.00    +0.054 C 
ATOM     12  C   UNL     1      36.259 -20.662 -19.073  0.00  0.00    +0.058 C 
ATOM     13  C   UNL     1      37.614 -20.949 -17.094  0.00  0.00    +0.006 C 
ATOM     14  C   UNL     1      35.733 -22.410 -17.492  0.00  0.00    +0.006 C 
ATOM     15  C   UNL     1      37.338 -20.271 -18.281  0.00  0.00    +0.015 C 
ATOM     16  C   UNL     1      35.456 -21.732 -18.678  0.00  0.00    +0.015 C 
BRANCH  12  18
ATOM     17  O   UNL     1      37.963 -18.670 -20.295  0.00  0.00    -0.269 OA
ATOM     18  N   UNL     1      35.972 -19.958 -20.308  0.00  0.00    -0.233 N 
ATOM     19  C   UNL     1      36.910 -19.028 -20.826  0.00  0.00    +0.257 C 
ATOM     20  C   UNL     1      34.766 -20.168 -20.981  0.00  0.00    +0.072 C 
ATOM     21  C   UNL     1      36.557 -18.379 -22.127  0.00  0.00    +0.059 C 
ATOM     22  C   UNL     1      34.459 -19.551 -22.126  0.00  0.00    +0.017 C 
ATOM     23  C   UNL     1      35.387 -18.635 -22.717  0.00  0.00    +0.006 C 
ENDBRANCH  12  18
ENDBRANCH   9  11
ENDBRANCH   2   8
BRANCH   1  24
ATOM     24  S   UNL     1      33.711 -24.492 -13.818  0.00  0.00    +0.076 S 
ATOM     25  O   UNL     1      32.986 -25.599 -13.209  0.00  0.00    -0.150 OA
ATOM     26  O   UNL     1      34.209 -24.638 -15.178  0.00  0.00    -0.150 OA
BRANCH  24  28
ATOM     27 CL   UNL     1      27.726 -23.072 -16.794  0.00  0.00    -0.081 Cl
ATOM     28  N   UNL     1      32.732 -23.081 -13.707  0.00  0.00    -0.199 N 
ATOM     29  N   UNL     1      31.496 -23.653 -15.645  0.00  0.00    -0.227 NA
ATOM     30  C   UNL     1      31.488 -23.057 -14.431  0.00  0.00    +0.147 C 
ATOM     31  C   UNL     1      30.377 -22.448 -13.872  0.00  0.00    +0.036 C 
ATOM     32  C   UNL     1      29.196 -22.450 -14.606  0.00  0.00    +0.016 C 
ATOM     33  C   UNL     1      30.330 -23.635 -16.329  0.00  0.00    +0.112 C 
ATOM     34  C   UNL     1      29.164 -23.053 -15.859  0.00  0.00    +0.077 C 
ATOM     35  H   UNL     1      33.014 -22.311 -13.163  0.00  0.00    +0.175 HD
ENDBRANCH  24  28
ENDBRANCH   1  24
TORSDOF 5
ENDMDL
MODEL 3
REMARK VINA RESULT:     -10.1      3.523      5.713
REMARK  Name = 24794406
REMARK  5 active torsions:
REMARK  status: ('A' for Active; 'I' for Inactive)
REMARK    1  A    between atoms: C_1  and  S_24
REMARK    2  A    between atoms: C_2  and  N_8
REMARK    3  A    between atoms: C_9  and  C_11
REMARK    4  A    between atoms: C_12  and  N_18
REMARK    5  A    between atoms: S_24  and  N_28
REMARK                            x       y       z     vdW  Elec       q    Type
REMARK                         _______ _______ _______ _____ _____    ______ ____
ROOT
ATOM      1  C   UNL     1      34.594 -23.488 -15.815  0.00  0.00    +0.139 C 
ATOM      2  C   UNL     1      35.621 -22.612 -16.165  0.00  0.00    +0.070 C 
ATOM      3  C   UNL     1      34.711 -24.277 -14.670  0.00  0.00    +0.021 C 
ATOM      4  C   UNL     1      36.765 -22.526 -15.371  0.00  0.00    +0.016 C 
ATOM      5  C   UNL     1      35.854 -24.190 -13.877  0.00  0.00    +0.001 C 
ATOM      6  C   UNL     1      36.882 -23.314 -14.227  0.00  0.00    +0.001 C 
ENDROOT
BRANCH   2   8
ATOM      7  O   UNL     1      37.566 -22.210 -18.410  0.00  0.00    -0.270 OA
ATOM      8  N   UNL     1      35.529 -21.799 -17.321  0.00  0.00    -0.279 N 
ATOM      9  C   UNL     1      36.466 -21.639 -18.353  0.00  0.00    +0.250 C 
ATOM     10  H   UNL     1      34.699 -21.278 -17.414  0.00  0.00    +0.155 HD
BRANCH   9  11
ATOM     11  C   UNL     1      36.098 -20.705 -19.404  0.00  0.00    +0.054 C 
ATOM     12  C   UNL     1      35.393 -18.912 -21.422  0.00  0.00    +0.058 C 
ATOM     13  C   UNL     1      37.052 -19.831 -19.925  0.00  0.00    +0.006 C 
ATOM     14  C   UNL     1      34.792 -20.681 -19.892  0.00  0.00    +0.006 C 
ATOM     15  C   UNL     1      36.699 -18.934 -20.934  0.00  0.00    +0.015 C 
ATOM     16  C   UNL     1      34.438 -19.785 -20.900  0.00  0.00    +0.015 C 
BRANCH  12  18
ATOM     17  O   UNL     1      34.442 -19.646 -24.053  0.00  0.00    -0.269 OA
ATOM     18  N   UNL     1      35.026 -17.980 -22.471  0.00  0.00    -0.233 N 
ATOM     19  C   UNL     1      34.534 -18.467 -23.709  0.00  0.00    +0.257 C 
ATOM     20  C   UNL     1      35.176 -16.604 -22.281  0.00  0.00    +0.072 C 
ATOM     21  C   UNL     1      34.135 -17.438 -24.719  0.00  0.00    +0.059 C 
ATOM     22  C   UNL     1      34.843 -15.704 -23.212  0.00  0.00    +0.017 C 
ATOM     23  C   UNL     1      34.301 -16.138 -24.465  0.00  0.00    +0.006 C 
ENDBRANCH  12  18
ENDBRANCH   9  11
ENDBRANCH   2   8
BRANCH   1  24
ATOM     24  S   UNL     1      33.141 -23.626 -16.784  0.00  0.00    +0.076 S 
ATOM     25  O   UNL     1      33.458 -24.464 -17.932  0.00  0.00    -0.150 OA
ATOM     26  O   UNL     1      32.610 -22.290 -17.010  0.00  0.00    -0.150 OA
BRANCH  24  28
ATOM     27 CL   UNL     1      26.614 -22.422 -15.165  0.00  0.00    -0.081 Cl
ATOM     28  N   UNL     1      32.082 -24.505 -15.751  0.00  0.00    -0.199 N 
ATOM     29  N   UNL     1      30.566 -22.693 -15.583  0.00  0.00    -0.227 NA
ATOM     30  C   UNL     1      30.730 -24.035 -15.606  0.00  0.00    +0.147 C 
ATOM     31  C   UNL     1      29.691 -24.946 -15.499  0.00  0.00    +0.036 C 
ATOM     32  C   UNL     1      28.400 -24.447 -15.362  0.00  0.00    +0.016 C 
ATOM     33  C   UNL     1      29.297 -22.246 -15.449  0.00  0.00    +0.112 C 
ATOM     34  C   UNL     1      28.191 -23.073 -15.336  0.00  0.00    +0.077 C 
ATOM     35  H   UNL     1      32.392 -25.307 -15.272  0.00  0.00    +0.175 HD
ENDBRANCH  24  28
ENDBRANCH   1  24
TORSDOF 5
ENDMDL
MODEL 4
REMARK VINA RESULT:     -10.1      3.457      5.751
REMARK  Name = 24794406
REMARK  5 active torsions:
REMARK  status: ('A' for Active; 'I' for Inactive)
REMARK    1  A    between atoms: C_1  and  S_24
REMARK    2  A    between atoms: C_2  and  N_8
REMARK    3  A    between atoms: C_9  and  C_11
REMARK    4  A    between atoms: C_12  and  N_18
REMARK    5  A    between atoms: S_24  and  N_28
REMARK                            x       y       z     vdW  Elec       q    Type
REMARK                         _______ _______ _______ _____ _____    ______ ____
ROOT
ATOM      1  C   UNL     1      35.122 -23.313 -16.102  0.00  0.00    +0.139 C 
ATOM      2  C   UNL     1      36.121 -22.436 -16.522  0.00  0.00    +0.070 C 
ATOM      3  C   UNL     1      35.359 -24.182 -15.036  0.00  0.00    +0.021 C 
ATOM      4  C   UNL     1      37.359 -22.428 -15.878  0.00  0.00    +0.016 C 
ATOM      5  C   UNL     1      36.596 -24.173 -14.392  0.00  0.00    +0.001 C 
ATOM      6  C   UNL     1      37.596 -23.296 -14.813  0.00  0.00    +0.001 C 
ENDROOT
BRANCH   2   8
ATOM      7  O   UNL     1      37.154 -22.516 -19.336  0.00  0.00    -0.270 OA
ATOM      8  N   UNL     1      35.907 -21.544 -17.602  0.00  0.00    -0.279 N 
ATOM      9  C   UNL     1      36.412 -21.617 -18.908  0.00  0.00    +0.250 C 
ATOM     10  H   UNL     1      35.329 -20.770 -17.410  0.00  0.00    +0.155 HD
BRANCH   9  11
ATOM     11  C   UNL     1      36.036 -20.529 -19.795  0.00  0.00    +0.054 C 
ATOM     12  C   UNL     1      35.316 -18.438 -21.496  0.00  0.00    +0.058 C 
ATOM     13  C   UNL     1      36.999 -19.615 -20.224  0.00  0.00    +0.006 C 
ATOM     14  C   UNL     1      34.713 -20.396 -20.217  0.00  0.00    +0.006 C 
ATOM     15  C   UNL     1      36.639 -18.569 -21.074  0.00  0.00    +0.015 C 
ATOM     16  C   UNL     1      34.353 -19.351 -21.067  0.00  0.00    +0.015 C 
BRANCH  12  18
ATOM     17  O   UNL     1      34.975 -15.678 -20.702  0.00  0.00    -0.269 OA
ATOM     18  N   UNL     1      34.942 -17.351 -22.381  0.00  0.00    -0.233 N 
ATOM     19  C   UNL     1      34.845 -16.029 -21.876  0.00  0.00    +0.257 C 
ATOM     20  C   UNL     1      34.652 -17.599 -23.725  0.00  0.00    +0.072 C 
ATOM     21  C   UNL     1      34.499 -14.961 -22.864  0.00  0.00    +0.059 C 
ATOM     22  C   UNL     1      34.311 -16.631 -24.582  0.00  0.00    +0.017 C 
ATOM     23  C   UNL     1      34.240 -15.272 -24.136  0.00  0.00    +0.006 C 
ENDBRANCH  12  18
ENDBRANCH   9  11
ENDBRANCH   2   8
BRANCH   1  24
ATOM     24  S   UNL     1      33.555 -23.354 -16.884  0.00  0.00    +0.076 S 
ATOM     25  O   UNL     1      33.616 -24.357 -17.938  0.00  0.00    -0.150 OA
ATOM     26  O   UNL     1      33.176 -21.991 -17.227  0.00  0.00    -0.150 OA
BRANCH  24  28
ATOM     27 CL   UNL     1      26.775 -22.853 -16.195  0.00  0.00    -0.081 Cl
ATOM     28  N   UNL     1      32.527 -23.945 -15.636  0.00  0.00    -0.199 N 
ATOM     29  N   UNL     1      30.744 -22.526 -16.282  0.00  0.00    -0.227 NA
ATOM     30  C   UNL     1      31.111 -23.716 -15.756  0.00  0.00    +0.147 C 
ATOM     31  C   UNL     1      30.218 -24.690 -15.342  0.00  0.00    +0.036 C 
ATOM     32  C   UNL     1      28.859 -24.427 -15.478  0.00  0.00    +0.016 C 
ATOM     33  C   UNL     1      29.415 -22.306 -16.399  0.00  0.00    +0.112 C 
ATOM     34  C   UNL     1      28.442 -23.214 -16.016  0.00  0.00    +0.077 C 
ATOM     35  H   UNL     1      32.896 -24.426 -14.861  0.00  0.00    +0.175 HD
ENDBRANCH  24  28
ENDBRANCH   1  24
TORSDOF 5
ENDMDL
MODEL 5
REMARK VINA RESULT:      -9.8     11.183     16.618
REMARK  Name = 24794406
REMARK  5 active torsions:
REMARK  status: ('A' for Active; 'I' for Inactive)
REMARK    1  A    between atoms: C_1  and  S_24
REMARK    2  A    between atoms: C_2  and  N_8
REMARK    3  A    between atoms: C_9  and  C_11
REMARK    4  A    between atoms: C_12  and  N_18
REMARK    5  A    between atoms: S_24  and  N_28
REMARK                            x       y       z     vdW  Elec       q    Type
REMARK                         _______ _______ _______ _____ _____    ______ ____
ROOT
ATOM      1  C   UNL     1      31.954  -6.951 -21.956  0.00  0.00    +0.139 C 
ATOM      2  C   UNL     1      32.401  -7.852 -20.989  0.00  0.00    +0.070 C 
ATOM      3  C   UNL     1      31.670  -5.632 -21.601  0.00  0.00    +0.021 C 
ATOM      4  C   UNL     1      32.562  -7.434 -19.668  0.00  0.00    +0.016 C 
ATOM      5  C   UNL     1      31.833  -5.214 -20.280  0.00  0.00    +0.001 C 
ATOM      6  C   UNL     1      32.279  -6.116 -19.314  0.00  0.00    +0.001 C 
ENDROOT
BRANCH   2   8
ATOM      7  O   UNL     1      30.613 -10.256 -21.101  0.00  0.00    -0.270 OA
ATOM      8  N   UNL     1      32.695  -9.197 -21.322  0.00  0.00    -0.279 N 
ATOM      9  C   UNL     1      31.826 -10.297 -21.362  0.00  0.00    +0.250 C 
ATOM     10  H   UNL     1      33.633  -9.385 -21.555  0.00  0.00    +0.155 HD
BRANCH   9  11
ATOM     11  C   UNL     1      32.431 -11.570 -21.715  0.00  0.00    +0.054 C 
ATOM     12  C   UNL     1      33.593 -14.015 -22.391  0.00  0.00    +0.058 C 
ATOM     13  C   UNL     1      32.319 -12.659 -20.850  0.00  0.00    +0.006 C 
ATOM     14  C   UNL     1      33.125 -11.705 -22.917  0.00  0.00    +0.006 C 
ATOM     15  C   UNL     1      32.900 -13.881 -21.188  0.00  0.00    +0.015 C 
ATOM     16  C   UNL     1      33.706 -12.926 -23.255  0.00  0.00    +0.015 C 
BRANCH  12  18
ATOM     17  O   UNL     1      33.444 -15.274 -24.990  0.00  0.00    -0.269 OA
ATOM     18  N   UNL     1      34.197 -15.286 -22.742  0.00  0.00    -0.233 N 
ATOM     19  C   UNL     1      34.085 -15.780 -24.068  0.00  0.00    +0.257 C 
ATOM     20  C   UNL     1      34.869 -16.042 -21.779  0.00  0.00    +0.072 C 
ATOM     21  C   UNL     1      34.776 -17.074 -24.357  0.00  0.00    +0.059 C 
ATOM     22  C   UNL     1      35.451 -17.214 -22.055  0.00  0.00    +0.017 C 
ATOM     23  C   UNL     1      35.406 -17.739 -23.387  0.00  0.00    +0.006 C 
ENDBRANCH  12  18
ENDBRANCH   9  11
ENDBRANCH   2   8
BRANCH   1  24
ATOM     24  S   UNL     1      31.738  -7.435 -23.625  0.00  0.00    +0.076 S 
ATOM     25  O   UNL     1      30.444  -8.094 -23.727  0.00  0.00    -0.150 OA
ATOM     26  O   UNL     1      32.931  -8.150 -24.055  0.00  0.00    -0.150 OA
BRANCH  24  28
ATOM     27 CL   UNL     1      36.543  -4.001 -27.061  0.00  0.00    -0.081 Cl
ATOM     28  N   UNL     1      31.640  -5.925 -24.445  0.00  0.00    -0.199 N 
ATOM     29  N   UNL     1      33.995  -5.677 -24.499  0.00  0.00    -0.227 NA
ATOM     30  C   UNL     1      32.816  -5.438 -25.117  0.00  0.00    +0.147 C 
ATOM     31  C   UNL     1      32.694  -4.770 -26.324  0.00  0.00    +0.036 C 
ATOM     32  C   UNL     1      33.857  -4.319 -26.939  0.00  0.00    +0.016 C 
ATOM     33  C   UNL     1      35.103  -5.223 -25.126  0.00  0.00    +0.112 C 
ATOM     34  C   UNL     1      35.089  -4.546 -26.334  0.00  0.00    +0.077 C 
ATOM     35  H   UNL     1      30.803  -5.408 -24.455  0.00  0.00    +0.175 HD
ENDBRANCH  24  28
ENDBRANCH   1  24
TORSDOF 5
ENDMDL
MODEL 6
REMARK VINA RESULT:      -9.6     11.165     16.606
REMARK  Name = 24794406
REMARK  5 active torsions:
REMARK  status: ('A' for Active; 'I' for Inactive)
REMARK    1  A    between atoms: C_1  and  S_24
REMARK    2  A    between atoms: C_2  and  N_8
REMARK    3  A    between atoms: C_9  and  C_11
REMARK    4  A    between atoms: C_12  and  N_18
REMARK    5  A    between atoms: S_24  and  N_28
REMARK                            x       y       z     vdW  Elec       q    Type
REMARK                         _______ _______ _______ _____ _____    ______ ____
ROOT
ATOM      1  C   UNL     1      31.940  -6.917 -21.970  0.00  0.00    +0.139 C 
ATOM      2  C   UNL     1      32.389  -7.817 -21.004  0.00  0.00    +0.070 C 
ATOM      3  C   UNL     1      31.659  -5.597 -21.617  0.00  0.00    +0.021 C 
ATOM      4  C   UNL     1      32.556  -7.397 -19.684  0.00  0.00    +0.016 C 
ATOM      5  C   UNL     1      31.827  -5.177 -20.297  0.00  0.00    +0.001 C 
ATOM      6  C   UNL     1      32.276  -6.078 -19.331  0.00  0.00    +0.001 C 
ENDROOT
BRANCH   2   8
ATOM      7  O   UNL     1      30.589 -10.210 -21.152  0.00  0.00    -0.270 OA
ATOM      8  N   UNL     1      32.681  -9.163 -21.335  0.00  0.00    -0.279 N 
ATOM      9  C   UNL     1      31.806 -10.257 -21.392  0.00  0.00    +0.250 C 
ATOM     10  H   UNL     1      33.621  -9.356 -21.553  0.00  0.00    +0.155 HD
BRANCH   9  11
ATOM     11  C   UNL     1      32.409 -11.534 -21.739  0.00  0.00    +0.054 C 
ATOM     12  C   UNL     1      33.566 -13.983 -22.407  0.00  0.00    +0.058 C 
ATOM     13  C   UNL     1      33.124 -11.666 -22.930  0.00  0.00    +0.006 C 
ATOM     14  C   UNL     1      32.273 -12.627 -20.884  0.00  0.00    +0.006 C 
ATOM     15  C   UNL     1      33.703 -12.891 -23.264  0.00  0.00    +0.015 C 
ATOM     16  C   UNL     1      32.851 -13.851 -21.217  0.00  0.00    +0.015 C 
BRANCH  12  18
ATOM     17  O   UNL     1      35.028 -15.692 -20.588  0.00  0.00    -0.269 OA
ATOM     18  N   UNL     1      34.168 -15.256 -22.754  0.00  0.00    -0.233 N 
ATOM     19  C   UNL     1      34.827 -16.021 -21.758  0.00  0.00    +0.257 C 
ATOM     20  C   UNL     1      34.125 -15.725 -24.069  0.00  0.00    +0.072 C 
ATOM     21  C   UNL     1      35.379 -17.343 -22.190  0.00  0.00    +0.059 C 
ATOM     22  C   UNL     1      34.656 -16.896 -24.438  0.00  0.00    +0.017 C 
ATOM     23  C   UNL     1      35.295 -17.730 -23.465  0.00  0.00    +0.006 C 
ENDBRANCH  12  18
ENDBRANCH   9  11
ENDBRANCH   2   8
BRANCH   1  24
ATOM     24  S   UNL     1      31.717  -7.404 -23.638  0.00  0.00    +0.076 S 
ATOM     25  O   UNL     1      30.421  -8.062 -23.734  0.00  0.00    -0.150 OA
ATOM     26  O   UNL     1      32.907  -8.123 -24.071  0.00  0.00    -0.150 OA
BRANCH  24  28
ATOM     27 CL   UNL     1      36.521  -3.975 -27.079  0.00  0.00    -0.081 Cl
ATOM     28  N   UNL     1      31.619  -5.896 -24.461  0.00  0.00    -0.199 N 
ATOM     29  N   UNL     1      33.973  -5.647 -24.515  0.00  0.00    -0.227 NA
ATOM     30  C   UNL     1      32.794  -5.409 -25.133  0.00  0.00    +0.147 C 
ATOM     31  C   UNL     1      32.672  -4.744 -26.341  0.00  0.00    +0.036 C 
ATOM     32  C   UNL     1      33.835  -4.293 -26.957  0.00  0.00    +0.016 C 
ATOM     33  C   UNL     1      35.082  -5.194 -25.142  0.00  0.00    +0.112 C 
ATOM     34  C   UNL     1      35.067  -4.519 -26.352  0.00  0.00    +0.077 C 
ATOM     35  H   UNL     1      30.781  -5.378 -24.471  0.00  0.00    +0.175 HD
ENDBRANCH  24  28
ENDBRANCH   1  24
TORSDOF 5
ENDMDL
