MODEL 1
REMARK VINA RESULT:     -11.7      0.000      0.000
REMARK  Name = 5326868
REMARK  6 active torsions:
REMARK  status: ('A' for Active; 'I' for Inactive)
REMARK    1  A    between atoms: C_2  and  C_28
REMARK    2  A    between atoms: C_7  and  N_12
REMARK    3  A    between atoms: C_13  and  C_18
REMARK    4  A    between atoms: C_16  and  N_23
REMARK    5  A    between atoms: C_28  and  C_29
REMARK    6  A    between atoms: C_29  and  C_31
REMARK                            x       y       z     vdW  Elec       q    Type
REMARK                         _______ _______ _______ _____ _____    ______ ____
ROOT
ATOM      1  N   UNL     1      35.980 -23.347 -15.405  0.00  0.00    -0.312 N 
ATOM      2  C   UNL     1      33.888 -23.379 -16.147  0.00  0.00    -0.006 C 
ATOM      3  C   UNL     1      34.673 -22.624 -17.062  0.00  0.00    +0.012 C 
ATOM      4  C   UNL     1      35.981 -22.619 -16.573  0.00  0.00    +0.048 C 
ATOM      5  C   UNL     1      34.719 -23.811 -15.139  0.00  0.00    +0.058 C 
ATOM      6  C   UNL     1      34.395 -21.940 -18.262  0.00  0.00    +0.016 C 
ATOM      7  C   UNL     1      35.434 -21.280 -18.928  0.00  0.00    +0.051 C 
ATOM      8  C   UNL     1      37.030 -21.962 -17.227  0.00  0.00    +0.016 C 
ATOM      9  C   UNL     1      36.731 -21.292 -18.418  0.00  0.00    +0.016 C 
ATOM     10  H   UNL     1      36.771 -23.511 -14.842  0.00  0.00    +0.152 HD
ENDROOT
BRANCH   7  12
ATOM     11  O   UNL     1      36.707 -18.822 -20.082  0.00  0.00    -0.270 OA
ATOM     12  N   UNL     1      35.167 -20.600 -20.118  0.00  0.00    -0.280 N 
ATOM     13  C   UNL     1      35.795 -19.449 -20.612  0.00  0.00    +0.250 C 
ATOM     14  H   UNL     1      34.449 -20.974 -20.678  0.00  0.00    +0.155 HD
BRANCH  13  18
ATOM     15  F   UNL     1      34.343 -20.205 -25.162  0.00  0.00    -0.204 F 
ATOM     16  C   UNL     1      34.502 -17.117 -23.244  0.00  0.00    +0.050 C 
ATOM     17  C   UNL     1      35.000 -17.593 -22.031  0.00  0.00    +0.019 C 
ATOM     18  C   UNL     1      35.266 -18.941 -21.905  0.00  0.00    +0.057 C 
ATOM     19  C   UNL     1      34.280 -18.000 -24.302  0.00  0.00    +0.044 C 
ATOM     20  C   UNL     1      35.055 -19.834 -22.934  0.00  0.00    +0.034 C 
ATOM     21  C   UNL     1      34.557 -19.359 -24.147  0.00  0.00    +0.142 C 
BRANCH  16  23
ATOM     22  O   UNL     1      33.935 -12.981 -23.747  0.00  0.00    -0.350 OA
ATOM     23  N   UNL     1      34.223 -15.755 -23.400  0.00  0.00    -0.303 N 
ATOM     24  C   UNL     1      34.065 -15.190 -24.744  0.00  0.00    +0.123 C 
ATOM     25  C   UNL     1      34.732 -14.823 -22.385  0.00  0.00    +0.123 C 
ATOM     26  C   UNL     1      33.300 -13.873 -24.662  0.00  0.00    +0.164 C 
ATOM     27  C   UNL     1      33.930 -13.527 -22.428  0.00  0.00    +0.164 C 
ENDBRANCH  16  23
ENDBRANCH  13  18
ENDBRANCH   7  12
BRANCH   2  28
ATOM     28  C   UNL     1      32.441 -23.656 -16.250  0.00  0.00    +0.032 C 
BRANCH  28  29
ATOM     29  C   UNL     1      31.613 -23.203 -15.028  0.00  0.00    +0.031 C 
BRANCH  29  31
ATOM     30  N   UNL     1      27.383 -23.364 -15.699  0.00  0.00    -0.242 NA
ATOM     31  C   UNL     1      30.124 -23.259 -15.264  0.00  0.00    -0.019 C 
ATOM     32  C   UNL     1      29.607 -24.218 -16.114  0.00  0.00    +0.016 C 
ATOM     33  C   UNL     1      29.299 -22.352 -14.627  0.00  0.00    +0.016 C 
ATOM     34  C   UNL     1      28.233 -24.228 -16.297  0.00  0.00    +0.099 C 
ATOM     35  C   UNL     1      27.939 -22.446 -14.877  0.00  0.00    +0.099 C 
ENDBRANCH  29  31
ENDBRANCH  28  29
ENDBRANCH   2  28
TORSDOF 6
ENDMDL
MODEL 2
REMARK VINA RESULT:     -11.7      4.749      8.838
REMARK  Name = 5326868
REMARK  6 active torsions:
REMARK  status: ('A' for Active; 'I' for Inactive)
REMARK    1  A    between atoms: C_2  and  C_28
REMARK    2  A    between atoms: C_7  and  N_12
REMARK    3  A    between atoms: C_13  and  C_18
REMARK    4  A    between atoms: C_16  and  N_23
REMARK    5  A    between atoms: C_28  and  C_29
REMARK    6  A    between atoms: C_29  and  C_31
REMARK                            x       y       z     vdW  Elec       q    Type
REMARK                         _______ _______ _______ _____ _____    ______ ____
ROOT
ATOM      1  N   UNL     1      35.005 -17.681 -24.335  0.00  0.00    -0.312 N 
ATOM      2  C   UNL     1      35.358 -17.646 -22.144  0.00  0.00    -0.006 C 
ATOM      3  C   UNL     1      34.762 -16.409 -22.518  0.00  0.00    +0.012 C 
ATOM      4  C   UNL     1      34.551 -16.457 -23.898  0.00  0.00    +0.048 C 
ATOM      5  C   UNL     1      35.495 -18.406 -23.282  0.00  0.00    +0.058 C 
ATOM      6  C   UNL     1      34.382 -15.249 -21.814  0.00  0.00    +0.016 C 
ATOM      7  C   UNL     1      33.805 -14.184 -22.513  0.00  0.00    +0.051 C 
ATOM      8  C   UNL     1      33.976 -15.399 -24.611  0.00  0.00    +0.016 C 
ATOM      9  C   UNL     1      33.605 -14.259 -23.891  0.00  0.00    +0.016 C 
ATOM     10  H   UNL     1      34.981 -17.989 -25.269  0.00  0.00    +0.152 HD
ENDROOT
BRANCH   7  12
ATOM     11  O   UNL     1      31.166 -12.763 -22.419  0.00  0.00    -0.270 OA
ATOM     12  N   UNL     1      33.425 -13.031 -21.822  0.00  0.00    -0.280 N 
ATOM     13  C   UNL     1      32.172 -12.406 -21.814  0.00  0.00    +0.250 C 
ATOM     14  H   UNL     1      34.124 -12.606 -21.276  0.00  0.00    +0.155 HD
BRANCH  13  18
ATOM     15  F   UNL     1      31.990 -10.195 -17.517  0.00  0.00    -0.204 F 
ATOM     16  C   UNL     1      31.937  -8.787 -20.871  0.00  0.00    +0.050 C 
ATOM     17  C   UNL     1      32.018  -9.949 -21.639  0.00  0.00    +0.019 C 
ATOM     18  C   UNL     1      32.085 -11.167 -20.996  0.00  0.00    +0.057 C 
ATOM     19  C   UNL     1      31.928  -8.870 -19.479  0.00  0.00    +0.044 C 
ATOM     20  C   UNL     1      32.078 -11.277 -19.622  0.00  0.00    +0.034 C 
ATOM     21  C   UNL     1      31.998 -10.116 -18.854  0.00  0.00    +0.142 C 
BRANCH  16  23
ATOM     22  O   UNL     1      31.455  -5.038 -22.714  0.00  0.00    -0.350 OA
ATOM     23  N   UNL     1      31.868  -7.538 -21.498  0.00  0.00    -0.303 N 
ATOM     24  C   UNL     1      31.857  -6.314 -20.689  0.00  0.00    +0.123 C 
ATOM     25  C   UNL     1      31.163  -7.445 -22.783  0.00  0.00    +0.123 C 
ATOM     26  C   UNL     1      32.274  -5.125 -21.549  0.00  0.00    +0.164 C 
ATOM     27  C   UNL     1      31.619  -6.198 -23.532  0.00  0.00    +0.164 C 
ENDBRANCH  16  23
ENDBRANCH  13  18
ENDBRANCH   7  12
BRANCH   2  28
ATOM     28  C   UNL     1      35.761 -18.051 -20.782  0.00  0.00    +0.032 C 
BRANCH  28  29
ATOM     29  C   UNL     1      36.182 -19.531 -20.652  0.00  0.00    +0.031 C 
BRANCH  29  31
ATOM     30  N   UNL     1      33.098 -22.030 -19.036  0.00  0.00    -0.242 NA
ATOM     31  C   UNL     1      35.097 -20.411 -20.082  0.00  0.00    -0.019 C 
ATOM     32  C   UNL     1      33.777 -20.144 -20.388  0.00  0.00    +0.016 C 
ATOM     33  C   UNL     1      35.439 -21.469 -19.264  0.00  0.00    +0.016 C 
ATOM     34  C   UNL     1      32.817 -20.981 -19.842  0.00  0.00    +0.099 C 
ATOM     35  C   UNL     1      34.405 -22.247 -18.766  0.00  0.00    +0.099 C 
ENDBRANCH  29  31
ENDBRANCH  28  29
ENDBRANCH   2  28
TORSDOF 6
ENDMDL
MODEL 3
REMARK VINA RESULT:     -11.7      3.194     10.262
REMARK  Name = 5326868
REMARK  6 active torsions:
REMARK  status: ('A' for Active; 'I' for Inactive)
REMARK    1  A    between atoms: C_2  and  C_28
REMARK    2  A    between atoms: C_7  and  N_12
REMARK    3  A    between atoms: C_13  and  C_18
REMARK    4  A    between atoms: C_16  and  N_23
REMARK    5  A    between atoms: C_28  and  C_29
REMARK    6  A    between atoms: C_29  and  C_31
REMARK                            x       y       z     vdW  Elec       q    Type
REMARK                         _______ _______ _______ _____ _____    ______ ____
ROOT
ATOM      1  N   UNL     1      34.947 -16.892 -24.319  0.00  0.00    -0.312 N 
ATOM      2  C   UNL     1      34.897 -15.896 -22.335  0.00  0.00    -0.006 C 
ATOM      3  C   UNL     1      34.883 -17.304 -22.127  0.00  0.00    +0.012 C 
ATOM      4  C   UNL     1      34.914 -17.905 -23.387  0.00  0.00    +0.048 C 
ATOM      5  C   UNL     1      34.936 -15.674 -23.692  0.00  0.00    +0.058 C 
ATOM      6  C   UNL     1      34.845 -18.127 -20.983  0.00  0.00    +0.016 C 
ATOM      7  C   UNL     1      34.841 -19.517 -21.143  0.00  0.00    +0.051 C 
ATOM      8  C   UNL     1      34.910 -19.294 -23.562  0.00  0.00    +0.016 C 
ATOM      9  C   UNL     1      34.874 -20.090 -22.413  0.00  0.00    +0.016 C 
ATOM     10  H   UNL     1      34.973 -17.024 -25.293  0.00  0.00    +0.152 HD
ENDROOT
BRANCH   7  12
ATOM     11  O   UNL     1      32.625 -21.225 -20.065  0.00  0.00    -0.270 OA
ATOM     12  N   UNL     1      34.803 -20.340 -20.015  0.00  0.00    -0.280 N 
ATOM     13  C   UNL     1      33.736 -21.120 -19.554  0.00  0.00    +0.250 C 
ATOM     14  H   UNL     1      35.627 -20.375 -19.478  0.00  0.00    +0.155 HD
BRANCH  13  18
ATOM     15  F   UNL     1      36.794 -22.903 -16.260  0.00  0.00    -0.204 F 
ATOM     16  C   UNL     1      33.164 -23.087 -16.417  0.00  0.00    +0.050 C 
ATOM     17  C   UNL     1      32.921 -22.383 -17.597  0.00  0.00    +0.019 C 
ATOM     18  C   UNL     1      33.993 -21.872 -18.298  0.00  0.00    +0.057 C 
ATOM     19  C   UNL     1      34.472 -23.263 -15.966  0.00  0.00    +0.044 C 
ATOM     20  C   UNL     1      35.295 -22.031 -17.873  0.00  0.00    +0.034 C 
ATOM     21  C   UNL     1      35.538 -22.735 -16.694  0.00  0.00    +0.142 C 
BRANCH  16  23
ATOM     22  O   UNL     1      29.962 -24.452 -14.057  0.00  0.00    -0.350 OA
ATOM     23  N   UNL     1      32.095 -23.616 -15.686  0.00  0.00    -0.303 N 
ATOM     24  C   UNL     1      30.721 -23.202 -15.994  0.00  0.00    +0.123 C 
ATOM     25  C   UNL     1      32.333 -23.999 -14.287  0.00  0.00    +0.123 C 
ATOM     26  C   UNL     1      29.739 -24.234 -15.449  0.00  0.00    +0.164 C 
ATOM     27  C   UNL     1      31.266 -24.989 -13.835  0.00  0.00    +0.164 C 
ENDBRANCH  16  23
ENDBRANCH  13  18
ENDBRANCH   7  12
BRANCH   2  28
ATOM     28  C   UNL     1      34.874 -14.853 -21.290  0.00  0.00    +0.032 C 
BRANCH  28  29
ATOM     29  C   UNL     1      33.467 -14.521 -20.747  0.00  0.00    +0.031 C 
BRANCH  29  31
ATOM     30  N   UNL     1      31.933 -10.789 -22.192  0.00  0.00    -0.242 NA
ATOM     31  C   UNL     1      32.927 -13.208 -21.256  0.00  0.00    -0.019 C 
ATOM     32  C   UNL     1      31.969 -12.536 -20.521  0.00  0.00    +0.016 C 
ATOM     33  C   UNL     1      33.397 -12.696 -22.449  0.00  0.00    +0.016 C 
ATOM     34  C   UNL     1      31.506 -11.334 -21.031  0.00  0.00    +0.099 C 
ATOM     35  C   UNL     1      32.870 -11.486 -22.874  0.00  0.00    +0.099 C 
ENDBRANCH  29  31
ENDBRANCH  28  29
ENDBRANCH   2  28
TORSDOF 6
ENDMDL
MODEL 4
REMARK VINA RESULT:     -11.5      4.790      9.295
REMARK  Name = 5326868
REMARK  6 active torsions:
REMARK  status: ('A' for Active; 'I' for Inactive)
REMARK    1  A    between atoms: C_2  and  C_28
REMARK    2  A    between atoms: C_7  and  N_12
REMARK    3  A    between atoms: C_13  and  C_18
REMARK    4  A    between atoms: C_16  and  N_23
REMARK    5  A    between atoms: C_28  and  C_29
REMARK    6  A    between atoms: C_29  and  C_31
REMARK                            x       y       z     vdW  Elec       q    Type
REMARK                         _______ _______ _______ _____ _____    ______ ____
ROOT
ATOM      1  N   UNL     1      34.605 -17.387 -24.658  0.00  0.00    -0.312 N 
ATOM      2  C   UNL     1      35.134 -17.103 -22.521  0.00  0.00    -0.006 C 
ATOM      3  C   UNL     1      34.570 -15.889 -23.005  0.00  0.00    +0.012 C 
ATOM      4  C   UNL     1      34.248 -16.094 -24.348  0.00  0.00    +0.048 C 
ATOM      5  C   UNL     1      35.142 -18.005 -23.560  0.00  0.00    +0.058 C 
ATOM      6  C   UNL     1      34.305 -14.631 -22.428  0.00  0.00    +0.016 C 
ATOM      7  C   UNL     1      33.726 -13.629 -23.213  0.00  0.00    +0.051 C 
ATOM      8  C   UNL     1      33.669 -15.101 -25.146  0.00  0.00    +0.016 C 
ATOM      9  C   UNL     1      33.413 -13.861 -24.551  0.00  0.00    +0.016 C 
ATOM     10  H   UNL     1      34.491 -17.806 -25.541  0.00  0.00    +0.152 HD
ENDROOT
BRANCH   7  12
ATOM     11  O   UNL     1      31.299 -12.640 -21.756  0.00  0.00    -0.270 OA
ATOM     12  N   UNL     1      33.459 -12.379 -22.649  0.00  0.00    -0.280 N 
ATOM     13  C   UNL     1      32.302 -11.968 -21.976  0.00  0.00    +0.250 C 
ATOM     14  H   UNL     1      34.171 -11.706 -22.736  0.00  0.00    +0.155 HD
BRANCH  13  18
ATOM     15  F   UNL     1      31.518  -8.663 -18.534  0.00  0.00    -0.204 F 
ATOM     16  C   UNL     1      32.718  -8.244 -21.943  0.00  0.00    +0.050 C 
ATOM     17  C   UNL     1      32.714  -9.569 -22.381  0.00  0.00    +0.019 C 
ATOM     18  C   UNL     1      32.305 -10.556 -21.510  0.00  0.00    +0.057 C 
ATOM     19  C   UNL     1      32.314  -7.938 -20.643  0.00  0.00    +0.044 C 
ATOM     20  C   UNL     1      31.902 -10.281 -20.220  0.00  0.00    +0.034 C 
ATOM     21  C   UNL     1      31.905  -8.957 -19.781  0.00  0.00    +0.142 C 
BRANCH  16  23
ATOM     22  O   UNL     1      33.946  -5.000 -24.320  0.00  0.00    -0.350 OA
ATOM     23  N   UNL     1      33.129  -7.223 -22.806  0.00  0.00    -0.303 N 
ATOM     24  C   UNL     1      34.551  -6.876 -22.904  0.00  0.00    +0.123 C 
ATOM     25  C   UNL     1      32.196  -6.117 -23.065  0.00  0.00    +0.123 C 
ATOM     26  C   UNL     1      34.810  -6.131 -24.209  0.00  0.00    +0.164 C 
ATOM     27  C   UNL     1      32.580  -5.414 -24.362  0.00  0.00    +0.164 C 
ENDBRANCH  16  23
ENDBRANCH  13  18
ENDBRANCH   7  12
BRANCH   2  28
ATOM     28  C   UNL     1      35.625 -17.359 -21.152  0.00  0.00    +0.032 C 
BRANCH  28  29
ATOM     29  C   UNL     1      36.470 -18.644 -21.004  0.00  0.00    +0.031 C 
BRANCH  29  31
ATOM     30  N   UNL     1      34.368 -21.837 -19.065  0.00  0.00    -0.242 NA
ATOM     31  C   UNL     1      35.730 -19.768 -20.321  0.00  0.00    -0.019 C 
ATOM     32  C   UNL     1      34.360 -19.862 -20.461  0.00  0.00    +0.016 C 
ATOM     33  C   UNL     1      36.435 -20.686 -19.567  0.00  0.00    +0.016 C 
ATOM     34  C   UNL     1      33.727 -20.912 -19.815  0.00  0.00    +0.099 C 
ATOM     35  C   UNL     1      35.709 -21.699 -18.960  0.00  0.00    +0.099 C 
ENDBRANCH  29  31
ENDBRANCH  28  29
ENDBRANCH   2  28
TORSDOF 6
ENDMDL
MODEL 5
REMARK VINA RESULT:     -11.1      3.486     10.086
REMARK  Name = 5326868
REMARK  6 active torsions:
REMARK  status: ('A' for Active; 'I' for Inactive)
REMARK    1  A    between atoms: C_2  and  C_28
REMARK    2  A    between atoms: C_7  and  N_12
REMARK    3  A    between atoms: C_13  and  C_18
REMARK    4  A    between atoms: C_16  and  N_23
REMARK    5  A    between atoms: C_28  and  C_29
REMARK    6  A    between atoms: C_29  and  C_31
REMARK                            x       y       z     vdW  Elec       q    Type
REMARK                         _______ _______ _______ _____ _____    ______ ____
ROOT
ATOM      1  N   UNL     1      35.243 -16.857 -23.974  0.00  0.00    -0.312 N 
ATOM      2  C   UNL     1      34.933 -15.904 -21.992  0.00  0.00    -0.006 C 
ATOM      3  C   UNL     1      34.883 -17.316 -21.820  0.00  0.00    +0.012 C 
ATOM      4  C   UNL     1      35.080 -17.889 -23.078  0.00  0.00    +0.048 C 
ATOM      5  C   UNL     1      35.156 -15.653 -23.327  0.00  0.00    +0.058 C 
ATOM      6  C   UNL     1      34.687 -18.163 -20.711  0.00  0.00    +0.016 C 
ATOM      7  C   UNL     1      34.696 -19.549 -20.902  0.00  0.00    +0.051 C 
ATOM      8  C   UNL     1      35.091 -19.274 -23.283  0.00  0.00    +0.016 C 
ATOM      9  C   UNL     1      34.896 -20.095 -22.169  0.00  0.00    +0.016 C 
ATOM     10  H   UNL     1      35.400 -16.968 -24.939  0.00  0.00    +0.152 HD
ENDROOT
BRANCH   7  12
ATOM     11  O   UNL     1      32.332 -21.234 -20.152  0.00  0.00    -0.270 OA
ATOM     12  N   UNL     1      34.502 -20.396 -19.808  0.00  0.00    -0.280 N 
ATOM     13  C   UNL     1      33.371 -21.164 -19.504  0.00  0.00    +0.250 C 
ATOM     14  H   UNL     1      35.251 -20.460 -19.173  0.00  0.00    +0.155 HD
BRANCH  13  18
ATOM     15  F   UNL     1      31.248 -23.587 -15.898  0.00  0.00    -0.204 F 
ATOM     16  C   UNL     1      34.774 -22.943 -16.520  0.00  0.00    +0.050 C 
ATOM     17  C   UNL     1      34.697 -22.205 -17.701  0.00  0.00    +0.019 C 
ATOM     18  C   UNL     1      33.455 -21.950 -18.244  0.00  0.00    +0.057 C 
ATOM     19  C   UNL     1      33.609 -23.410 -15.911  0.00  0.00    +0.044 C 
ATOM     20  C   UNL     1      32.289 -22.400 -17.663  0.00  0.00    +0.034 C 
ATOM     21  C   UNL     1      32.366 -23.138 -16.482  0.00  0.00    +0.142 C 
BRANCH  16  23
ATOM     22  O   UNL     1      38.471 -23.565 -14.615  0.00  0.00    -0.350 OA
ATOM     23  N   UNL     1      36.021 -23.217 -15.947  0.00  0.00    -0.303 N 
ATOM     24  C   UNL     1      36.111 -24.107 -14.784  0.00  0.00    +0.123 C 
ATOM     25  C   UNL     1      37.063 -22.185 -16.028  0.00  0.00    +0.123 C 
ATOM     26  C   UNL     1      37.534 -24.640 -14.653  0.00  0.00    +0.164 C 
ATOM     27  C   UNL     1      38.435 -22.822 -15.834  0.00  0.00    +0.164 C 
ENDBRANCH  16  23
ENDBRANCH  13  18
ENDBRANCH   7  12
BRANCH   2  28
ATOM     28  C   UNL     1      34.776 -14.884 -20.936  0.00  0.00    +0.032 C 
BRANCH  28  29
ATOM     29  C   UNL     1      33.311 -14.578 -20.554  0.00  0.00    +0.031 C 
BRANCH  29  31
ATOM     30  N   UNL     1      31.915 -10.822 -22.075  0.00  0.00    -0.242 NA
ATOM     31  C   UNL     1      32.820 -13.256 -21.090  0.00  0.00    -0.019 C 
ATOM     32  C   UNL     1      31.898 -12.529 -20.363  0.00  0.00    +0.016 C 
ATOM     33  C   UNL     1      33.298 -12.793 -22.300  0.00  0.00    +0.016 C 
ATOM     34  C   UNL     1      31.478 -11.321 -20.897  0.00  0.00    +0.099 C 
ATOM     35  C   UNL     1      32.816 -11.573 -22.748  0.00  0.00    +0.099 C 
ENDBRANCH  29  31
ENDBRANCH  28  29
ENDBRANCH   2  28
TORSDOF 6
ENDMDL
MODEL 6
REMARK VINA RESULT:     -10.5      2.827      5.671
REMARK  Name = 5326868
REMARK  6 active torsions:
REMARK  status: ('A' for Active; 'I' for Inactive)
REMARK    1  A    between atoms: C_2  and  C_28
REMARK    2  A    between atoms: C_7  and  N_12
REMARK    3  A    between atoms: C_13  and  C_18
REMARK    4  A    between atoms: C_16  and  N_23
REMARK    5  A    between atoms: C_28  and  C_29
REMARK    6  A    between atoms: C_29  and  C_31
REMARK                            x       y       z     vdW  Elec       q    Type
REMARK                         _______ _______ _______ _____ _____    ______ ____
ROOT
ATOM      1  N   UNL     1      30.687 -24.815 -13.936  0.00  0.00    -0.312 N 
ATOM      2  C   UNL     1      32.836 -24.574 -13.432  0.00  0.00    -0.006 C 
ATOM      3  C   UNL     1      32.591 -23.910 -14.667  0.00  0.00    +0.012 C 
ATOM      4  C   UNL     1      31.236 -24.077 -14.960  0.00  0.00    +0.048 C 
ATOM      5  C   UNL     1      31.646 -25.120 -13.008  0.00  0.00    +0.058 C 
ATOM      6  C   UNL     1      33.395 -23.182 -15.567  0.00  0.00    +0.016 C 
ATOM      7  C   UNL     1      32.815 -22.649 -16.723  0.00  0.00    +0.051 C 
ATOM      8  C   UNL     1      30.642 -23.550 -16.113  0.00  0.00    +0.016 C 
ATOM      9  C   UNL     1      31.459 -22.830 -16.990  0.00  0.00    +0.016 C 
ATOM     10  H   UNL     1      29.742 -25.085 -13.879  0.00  0.00    +0.152 HD
ENDROOT
BRANCH   7  12
ATOM     11  O   UNL     1      32.404 -22.073 -19.636  0.00  0.00    -0.270 OA
ATOM     12  N   UNL     1      33.605 -21.927 -17.620  0.00  0.00    -0.280 N 
ATOM     13  C   UNL     1      33.365 -21.687 -18.979  0.00  0.00    +0.250 C 
ATOM     14  H   UNL     1      34.432 -21.539 -17.252  0.00  0.00    +0.155 HD
BRANCH  13  18
ATOM     15  F   UNL     1      37.949 -20.205 -19.400  0.00  0.00    -0.204 F 
ATOM     16  C   UNL     1      35.048 -19.436 -21.457  0.00  0.00    +0.050 C 
ATOM     17  C   UNL     1      34.062 -20.172 -20.797  0.00  0.00    +0.019 C 
ATOM     18  C   UNL     1      34.414 -20.901 -19.681  0.00  0.00    +0.057 C 
ATOM     19  C   UNL     1      36.360 -19.447 -20.984  0.00  0.00    +0.044 C 
ATOM     20  C   UNL     1      35.704 -20.929 -19.194  0.00  0.00    +0.034 C 
ATOM     21  C   UNL     1      36.688 -20.194 -19.852  0.00  0.00    +0.142 C 
BRANCH  16  23
ATOM     22  O   UNL     1      34.318 -17.232 -24.963  0.00  0.00    -0.350 OA
ATOM     23  N   UNL     1      34.719 -18.687 -22.592  0.00  0.00    -0.303 N 
ATOM     24  C   UNL     1      34.267 -19.368 -23.811  0.00  0.00    +0.123 C 
ATOM     25  C   UNL     1      35.420 -17.414 -22.810  0.00  0.00    +0.123 C 
ATOM     26  C   UNL     1      33.516 -18.383 -24.701  0.00  0.00    +0.164 C 
ATOM     27  C   UNL     1      34.606 -16.534 -23.751  0.00  0.00    +0.164 C 
ENDBRANCH  16  23
ENDBRANCH  13  18
ENDBRANCH   7  12
BRANCH   2  28
ATOM     28  C   UNL     1      34.129 -24.666 -12.725  0.00  0.00    +0.032 C 
BRANCH  28  29
ATOM     29  C   UNL     1      35.302 -23.962 -13.442  0.00  0.00    +0.031 C 
BRANCH  29  31
ATOM     30  N   UNL     1      38.741 -26.476 -13.922  0.00  0.00    -0.242 NA
ATOM     31  C   UNL     1      36.513 -24.847 -13.611  0.00  0.00    -0.019 C 
ATOM     32  C   UNL     1      37.632 -24.623 -12.834  0.00  0.00    +0.016 C 
ATOM     33  C   UNL     1      36.484 -25.868 -14.541  0.00  0.00    +0.016 C 
ATOM     34  C   UNL     1      38.717 -25.463 -13.027  0.00  0.00    +0.099 C 
ATOM     35  C   UNL     1      37.620 -26.653 -14.658  0.00  0.00    +0.099 C 
ENDBRANCH  29  31
ENDBRANCH  28  29
ENDBRANCH   2  28
TORSDOF 6
ENDMDL
MODEL 7
REMARK VINA RESULT:     -10.4      7.466     12.454
REMARK  Name = 5326868
REMARK  6 active torsions:
REMARK  status: ('A' for Active; 'I' for Inactive)
REMARK    1  A    between atoms: C_2  and  C_28
REMARK    2  A    between atoms: C_7  and  N_12
REMARK    3  A    between atoms: C_13  and  C_18
REMARK    4  A    between atoms: C_16  and  N_23
REMARK    5  A    between atoms: C_28  and  C_29
REMARK    6  A    between atoms: C_29  and  C_31
REMARK                            x       y       z     vdW  Elec       q    Type
REMARK                         _______ _______ _______ _____ _____    ______ ____
ROOT
ATOM      1  N   UNL     1      31.866 -13.264 -20.523  0.00  0.00    -0.312 N 
ATOM      2  C   UNL     1      33.345 -13.337 -22.178  0.00  0.00    -0.006 C 
ATOM      3  C   UNL     1      32.872 -12.000 -22.062  0.00  0.00    +0.012 C 
ATOM      4  C   UNL     1      31.946 -11.982 -21.017  0.00  0.00    +0.048 C 
ATOM      5  C   UNL     1      32.708 -14.091 -21.219  0.00  0.00    +0.058 C 
ATOM      6  C   UNL     1      33.144 -10.799 -22.749  0.00  0.00    +0.016 C 
ATOM      7  C   UNL     1      32.481  -9.629 -22.365  0.00  0.00    +0.051 C 
ATOM      8  C   UNL     1      31.275 -10.818 -20.622  0.00  0.00    +0.016 C 
ATOM      9  C   UNL     1      31.562  -9.639 -21.317  0.00  0.00    +0.016 C 
ATOM     10  H   UNL     1      31.288 -13.546 -19.779  0.00  0.00    +0.152 HD
ENDROOT
BRANCH   7  12
ATOM     11  O   UNL     1      35.092  -8.298 -23.001  0.00  0.00    -0.270 OA
ATOM     12  N   UNL     1      32.744  -8.435 -23.041  0.00  0.00    -0.280 N 
ATOM     13  C   UNL     1      33.990  -7.856 -23.312  0.00  0.00    +0.250 C 
ATOM     14  H   UNL     1      31.958  -7.940 -23.365  0.00  0.00    +0.155 HD
BRANCH  13  18
ATOM     15  F   UNL     1      35.732  -4.823 -26.652  0.00  0.00    -0.204 F 
ATOM     16  C   UNL     1      32.925  -4.423 -24.371  0.00  0.00    +0.050 C 
ATOM     17  C   UNL     1      32.968  -5.642 -23.694  0.00  0.00    +0.019 C 
ATOM     18  C   UNL     1      33.945  -6.555 -24.031  0.00  0.00    +0.057 C 
ATOM     19  C   UNL     1      33.859  -4.147 -25.370  0.00  0.00    +0.044 C 
ATOM     20  C   UNL     1      34.879  -6.307 -25.015  0.00  0.00    +0.034 C 
ATOM     21  C   UNL     1      34.836  -5.089 -25.692  0.00  0.00    +0.142 C 
BRANCH  16  23
ATOM     22  O   UNL     1      29.789  -1.786 -23.428  0.00  0.00    -0.350 OA
ATOM     23  N   UNL     1      31.945  -3.479 -24.050  0.00  0.00    -0.303 N 
ATOM     24  C   UNL     1      31.486  -3.344 -22.663  0.00  0.00    +0.123 C 
ATOM     25  C   UNL     1      30.948  -3.137 -25.075  0.00  0.00    +0.123 C 
ATOM     26  C   UNL     1      30.828  -1.982 -22.469  0.00  0.00    +0.164 C 
ATOM     27  C   UNL     1      30.321  -1.785 -24.753  0.00  0.00    +0.164 C 
ENDBRANCH  16  23
ENDBRANCH  13  18
ENDBRANCH   7  12
BRANCH   2  28
ATOM     28  C   UNL     1      34.339 -13.837 -23.149  0.00  0.00    +0.032 C 
BRANCH  28  29
ATOM     29  C   UNL     1      33.813 -14.939 -24.095  0.00  0.00    +0.031 C 
BRANCH  29  31
ATOM     30  N   UNL     1      35.159 -18.866 -23.029  0.00  0.00    -0.242 NA
ATOM     31  C   UNL     1      34.287 -16.321 -23.720  0.00  0.00    -0.019 C 
ATOM     32  C   UNL     1      35.203 -16.471 -22.698  0.00  0.00    +0.016 C 
ATOM     33  C   UNL     1      33.797 -17.417 -24.405  0.00  0.00    +0.016 C 
ATOM     34  C   UNL     1      35.606 -17.761 -22.391  0.00  0.00    +0.099 C 
ATOM     35  C   UNL     1      34.263 -18.665 -24.022  0.00  0.00    +0.099 C 
ENDBRANCH  29  31
ENDBRANCH  28  29
ENDBRANCH   2  28
TORSDOF 6
ENDMDL
MODEL 8
REMARK VINA RESULT:     -10.3      3.905     10.529
REMARK  Name = 5326868
REMARK  6 active torsions:
REMARK  status: ('A' for Active; 'I' for Inactive)
REMARK    1  A    between atoms: C_2  and  C_28
REMARK    2  A    between atoms: C_7  and  N_12
REMARK    3  A    between atoms: C_13  and  C_18
REMARK    4  A    between atoms: C_16  and  N_23
REMARK    5  A    between atoms: C_28  and  C_29
REMARK    6  A    between atoms: C_29  and  C_31
REMARK                            x       y       z     vdW  Elec       q    Type
REMARK                         _______ _______ _______ _____ _____    ______ ____
ROOT
ATOM      1  N   UNL     1      33.995 -17.112 -24.862  0.00  0.00    -0.312 N 
ATOM      2  C   UNL     1      34.446 -15.674 -23.231  0.00  0.00    -0.006 C 
ATOM      3  C   UNL     1      34.799 -16.978 -22.785  0.00  0.00    +0.012 C 
ATOM      4  C   UNL     1      34.505 -17.861 -23.826  0.00  0.00    +0.048 C 
ATOM      5  C   UNL     1      33.955 -15.788 -24.512  0.00  0.00    +0.058 C 
ATOM      6  C   UNL     1      35.339 -17.494 -21.590  0.00  0.00    +0.016 C 
ATOM      7  C   UNL     1      35.568 -18.870 -21.482  0.00  0.00    +0.051 C 
ATOM      8  C   UNL     1      34.728 -19.240 -23.732  0.00  0.00    +0.016 C 
ATOM      9  C   UNL     1      35.267 -19.728 -22.538  0.00  0.00    +0.016 C 
ATOM     10  H   UNL     1      33.702 -17.474 -25.728  0.00  0.00    +0.152 HD
ENDROOT
BRANCH   7  12
ATOM     11  O   UNL     1      35.064 -21.491 -20.116  0.00  0.00    -0.270 OA
ATOM     12  N   UNL     1      36.103 -19.389 -20.301  0.00  0.00    -0.280 N 
ATOM     13  C   UNL     1      35.832 -20.626 -19.704  0.00  0.00    +0.250 C 
ATOM     14  H   UNL     1      36.750 -18.815 -19.831  0.00  0.00    +0.155 HD
BRANCH  13  18
ATOM     15  F   UNL     1      39.289 -19.528 -16.506  0.00  0.00    -0.204 F 
ATOM     16  C   UNL     1      36.790 -22.171 -16.428  0.00  0.00    +0.050 C 
ATOM     17  C   UNL     1      36.123 -21.931 -17.629  0.00  0.00    +0.019 C 
ATOM     18  C   UNL     1      36.542 -20.885 -18.424  0.00  0.00    +0.057 C 
ATOM     19  C   UNL     1      37.859 -21.360 -16.048  0.00  0.00    +0.044 C 
ATOM     20  C   UNL     1      37.596 -20.067 -18.072  0.00  0.00    +0.034 C 
ATOM     21  C   UNL     1      38.263 -20.307 -16.871  0.00  0.00    +0.142 C 
BRANCH  16  23
ATOM     22  O   UNL     1      35.648 -25.186 -13.727  0.00  0.00    -0.350 OA
ATOM     23  N   UNL     1      36.385 -23.225 -15.602  0.00  0.00    -0.303 N 
ATOM     24  C   UNL     1      35.041 -23.219 -15.014  0.00  0.00    +0.123 C 
ATOM     25  C   UNL     1      37.410 -23.920 -14.811  0.00  0.00    +0.123 C 
ATOM     26  C   UNL     1      34.657 -24.634 -14.593  0.00  0.00    +0.164 C 
ATOM     27  C   UNL     1      36.900 -25.298 -14.404  0.00  0.00    +0.164 C 
ENDBRANCH  16  23
ENDBRANCH  13  18
ENDBRANCH   7  12
BRANCH   2  28
ATOM     28  C   UNL     1      34.578 -14.417 -22.467  0.00  0.00    +0.032 C 
BRANCH  28  29
ATOM     29  C   UNL     1      34.107 -13.155 -23.222  0.00  0.00    +0.031 C 
BRANCH  29  31
ATOM     30  N   UNL     1      31.254 -10.834 -21.020  0.00  0.00    -0.242 NA
ATOM     31  C   UNL     1      33.103 -12.338 -22.446  0.00  0.00    -0.019 C 
ATOM     32  C   UNL     1      32.804 -11.055 -22.863  0.00  0.00    +0.016 C 
ATOM     33  C   UNL     1      32.497 -12.884 -21.332  0.00  0.00    +0.016 C 
ATOM     34  C   UNL     1      31.875 -10.346 -22.118  0.00  0.00    +0.099 C 
ATOM     35  C   UNL     1      31.582 -12.094 -20.655  0.00  0.00    +0.099 C 
ENDBRANCH  29  31
ENDBRANCH  28  29
ENDBRANCH   2  28
TORSDOF 6
ENDMDL
MODEL 9
REMARK VINA RESULT:     -10.3      7.922     12.952
REMARK  Name = 5326868
REMARK  6 active torsions:
REMARK  status: ('A' for Active; 'I' for Inactive)
REMARK    1  A    between atoms: C_2  and  C_28
REMARK    2  A    between atoms: C_7  and  N_12
REMARK    3  A    between atoms: C_13  and  C_18
REMARK    4  A    between atoms: C_16  and  N_23
REMARK    5  A    between atoms: C_28  and  C_29
REMARK    6  A    between atoms: C_29  and  C_31
REMARK                            x       y       z     vdW  Elec       q    Type
REMARK                         _______ _______ _______ _____ _____    ______ ____
ROOT
ATOM      1  N   UNL     1      31.706 -12.495 -20.968  0.00  0.00    -0.312 N 
ATOM      2  C   UNL     1      33.139 -12.696 -22.651  0.00  0.00    -0.006 C 
ATOM      3  C   UNL     1      32.759 -11.328 -22.550  0.00  0.00    +0.012 C 
ATOM      4  C   UNL     1      31.860 -11.229 -21.487  0.00  0.00    +0.048 C 
ATOM      5  C   UNL     1      32.475 -13.388 -21.665  0.00  0.00    +0.058 C 
ATOM      6  C   UNL     1      33.095 -10.160 -23.266  0.00  0.00    +0.016 C 
ATOM      7  C   UNL     1      32.521  -8.941 -22.890  0.00  0.00    +0.051 C 
ATOM      8  C   UNL     1      31.277 -10.017 -21.100  0.00  0.00    +0.016 C 
ATOM      9  C   UNL     1      31.626  -8.872 -21.823  0.00  0.00    +0.016 C 
ATOM     10  H   UNL     1      31.127 -12.724 -20.206  0.00  0.00    +0.152 HD
ENDROOT
BRANCH   7  12
ATOM     11  O   UNL     1      34.959  -7.203 -22.732  0.00  0.00    -0.270 OA
ATOM     12  N   UNL     1      32.848  -7.780 -23.594  0.00  0.00    -0.280 N 
ATOM     13  C   UNL     1      34.007  -7.002 -23.480  0.00  0.00    +0.250 C 
ATOM     14  H   UNL     1      32.182  -7.470 -24.249  0.00  0.00    +0.155 HD
BRANCH  13  18
ATOM     15  F   UNL     1      32.266  -2.690 -24.806  0.00  0.00    -0.204 F 
ATOM     16  C   UNL     1      35.073  -4.584 -26.136  0.00  0.00    +0.050 C 
ATOM     17  C   UNL     1      35.030  -5.715 -25.321  0.00  0.00    +0.019 C 
ATOM     18  C   UNL     1      34.053  -5.798 -24.351  0.00  0.00    +0.057 C 
ATOM     19  C   UNL     1      34.140  -3.562 -25.962  0.00  0.00    +0.044 C 
ATOM     20  C   UNL     1      33.119  -4.802 -24.158  0.00  0.00    +0.034 C 
ATOM     21  C   UNL     1      33.162  -3.671 -24.973  0.00  0.00    +0.142 C 
BRANCH  16  23
ATOM     22  O   UNL     1      37.960  -3.982 -29.134  0.00  0.00    -0.350 OA
ATOM     23  N   UNL     1      36.054  -4.474 -27.128  0.00  0.00    -0.303 N 
ATOM     24  C   UNL     1      37.409  -4.038 -26.771  0.00  0.00    +0.123 C 
ATOM     25  C   UNL     1      35.626  -4.133 -28.491  0.00  0.00    +0.123 C 
ATOM     26  C   UNL     1      38.389  -4.461 -27.860  0.00  0.00    +0.164 C 
ATOM     27  C   UNL     1      36.700  -4.554 -29.488  0.00  0.00    +0.164 C 
ENDBRANCH  16  23
ENDBRANCH  13  18
ENDBRANCH   7  12
BRANCH   2  28
ATOM     28  C   UNL     1      34.075 -13.278 -23.634  0.00  0.00    +0.032 C 
BRANCH  28  29
ATOM     29  C   UNL     1      33.534 -14.518 -24.378  0.00  0.00    +0.031 C 
BRANCH  29  31
ATOM     30  N   UNL     1      35.234 -18.200 -22.992  0.00  0.00    -0.242 NA
ATOM     31  C   UNL     1      34.132 -15.814 -23.890  0.00  0.00    -0.019 C 
ATOM     32  C   UNL     1      33.879 -16.982 -24.581  0.00  0.00    +0.016 C 
ATOM     33  C   UNL     1      34.925 -15.813 -22.759  0.00  0.00    +0.016 C 
ATOM     34  C   UNL     1      34.451 -18.146 -24.093  0.00  0.00    +0.099 C 
ATOM     35  C   UNL     1      35.451 -17.029 -22.351  0.00  0.00    +0.099 C 
ENDBRANCH  29  31
ENDBRANCH  28  29
ENDBRANCH   2  28
TORSDOF 6
ENDMDL
