MODEL 1
REMARK VINA RESULT:     -11.7      0.000      0.000
REMARK  Name = 11282283
REMARK  4 active torsions:
REMARK  status: ('A' for Active; 'I' for Inactive)
REMARK    1  A    between atoms: N_3  and  C_21
REMARK    2  A    between atoms: C_21  and  N_22
REMARK    3  A    between atoms: N_22  and  C_24
REMARK    4  A    between atoms: C_24  and  C_27
REMARK                            x       y       z     vdW  Elec       q    Type
REMARK                         _______ _______ _______ _____ _____    ______ ____
ROOT
ATOM      1  O   UNL     1      33.973 -10.192 -23.279  0.00  0.00    -0.466 OA
ATOM      2  N   UNL     1      33.127 -12.747 -22.091  0.00  0.00    -0.290 N 
ATOM      3  N   UNL     1      34.307 -15.288 -22.755  0.00  0.00    -0.288 N 
ATOM      4  N   UNL     1      31.548 -11.432 -20.870  0.00  0.00    -0.230 NA
ATOM      5  N   UNL     1      31.411  -9.009 -21.137  0.00  0.00    -0.245 NA
ATOM      6  C   UNL     1      33.179 -13.832 -21.105  0.00  0.00    +0.113 C 
ATOM      7  C   UNL     1      33.691 -12.988 -23.424  0.00  0.00    +0.113 C 
ATOM      8  C   UNL     1      34.348 -14.771 -21.395  0.00  0.00    +0.114 C 
ATOM      9  C   UNL     1      33.650 -14.475 -23.768  0.00  0.00    +0.114 C 
ATOM     10  C   UNL     1      32.553 -11.519 -21.771  0.00  0.00    +0.152 C 
ATOM     11  C   UNL     1      32.989 -10.348 -22.356  0.00  0.00    +0.258 C 
ATOM     12  C   UNL     1      32.419  -9.125 -22.037  0.00  0.00    +0.106 C 
ATOM     13  C   UNL     1      33.098  -8.150 -22.813  0.00  0.00    +0.051 C 
ATOM     14  C   UNL     1      34.042  -8.857 -23.558  0.00  0.00    +0.141 C 
ATOM     15  C   UNL     1      31.047 -10.200 -20.613  0.00  0.00    +0.251 C 
ATOM     16  C   UNL     1      33.024  -6.756 -22.972  0.00  0.00    +0.004 C 
ATOM     17  C   UNL     1      34.926  -8.264 -24.458  0.00  0.00    +0.037 C 
ATOM     18  C   UNL     1      33.901  -6.133 -23.871  0.00  0.00    +0.000 C 
ATOM     19  C   UNL     1      34.833  -6.876 -24.600  0.00  0.00    +0.003 C 
ENDROOT
BRANCH   3  21
ATOM     20  S   UNL     1      34.568 -17.218 -24.542  0.00  0.00    -0.019 S 
ATOM     21  C   UNL     1      34.862 -16.486 -23.066  0.00  0.00    +0.135 C 
BRANCH  21  22
ATOM     22  N   UNL     1      35.674 -17.076 -22.130  0.00  0.00    -0.312 N 
ATOM     23  H   UNL     1      35.823 -16.580 -21.293  0.00  0.00    +0.149 HD
BRANCH  22  24
ATOM     24  C   UNL     1      36.331 -18.362 -22.260  0.00  0.00    +0.116 C 
BRANCH  24  27
ATOM     25  O   UNL     1      32.833 -20.870 -19.840  0.00  0.00    -0.435 OA
ATOM     26  O   UNL     1      34.442 -21.988 -18.438  0.00  0.00    -0.435 OA
ATOM     27  C   UNL     1      35.858 -19.341 -21.225  0.00  0.00    +0.001 C 
ATOM     28  C   UNL     1      34.496 -19.590 -21.088  0.00  0.00    +0.038 C 
ATOM     29  C   UNL     1      36.801 -19.987 -20.413  0.00  0.00    +0.001 C 
ATOM     30  C   UNL     1      34.111 -20.498 -20.123  0.00  0.00    +0.176 C 
ATOM     31  C   UNL     1      35.030 -21.136 -19.322  0.00  0.00    +0.176 C 
ATOM     32  C   UNL     1      36.385 -20.902 -19.443  0.00  0.00    +0.040 C 
ATOM     33  C   UNL     1      33.051 -21.814 -18.772  0.00  0.00    +0.429 C 
ENDBRANCH  24  27
ENDBRANCH  22  24
ENDBRANCH  21  22
ENDBRANCH   3  21
TORSDOF 4
ENDMDL
MODEL 2
REMARK VINA RESULT:     -11.4      2.246      3.367
REMARK  Name = 11282283
REMARK  4 active torsions:
REMARK  status: ('A' for Active; 'I' for Inactive)
REMARK    1  A    between atoms: N_3  and  C_21
REMARK    2  A    between atoms: C_21  and  N_22
REMARK    3  A    between atoms: N_22  and  C_24
REMARK    4  A    between atoms: C_24  and  C_27
REMARK                            x       y       z     vdW  Elec       q    Type
REMARK                         _______ _______ _______ _____ _____    ______ ____
ROOT
ATOM      1  O   UNL     1      32.870 -12.779 -21.764  0.00  0.00    -0.466 OA
ATOM      2  N   UNL     1      33.928 -14.615 -23.806  0.00  0.00    -0.290 N 
ATOM      3  N   UNL     1      34.423 -17.412 -23.339  0.00  0.00    -0.288 N 
ATOM      4  N   UNL     1      33.943 -12.701 -25.237  0.00  0.00    -0.230 NA
ATOM      5  N   UNL     1      33.198 -10.508 -24.464  0.00  0.00    -0.245 NA
ATOM      6  C   UNL     1      33.818 -15.589 -24.896  0.00  0.00    +0.113 C 
ATOM      7  C   UNL     1      34.296 -15.099 -22.471  0.00  0.00    +0.113 C 
ATOM      8  C   UNL     1      33.474 -16.974 -24.351  0.00  0.00    +0.114 C 
ATOM      9  C   UNL     1      35.111 -16.387 -22.569  0.00  0.00    +0.114 C 
ATOM     10  C   UNL     1      33.692 -13.260 -24.032  0.00  0.00    +0.152 C 
ATOM     11  C   UNL     1      33.193 -12.443 -23.040  0.00  0.00    +0.258 C 
ATOM     12  C   UNL     1      32.956 -11.094 -23.266  0.00  0.00    +0.106 C 
ATOM     13  C   UNL     1      32.453 -10.566 -22.049  0.00  0.00    +0.051 C 
ATOM     14  C   UNL     1      32.420 -11.640 -21.160  0.00  0.00    +0.141 C 
ATOM     15  C   UNL     1      33.684 -11.379 -25.377  0.00  0.00    +0.251 C 
ATOM     16  C   UNL     1      32.024  -9.307 -21.597  0.00  0.00    +0.004 C 
ATOM     17  C   UNL     1      31.984 -11.544 -19.839  0.00  0.00    +0.037 C 
ATOM     18  C   UNL     1      31.580  -9.181 -20.273  0.00  0.00    +0.000 C 
ATOM     19  C   UNL     1      31.562 -10.281 -19.412  0.00  0.00    +0.003 C 
ENDROOT
BRANCH   3  21
ATOM     20  S   UNL     1      34.953 -19.779 -24.390  0.00  0.00    -0.019 S 
ATOM     21  C   UNL     1      34.656 -18.731 -23.120  0.00  0.00    +0.135 C 
BRANCH  21  22
ATOM     22  N   UNL     1      34.643 -19.174 -21.822  0.00  0.00    -0.312 N 
ATOM     23  H   UNL     1      33.768 -19.220 -21.374  0.00  0.00    +0.149 HD
BRANCH  22  24
ATOM     24  C   UNL     1      35.800 -19.582 -21.048  0.00  0.00    +0.116 C 
BRANCH  24  27
ATOM     25  O   UNL     1      32.575 -22.231 -18.410  0.00  0.00    -0.435 OA
ATOM     26  O   UNL     1      34.302 -23.140 -16.996  0.00  0.00    -0.435 OA
ATOM     27  C   UNL     1      35.433 -20.540 -19.952  0.00  0.00    +0.001 C 
ATOM     28  C   UNL     1      34.099 -20.890 -19.766  0.00  0.00    +0.038 C 
ATOM     29  C   UNL     1      36.443 -21.064 -19.134  0.00  0.00    +0.001 C 
ATOM     30  C   UNL     1      33.812 -21.773 -18.746  0.00  0.00    +0.176 C 
ATOM     31  C   UNL     1      34.798 -22.293 -17.939  0.00  0.00    +0.176 C 
ATOM     32  C   UNL     1      36.126 -21.957 -18.108  0.00  0.00    +0.040 C 
ATOM     33  C   UNL     1      32.893 -23.097 -17.302  0.00  0.00    +0.429 C 
ENDBRANCH  24  27
ENDBRANCH  22  24
ENDBRANCH  21  22
ENDBRANCH   3  21
TORSDOF 4
ENDMDL
MODEL 3
REMARK VINA RESULT:     -10.7      3.647     11.256
REMARK  Name = 11282283
REMARK  4 active torsions:
REMARK  status: ('A' for Active; 'I' for Inactive)
REMARK    1  A    between atoms: N_3  and  C_21
REMARK    2  A    between atoms: C_21  and  N_22
REMARK    3  A    between atoms: N_22  and  C_24
REMARK    4  A    between atoms: C_24  and  C_27
REMARK                            x       y       z     vdW  Elec       q    Type
REMARK                         _______ _______ _______ _____ _____    ______ ____
ROOT
ATOM      1  O   UNL     1      34.054 -13.896 -22.103  0.00  0.00    -0.466 OA
ATOM      2  N   UNL     1      33.074 -11.450 -23.412  0.00  0.00    -0.290 N 
ATOM      3  N   UNL     1      32.466  -9.015 -22.002  0.00  0.00    -0.288 N 
ATOM      4  N   UNL     1      33.210 -12.714 -25.436  0.00  0.00    -0.230 NA
ATOM      5  N   UNL     1      33.970 -15.035 -25.457  0.00  0.00    -0.245 NA
ATOM      6  C   UNL     1      33.225 -10.146 -24.067  0.00  0.00    +0.113 C 
ATOM      7  C   UNL     1      32.607 -11.485 -22.022  0.00  0.00    +0.113 C 
ATOM      8  C   UNL     1      33.491  -9.052 -23.035  0.00  0.00    +0.114 C 
ATOM      9  C   UNL     1      31.761 -10.253 -21.706  0.00  0.00    +0.114 C 
ATOM     10  C   UNL     1      33.365 -12.629 -24.096  0.00  0.00    +0.152 C 
ATOM     11  C   UNL     1      33.824 -13.749 -23.433  0.00  0.00    +0.258 C 
ATOM     12  C   UNL     1      34.116 -14.922 -24.114  0.00  0.00    +0.106 C 
ATOM     13  C   UNL     1      34.555 -15.853 -23.138  0.00  0.00    +0.051 C 
ATOM     14  C   UNL     1      34.499 -15.174 -21.921  0.00  0.00    +0.141 C 
ATOM     15  C   UNL     1      33.517 -13.895 -26.025  0.00  0.00    +0.251 C 
ATOM     16  C   UNL     1      34.993 -17.189 -23.142  0.00  0.00    +0.004 C 
ATOM     17  C   UNL     1      34.852 -15.741 -20.697  0.00  0.00    +0.037 C 
ATOM     18  C   UNL     1      35.354 -17.783 -21.926  0.00  0.00    +0.000 C 
ATOM     19  C   UNL     1      35.284 -17.070 -20.726  0.00  0.00    +0.003 C 
ENDROOT
BRANCH   3  21
ATOM     20  S   UNL     1      32.418  -7.738 -19.688  0.00  0.00    -0.019 S 
ATOM     21  C   UNL     1      32.179  -7.867 -21.339  0.00  0.00    +0.135 C 
BRANCH  21  22
ATOM     22  N   UNL     1      31.688  -6.815 -22.070  0.00  0.00    -0.312 N 
ATOM     23  H   UNL     1      30.849  -6.966 -22.563  0.00  0.00    +0.149 HD
BRANCH  22  24
ATOM     24  C   UNL     1      32.289  -5.500 -22.183  0.00  0.00    +0.116 C 
BRANCH  24  27
ATOM     25  O   UNL     1      32.343  -3.863 -26.840  0.00  0.00    -0.435 OA
ATOM     26  O   UNL     1      34.586  -4.659 -27.217  0.00  0.00    -0.435 OA
ATOM     27  C   UNL     1      32.935  -5.291 -23.521  0.00  0.00    +0.001 C 
ATOM     28  C   UNL     1      32.230  -4.639 -24.528  0.00  0.00    +0.038 C 
ATOM     29  C   UNL     1      34.241  -5.757 -23.733  0.00  0.00    +0.001 C 
ATOM     30  C   UNL     1      32.866  -4.470 -25.741  0.00  0.00    +0.176 C 
ATOM     31  C   UNL     1      34.148  -4.925 -25.956  0.00  0.00    +0.176 C 
ATOM     32  C   UNL     1      34.863  -5.574 -24.969  0.00  0.00    +0.040 C 
ATOM     33  C   UNL     1      33.438  -3.985 -27.771  0.00  0.00    +0.429 C 
ENDBRANCH  24  27
ENDBRANCH  22  24
ENDBRANCH  21  22
ENDBRANCH   3  21
TORSDOF 4
ENDMDL
MODEL 4
REMARK VINA RESULT:     -10.6      4.961     12.421
REMARK  Name = 11282283
REMARK  4 active torsions:
REMARK  status: ('A' for Active; 'I' for Inactive)
REMARK    1  A    between atoms: N_3  and  C_21
REMARK    2  A    between atoms: C_21  and  N_22
REMARK    3  A    between atoms: N_22  and  C_24
REMARK    4  A    between atoms: C_24  and  C_27
REMARK                            x       y       z     vdW  Elec       q    Type
REMARK                         _______ _______ _______ _____ _____    ______ ____
ROOT
ATOM      1  O   UNL     1      33.128 -22.940 -15.903  0.00  0.00    -0.466 OA
ATOM      2  N   UNL     1      35.707 -22.398 -17.212  0.00  0.00    -0.290 N 
ATOM      3  N   UNL     1      36.011 -20.671 -19.494  0.00  0.00    -0.288 N 
ATOM      4  N   UNL     1      36.628 -23.864 -15.564  0.00  0.00    -0.230 NA
ATOM      5  N   UNL     1      35.234 -24.930 -13.865  0.00  0.00    -0.245 NA
ATOM      6  C   UNL     1      36.952 -21.653 -17.429  0.00  0.00    +0.113 C 
ATOM      7  C   UNL     1      34.620 -22.242 -18.184  0.00  0.00    +0.113 C 
ATOM      8  C   UNL     1      36.689 -20.385 -18.239  0.00  0.00    +0.114 C 
ATOM      9  C   UNL     1      35.173 -21.859 -19.556  0.00  0.00    +0.114 C 
ATOM     10  C   UNL     1      35.561 -23.237 -16.108  0.00  0.00    +0.152 C 
ATOM     11  C   UNL     1      34.328 -23.455 -15.531  0.00  0.00    +0.258 C 
ATOM     12  C   UNL     1      34.182 -24.289 -14.432  0.00  0.00    +0.106 C 
ATOM     13  C   UNL     1      32.802 -24.285 -14.105  0.00  0.00    +0.051 C 
ATOM     14  C   UNL     1      32.199 -23.442 -15.038  0.00  0.00    +0.141 C 
ATOM     15  C   UNL     1      36.402 -24.660 -14.491  0.00  0.00    +0.251 C 
ATOM     16  C   UNL     1      31.994 -24.896 -13.131  0.00  0.00    +0.004 C 
ATOM     17  C   UNL     1      30.833 -23.163 -15.066  0.00  0.00    +0.037 C 
ATOM     18  C   UNL     1      30.617 -24.633 -13.136  0.00  0.00    +0.000 C 
ATOM     19  C   UNL     1      30.050 -23.782 -14.088  0.00  0.00    +0.003 C 
ENDROOT
BRANCH   3  21
ATOM     20  S   UNL     1      37.573 -19.003 -20.825  0.00  0.00    -0.019 S 
ATOM     21  C   UNL     1      36.156 -19.857 -20.570  0.00  0.00    +0.135 C 
BRANCH  21  22
ATOM     22  N   UNL     1      35.102 -19.761 -21.443  0.00  0.00    -0.312 N 
ATOM     23  H   UNL     1      34.212 -19.993 -21.096  0.00  0.00    +0.149 HD
BRANCH  22  24
ATOM     24  C   UNL     1      35.179 -19.346 -22.831  0.00  0.00    +0.116 C 
BRANCH  24  27
ATOM     25  O   UNL     1      33.724 -15.414 -25.437  0.00  0.00    -0.435 OA
ATOM     26  O   UNL     1      34.051 -13.915 -23.579  0.00  0.00    -0.435 OA
ATOM     27  C   UNL     1      34.886 -17.883 -22.997  0.00  0.00    +0.001 C 
ATOM     28  C   UNL     1      34.429 -17.411 -24.223  0.00  0.00    +0.038 C 
ATOM     29  C   UNL     1      35.078 -17.018 -21.911  0.00  0.00    +0.001 C 
ATOM     30  C   UNL     1      34.172 -16.059 -24.327  0.00  0.00    +0.176 C 
ATOM     31  C   UNL     1      34.359 -15.204 -23.265  0.00  0.00    +0.176 C 
ATOM     32  C   UNL     1      34.812 -15.653 -22.042  0.00  0.00    +0.040 C 
ATOM     33  C   UNL     1      33.648 -14.056 -24.956  0.00  0.00    +0.429 C 
ENDBRANCH  24  27
ENDBRANCH  22  24
ENDBRANCH  21  22
ENDBRANCH   3  21
TORSDOF 4
ENDMDL
MODEL 5
REMARK VINA RESULT:     -10.4      4.251      6.752
REMARK  Name = 11282283
REMARK  4 active torsions:
REMARK  status: ('A' for Active; 'I' for Inactive)
REMARK    1  A    between atoms: N_3  and  C_21
REMARK    2  A    between atoms: C_21  and  N_22
REMARK    3  A    between atoms: N_22  and  C_24
REMARK    4  A    between atoms: C_24  and  C_27
REMARK                            x       y       z     vdW  Elec       q    Type
REMARK                         _______ _______ _______ _____ _____    ______ ____
ROOT
ATOM      1  O   UNL     1      32.371  -5.220 -24.932  0.00  0.00    -0.466 OA
ATOM      2  N   UNL     1      31.517  -6.251 -22.312  0.00  0.00    -0.290 N 
ATOM      3  N   UNL     1      31.779  -9.005 -21.514  0.00  0.00    -0.288 N 
ATOM      4  N   UNL     1      30.847  -4.001 -21.865  0.00  0.00    -0.230 NA
ATOM      5  N   UNL     1      31.141  -2.219 -23.508  0.00  0.00    -0.245 NA
ATOM      6  C   UNL     1      31.709  -6.610 -20.903  0.00  0.00    +0.113 C 
ATOM      7  C   UNL     1      31.463  -7.329 -23.306  0.00  0.00    +0.113 C 
ATOM      8  C   UNL     1      32.447  -7.941 -20.779  0.00  0.00    +0.114 C 
ATOM      9  C   UNL     1      30.976  -8.628 -22.668  0.00  0.00    +0.114 C 
ATOM     10  C   UNL     1      31.387  -4.918 -22.698  0.00  0.00    +0.152 C 
ATOM     11  C   UNL     1      31.806  -4.487 -23.939  0.00  0.00    +0.258 C 
ATOM     12  C   UNL     1      31.678  -3.159 -24.323  0.00  0.00    +0.106 C 
ATOM     13  C   UNL     1      32.200  -3.070 -25.639  0.00  0.00    +0.051 C 
ATOM     14  C   UNL     1      32.612  -4.362 -25.966  0.00  0.00    +0.141 C 
ATOM     15  C   UNL     1      30.759  -2.727 -22.314  0.00  0.00    +0.251 C 
ATOM     16  C   UNL     1      32.372  -2.050 -26.590  0.00  0.00    +0.004 C 
ATOM     17  C   UNL     1      33.189  -4.709 -27.187  0.00  0.00    +0.037 C 
ATOM     18  C   UNL     1      32.949  -2.370 -27.826  0.00  0.00    +0.000 C 
ATOM     19  C   UNL     1      33.349  -3.677 -28.117  0.00  0.00    +0.003 C 
ENDROOT
BRANCH   3  21
ATOM     20  S   UNL     1      31.942 -10.733 -19.520  0.00  0.00    -0.019 S 
ATOM     21  C   UNL     1      31.901 -10.302 -21.137  0.00  0.00    +0.135 C 
BRANCH  21  22
ATOM     22  N   UNL     1      31.989 -11.249 -22.126  0.00  0.00    -0.312 N 
ATOM     23  H   UNL     1      31.215 -11.846 -22.243  0.00  0.00    +0.149 HD
BRANCH  22  24
ATOM     24  C   UNL     1      33.115 -11.450 -23.017  0.00  0.00    +0.116 C 
BRANCH  24  27
ATOM     25  O   UNL     1      33.917 -15.825 -25.161  0.00  0.00    -0.435 OA
ATOM     26  O   UNL     1      34.827 -16.777 -23.143  0.00  0.00    -0.435 OA
ATOM     27  C   UNL     1      33.584 -12.876 -23.016  0.00  0.00    +0.001 C 
ATOM     28  C   UNL     1      33.487 -13.630 -24.181  0.00  0.00    +0.038 C 
ATOM     29  C   UNL     1      34.113 -13.423 -21.839  0.00  0.00    +0.001 C 
ATOM     30  C   UNL     1      33.931 -14.935 -24.131  0.00  0.00    +0.176 C 
ATOM     31  C   UNL     1      34.451 -15.479 -22.979  0.00  0.00    +0.176 C 
ATOM     32  C   UNL     1      34.555 -14.747 -21.813  0.00  0.00    +0.040 C 
ATOM     33  C   UNL     1      34.487 -16.989 -24.528  0.00  0.00    +0.429 C 
ENDBRANCH  24  27
ENDBRANCH  22  24
ENDBRANCH  21  22
ENDBRANCH   3  21
TORSDOF 4
ENDMDL
MODEL 6
REMARK VINA RESULT:     -10.3      3.565     11.051
REMARK  Name = 11282283
REMARK  4 active torsions:
REMARK  status: ('A' for Active; 'I' for Inactive)
REMARK    1  A    between atoms: N_3  and  C_21
REMARK    2  A    between atoms: C_21  and  N_22
REMARK    3  A    between atoms: N_22  and  C_24
REMARK    4  A    between atoms: C_24  and  C_27
REMARK                            x       y       z     vdW  Elec       q    Type
REMARK                         _______ _______ _______ _____ _____    ______ ____
ROOT
ATOM      1  O   UNL     1      33.385 -21.686 -18.223  0.00  0.00    -0.466 OA
ATOM      2  N   UNL     1      35.529 -20.464 -19.825  0.00  0.00    -0.290 N 
ATOM      3  N   UNL     1      35.056 -18.802 -22.127  0.00  0.00    -0.288 N 
ATOM      4  N   UNL     1      37.017 -21.543 -18.297  0.00  0.00    -0.230 NA
ATOM      5  N   UNL     1      36.196 -22.909 -16.447  0.00  0.00    -0.245 NA
ATOM      6  C   UNL     1      36.469 -19.399 -20.187  0.00  0.00    +0.113 C 
ATOM      7  C   UNL     1      34.341 -20.663 -20.663  0.00  0.00    +0.113 C 
ATOM      8  C   UNL     1      35.757 -18.290 -20.960  0.00  0.00    +0.114 C 
ATOM      9  C   UNL     1      34.600 -20.183 -22.090  0.00  0.00    +0.114 C 
ATOM     10  C   UNL     1      35.759 -21.271 -18.712  0.00  0.00    +0.152 C 
ATOM     11  C   UNL     1      34.717 -21.819 -17.995  0.00  0.00    +0.258 C 
ATOM     12  C   UNL     1      34.946 -22.621 -16.886  0.00  0.00    +0.106 C 
ATOM     13  C   UNL     1      33.670 -23.006 -16.399  0.00  0.00    +0.051 C 
ATOM     14  C   UNL     1      32.746 -22.406 -17.254  0.00  0.00    +0.141 C 
ATOM     15  C   UNL     1      37.155 -22.333 -17.206  0.00  0.00    +0.251 C 
ATOM     16  C   UNL     1      33.190 -23.792 -15.337  0.00  0.00    +0.004 C 
ATOM     17  C   UNL     1      31.365 -22.537 -17.122  0.00  0.00    +0.037 C 
ATOM     18  C   UNL     1      31.806 -23.940 -15.181  0.00  0.00    +0.000 C 
ATOM     19  C   UNL     1      30.911 -23.323 -16.059  0.00  0.00    +0.003 C 
ENDROOT
BRANCH   3  21
ATOM     20  S   UNL     1      33.836 -18.524 -24.456  0.00  0.00    -0.019 S 
ATOM     21  C   UNL     1      34.835 -18.018 -23.213  0.00  0.00    +0.135 C 
BRANCH  21  22
ATOM     22  N   UNL     1      35.457 -16.796 -23.254  0.00  0.00    -0.312 N 
ATOM     23  H   UNL     1      36.368 -16.746 -22.884  0.00  0.00    +0.149 HD
BRANCH  22  24
ATOM     24  C   UNL     1      34.898 -15.572 -23.793  0.00  0.00    +0.116 C 
BRANCH  24  27
ATOM     25  O   UNL     1      31.777 -12.062 -22.272  0.00  0.00    -0.435 OA
ATOM     26  O   UNL     1      32.283 -12.455 -19.949  0.00  0.00    -0.435 OA
ATOM     27  C   UNL     1      34.214 -14.754 -22.736  0.00  0.00    +0.001 C 
ATOM     28  C   UNL     1      33.296 -13.778 -23.111  0.00  0.00    +0.038 C 
ATOM     29  C   UNL     1      34.514 -14.989 -21.386  0.00  0.00    +0.001 C 
ATOM     30  C   UNL     1      32.693 -13.053 -22.104  0.00  0.00    +0.176 C 
ATOM     31  C   UNL     1      32.982 -13.278 -20.778  0.00  0.00    +0.176 C 
ATOM     32  C   UNL     1      33.890 -14.241 -20.386  0.00  0.00    +0.040 C 
ATOM     33  C   UNL     1      31.520 -11.688 -20.903  0.00  0.00    +0.429 C 
ENDBRANCH  24  27
ENDBRANCH  22  24
ENDBRANCH  21  22
ENDBRANCH   3  21
TORSDOF 4
ENDMDL
MODEL 7
REMARK VINA RESULT:     -10.1      8.498     14.352
REMARK  Name = 11282283
REMARK  4 active torsions:
REMARK  status: ('A' for Active; 'I' for Inactive)
REMARK    1  A    between atoms: N_3  and  C_21
REMARK    2  A    between atoms: C_21  and  N_22
REMARK    3  A    between atoms: N_22  and  C_24
REMARK    4  A    between atoms: C_24  and  C_27
REMARK                            x       y       z     vdW  Elec       q    Type
REMARK                         _______ _______ _______ _____ _____    ______ ____
ROOT
ATOM      1  O   UNL     1      37.227 -25.279 -14.379  0.00  0.00    -0.466 OA
ATOM      2  N   UNL     1      34.716 -23.965 -13.590  0.00  0.00    -0.290 N 
ATOM      3  N   UNL     1      32.602 -23.314 -15.433  0.00  0.00    -0.288 N 
ATOM      4  N   UNL     1      35.629 -23.984 -11.381  0.00  0.00    -0.230 NA
ATOM      5  N   UNL     1      37.831 -24.927 -10.906  0.00  0.00    -0.245 NA
ATOM      6  C   UNL     1      33.317 -23.936 -13.149  0.00  0.00    +0.113 C 
ATOM      7  C   UNL     1      35.012 -23.655 -14.993  0.00  0.00    +0.113 C 
ATOM      8  C   UNL     1      32.376 -24.220 -14.317  0.00  0.00    +0.114 C 
ATOM      9  C   UNL     1      33.935 -22.750 -15.586  0.00  0.00    +0.114 C 
ATOM     10  C   UNL     1      35.739 -24.277 -12.696  0.00  0.00    +0.152 C 
ATOM     11  C   UNL     1      36.897 -24.895 -13.119  0.00  0.00    +0.258 C 
ATOM     12  C   UNL     1      37.915 -25.208 -12.230  0.00  0.00    +0.106 C 
ATOM     13  C   UNL     1      38.939 -25.825 -12.993  0.00  0.00    +0.051 C 
ATOM     14  C   UNL     1      38.467 -25.845 -14.306  0.00  0.00    +0.141 C 
ATOM     15  C   UNL     1      36.667 -24.322 -10.579  0.00  0.00    +0.251 C 
ATOM     16  C   UNL     1      40.208 -26.368 -12.728  0.00  0.00    +0.004 C 
ATOM     17  C   UNL     1      39.180 -26.375 -15.381  0.00  0.00    +0.037 C 
ATOM     18  C   UNL     1      40.946 -26.907 -13.790  0.00  0.00    +0.000 C 
ATOM     19  C   UNL     1      40.439 -26.909 -15.092  0.00  0.00    +0.003 C 
ENDROOT
BRANCH   3  21
ATOM     20  S   UNL     1      29.998 -23.159 -15.861  0.00  0.00    -0.019 S 
ATOM     21  C   UNL     1      31.605 -23.007 -16.301  0.00  0.00    +0.135 C 
BRANCH  21  22
ATOM     22  N   UNL     1      31.961 -22.564 -17.550  0.00  0.00    -0.312 N 
ATOM     23  H   UNL     1      31.366 -21.908 -17.977  0.00  0.00    +0.149 HD
BRANCH  22  24
ATOM     24  C   UNL     1      33.134 -22.974 -18.298  0.00  0.00    +0.116 C 
BRANCH  24  27
ATOM     25  O   UNL     1      36.877 -20.152 -19.848  0.00  0.00    -0.435 OA
ATOM     26  O   UNL     1      35.433 -18.781 -21.206  0.00  0.00    -0.435 OA
ATOM     27  C   UNL     1      33.718 -21.841 -19.091  0.00  0.00    +0.001 C 
ATOM     28  C   UNL     1      35.086 -21.597 -19.031  0.00  0.00    +0.038 C 
ATOM     29  C   UNL     1      32.872 -21.048 -19.879  0.00  0.00    +0.001 C 
ATOM     30  C   UNL     1      35.576 -20.545 -19.778  0.00  0.00    +0.176 C 
ATOM     31  C   UNL     1      34.752 -19.763 -20.554  0.00  0.00    +0.176 C 
ATOM     32  C   UNL     1      33.392 -19.989 -20.625  0.00  0.00    +0.040 C 
ATOM     33  C   UNL     1      36.779 -19.035 -20.755  0.00  0.00    +0.429 C 
ENDBRANCH  24  27
ENDBRANCH  22  24
ENDBRANCH  21  22
ENDBRANCH   3  21
TORSDOF 4
ENDMDL
MODEL 8
REMARK VINA RESULT:     -10.1      4.420      7.013
REMARK  Name = 11282283
REMARK  4 active torsions:
REMARK  status: ('A' for Active; 'I' for Inactive)
REMARK    1  A    between atoms: N_3  and  C_21
REMARK    2  A    between atoms: C_21  and  N_22
REMARK    3  A    between atoms: N_22  and  C_24
REMARK    4  A    between atoms: C_24  and  C_27
REMARK                            x       y       z     vdW  Elec       q    Type
REMARK                         _______ _______ _______ _____ _____    ______ ____
ROOT
ATOM      1  O   UNL     1      33.814  -5.123 -24.747  0.00  0.00    -0.466 OA
ATOM      2  N   UNL     1      31.923  -5.843 -22.610  0.00  0.00    -0.290 N 
ATOM      3  N   UNL     1      31.874  -8.415 -21.318  0.00  0.00    -0.288 N 
ATOM      4  N   UNL     1      31.072  -3.627 -22.886  0.00  0.00    -0.230 NA
ATOM      5  N   UNL     1      32.014  -2.080 -24.524  0.00  0.00    -0.245 NA
ATOM      6  C   UNL     1      31.487  -5.974 -21.216  0.00  0.00    +0.113 C 
ATOM      7  C   UNL     1      32.335  -7.053 -23.331  0.00  0.00    +0.113 C 
ATOM      8  C   UNL     1      32.127  -7.197 -20.562  0.00  0.00    +0.114 C 
ATOM      9  C   UNL     1      31.649  -8.287 -22.750  0.00  0.00    +0.114 C 
ATOM     10  C   UNL     1      31.944  -4.598 -23.237  0.00  0.00    +0.152 C 
ATOM     11  C   UNL     1      32.854  -4.312 -24.233  0.00  0.00    +0.258 C 
ATOM     12  C   UNL     1      32.876  -3.072 -24.856  0.00  0.00    +0.106 C 
ATOM     13  C   UNL     1      33.920  -3.124 -25.816  0.00  0.00    +0.051 C 
ATOM     14  C   UNL     1      34.464  -4.403 -25.708  0.00  0.00    +0.141 C 
ATOM     15  C   UNL     1      31.160  -2.444 -23.542  0.00  0.00    +0.251 C 
ATOM     16  C   UNL     1      34.467  -2.239 -26.761  0.00  0.00    +0.004 C 
ATOM     17  C   UNL     1      35.525  -4.865 -26.485  0.00  0.00    +0.037 C 
ATOM     18  C   UNL     1      35.534  -2.678 -27.556  0.00  0.00    +0.000 C 
ATOM     19  C   UNL     1      36.052  -3.968 -27.418  0.00  0.00    +0.003 C 
ENDROOT
BRANCH   3  21
ATOM     20  S   UNL     1      31.768  -9.754 -19.041  0.00  0.00    -0.019 S 
ATOM     21  C   UNL     1      31.849  -9.626 -20.708  0.00  0.00    +0.135 C 
BRANCH  21  22
ATOM     22  N   UNL     1      31.890 -10.742 -21.505  0.00  0.00    -0.312 N 
ATOM     23  H   UNL     1      32.201 -10.619 -22.430  0.00  0.00    +0.149 HD
BRANCH  22  24
ATOM     24  C   UNL     1      31.520 -12.087 -21.109  0.00  0.00    +0.116 C 
BRANCH  24  27
ATOM     25  O   UNL     1      33.849 -14.859 -24.465  0.00  0.00    -0.435 OA
ATOM     26  O   UNL     1      35.296 -15.849 -22.813  0.00  0.00    -0.435 OA
ATOM     27  C   UNL     1      32.544 -13.099 -21.532  0.00  0.00    +0.001 C 
ATOM     28  C   UNL     1      32.644 -13.453 -22.873  0.00  0.00    +0.038 C 
ATOM     29  C   UNL     1      33.383 -13.671 -20.565  0.00  0.00    +0.001 C 
ATOM     30  C   UNL     1      33.601 -14.387 -23.213  0.00  0.00    +0.176 C 
ATOM     31  C   UNL     1      34.428 -14.953 -22.269  0.00  0.00    +0.176 C 
ATOM     32  C   UNL     1      34.343 -14.615 -20.934  0.00  0.00    +0.040 C 
ATOM     33  C   UNL     1      34.924 -15.784 -24.204  0.00  0.00    +0.429 C 
ENDBRANCH  24  27
ENDBRANCH  22  24
ENDBRANCH  21  22
ENDBRANCH   3  21
TORSDOF 4
ENDMDL
MODEL 9
REMARK VINA RESULT:     -10.0      5.911     13.322
REMARK  Name = 11282283
REMARK  4 active torsions:
REMARK  status: ('A' for Active; 'I' for Inactive)
REMARK    1  A    between atoms: N_3  and  C_21
REMARK    2  A    between atoms: C_21  and  N_22
REMARK    3  A    between atoms: N_22  and  C_24
REMARK    4  A    between atoms: C_24  and  C_27
REMARK                            x       y       z     vdW  Elec       q    Type
REMARK                         _______ _______ _______ _____ _____    ______ ____
ROOT
ATOM      1  O   UNL     1      37.534 -24.307 -15.331  0.00  0.00    -0.466 OA
ATOM      2  N   UNL     1      34.977 -23.033 -16.035  0.00  0.00    -0.290 N 
ATOM      3  N   UNL     1      34.483 -21.720 -18.549  0.00  0.00    -0.288 N 
ATOM      4  N   UNL     1      34.256 -23.731 -13.866  0.00  0.00    -0.230 NA
ATOM      5  N   UNL     1      35.727 -24.962 -12.354  0.00  0.00    -0.245 NA
ATOM      6  C   UNL     1      33.629 -22.998 -16.611  0.00  0.00    +0.113 C 
ATOM      7  C   UNL     1      36.068 -22.385 -16.770  0.00  0.00    +0.113 C 
ATOM      8  C   UNL     1      33.694 -22.870 -18.132  0.00  0.00    +0.114 C 
ATOM      9  C   UNL     1      35.532 -21.259 -17.652  0.00  0.00    +0.114 C 
ATOM     10  C   UNL     1      35.215 -23.666 -14.816  0.00  0.00    +0.152 C 
ATOM     11  C   UNL     1      36.433 -24.250 -14.537  0.00  0.00    +0.258 C 
ATOM     12  C   UNL     1      36.670 -24.882 -13.325  0.00  0.00    +0.106 C 
ATOM     13  C   UNL     1      38.005 -25.360 -13.376  0.00  0.00    +0.051 C 
ATOM     14  C   UNL     1      38.490 -24.982 -14.628  0.00  0.00    +0.141 C 
ATOM     15  C   UNL     1      34.567 -24.366 -12.710  0.00  0.00    +0.251 C 
ATOM     16  C   UNL     1      38.857 -26.068 -12.511  0.00  0.00    +0.004 C 
ATOM     17  C   UNL     1      39.778 -25.264 -15.080  0.00  0.00    +0.037 C 
ATOM     18  C   UNL     1      40.158 -26.364 -12.940  0.00  0.00    +0.000 C 
ATOM     19  C   UNL     1      40.608 -25.968 -14.203  0.00  0.00    +0.003 C 
ENDROOT
BRANCH   3  21
ATOM     20  S   UNL     1      32.697 -20.685 -20.199  0.00  0.00    -0.019 S 
ATOM     21  C   UNL     1      34.249 -21.101 -19.733  0.00  0.00    +0.135 C 
BRANCH  21  22
ATOM     22  N   UNL     1      35.329 -20.826 -20.534  0.00  0.00    -0.312 N 
ATOM     23  H   UNL     1      35.719 -21.580 -21.031  0.00  0.00    +0.149 HD
BRANCH  22  24
ATOM     24  C   UNL     1      35.947 -19.528 -20.715  0.00  0.00    +0.116 C 
BRANCH  24  27
ATOM     25  O   UNL     1      34.841 -15.452 -23.273  0.00  0.00    -0.435 OA
ATOM     26  O   UNL     1      33.914 -16.713 -25.105  0.00  0.00    -0.435 OA
ATOM     27  C   UNL     1      35.393 -18.804 -21.909  0.00  0.00    +0.001 C 
ATOM     28  C   UNL     1      35.423 -17.414 -21.941  0.00  0.00    +0.038 C 
ATOM     29  C   UNL     1      34.855 -19.545 -22.971  0.00  0.00    +0.001 C 
ATOM     30  C   UNL     1      34.903 -16.794 -23.059  0.00  0.00    +0.176 C 
ATOM     31  C   UNL     1      34.373 -17.515 -24.106  0.00  0.00    +0.176 C 
ATOM     32  C   UNL     1      34.335 -18.894 -24.091  0.00  0.00    +0.040 C 
ATOM     33  C   UNL     1      34.214 -15.408 -24.572  0.00  0.00    +0.429 C 
ENDBRANCH  24  27
ENDBRANCH  22  24
ENDBRANCH  21  22
ENDBRANCH   3  21
TORSDOF 4
ENDMDL
