MODEL 1
REMARK VINA RESULT:     -11.4      0.000      0.000
REMARK  Name = 24779675
REMARK  4 active torsions:
REMARK  status: ('A' for Active; 'I' for Inactive)
REMARK    1  A    between atoms: N_1  and  C_22
REMARK    2  A    between atoms: N_5  and  C_14
REMARK    3  A    between atoms: C_10  and  C_21
REMARK    4  A    between atoms: C_22  and  C_23
REMARK                            x       y       z     vdW  Elec       q    Type
REMARK                         _______ _______ _______ _____ _____    ______ ____
ROOT
ATOM      1  N   UNL     1      33.885 -22.834 -16.985  0.00  0.00    -0.259 N 
ATOM      2  N   UNL     1      31.964 -23.592 -15.976  0.00  0.00    -0.314 NA
ATOM      3  N   UNL     1      34.062 -23.771 -14.849  0.00  0.00    -0.295 NA
ATOM      4  N   UNL     1      32.160 -24.531 -13.828  0.00  0.00    -0.123 N 
ATOM      5  N   UNL     1      34.217 -24.723 -12.683  0.00  0.00    -0.274 N 
ATOM      6  N   UNL     1      31.473 -25.095 -12.819  0.00  0.00    -0.170 NA
ATOM      7  C   UNL     1      33.265 -23.407 -15.932  0.00  0.00    +0.203 C 
ATOM      8  C   UNL     1      31.391 -24.169 -14.896  0.00  0.00    +0.219 C 
ATOM      9  C   UNL     1      33.531 -24.328 -13.800  0.00  0.00    +0.279 C 
ATOM     10  C   UNL     1      30.104 -24.523 -14.558  0.00  0.00    +0.203 C 
ATOM     11  C   UNL     1      30.216 -25.086 -13.271  0.00  0.00    +0.116 C 
ATOM     12  H   UNL     1      34.858 -22.701 -16.939  0.00  0.00    +0.160 HD
ATOM     13  H   UNL     1      33.686 -25.132 -11.963  0.00  0.00    +0.156 HD
ENDROOT
BRANCH   5  14
ATOM     14  C   UNL     1      35.590 -24.607 -12.459  0.00  0.00    +0.051 C 
ATOM     15  C   UNL     1      36.080 -23.582 -11.649  0.00  0.00    +0.015 C 
ATOM     16  C   UNL     1      36.471 -25.516 -13.044  0.00  0.00    +0.015 C 
ATOM     17  C   UNL     1      37.452 -23.465 -11.426  0.00  0.00    +0.001 C 
ATOM     18  C   UNL     1      37.843 -25.399 -12.819  0.00  0.00    +0.001 C 
ATOM     19  C   UNL     1      38.333 -24.374 -12.010  0.00  0.00    +0.000 C 
ENDBRANCH   5  14
BRANCH  10  21
ATOM     20  N   UNL     1      27.986 -24.204 -15.998  0.00  0.00    -0.195 NA
ATOM     21  C   UNL     1      28.939 -24.347 -15.352  0.00  0.00    +0.087 C 
ENDBRANCH  10  21
BRANCH   1  22
ATOM     22  C   UNL     1      33.191 -22.408 -18.171  0.00  0.00    +0.099 C 
BRANCH  22  23
ATOM     23  C   UNL     1      34.198 -21.904 -19.203  0.00  0.00    +0.020 C 
ATOM     24  C   UNL     1      33.694 -20.615 -19.867  0.00  0.00    +0.002 C 
ATOM     25  C   UNL     1      35.572 -21.685 -18.558  0.00  0.00    +0.002 C 
ATOM     26  C   UNL     1      34.708 -20.061 -20.866  0.00  0.00    +0.000 C 
ATOM     27  C   UNL     1      36.583 -21.129 -19.558  0.00  0.00    +0.000 C 
ATOM     28  C   UNL     1      36.075 -19.853 -20.223  0.00  0.00    +0.000 C 
ENDBRANCH  22  23
ENDBRANCH   1  22
TORSDOF 4
ENDMDL
MODEL 2
REMARK VINA RESULT:     -10.5      1.423      5.575
REMARK  Name = 24779675
REMARK  4 active torsions:
REMARK  status: ('A' for Active; 'I' for Inactive)
REMARK    1  A    between atoms: N_1  and  C_22
REMARK    2  A    between atoms: N_5  and  C_14
REMARK    3  A    between atoms: C_10  and  C_21
REMARK    4  A    between atoms: C_22  and  C_23
REMARK                            x       y       z     vdW  Elec       q    Type
REMARK                         _______ _______ _______ _____ _____    ______ ____
ROOT
ATOM      1  N   UNL     1      34.419 -22.636 -17.465  0.00  0.00    -0.259 N 
ATOM      2  N   UNL     1      35.321 -23.333 -15.470  0.00  0.00    -0.314 NA
ATOM      3  N   UNL     1      32.952 -23.300 -15.768  0.00  0.00    -0.295 NA
ATOM      4  N   UNL     1      33.832 -23.998 -13.774  0.00  0.00    -0.123 N 
ATOM      5  N   UNL     1      31.485 -23.978 -14.034  0.00  0.00    -0.274 N 
ATOM      6  N   UNL     1      33.752 -24.460 -12.513  0.00  0.00    -0.170 NA
ATOM      7  C   UNL     1      34.259 -23.099 -16.207  0.00  0.00    +0.203 C 
ATOM      8  C   UNL     1      35.107 -23.797 -14.217  0.00  0.00    +0.219 C 
ATOM      9  C   UNL     1      32.724 -23.745 -14.567  0.00  0.00    +0.279 C 
ATOM     10  C   UNL     1      35.922 -24.155 -13.167  0.00  0.00    +0.203 C 
ATOM     11  C   UNL     1      35.034 -24.554 -12.148  0.00  0.00    +0.116 C 
ATOM     12  H   UNL     1      33.616 -22.465 -18.006  0.00  0.00    +0.160 HD
ATOM     13  H   UNL     1      31.460 -24.315 -13.110  0.00  0.00    +0.156 HD
ENDROOT
BRANCH   5  14
ATOM     14  C   UNL     1      30.253 -23.789 -14.663  0.00  0.00    +0.051 C 
ATOM     15  C   UNL     1      29.699 -24.813 -15.433  0.00  0.00    +0.015 C 
ATOM     16  C   UNL     1      29.577 -22.577 -14.523  0.00  0.00    +0.015 C 
ATOM     17  C   UNL     1      28.469 -24.624 -16.063  0.00  0.00    +0.001 C 
ATOM     18  C   UNL     1      28.346 -22.389 -15.152  0.00  0.00    +0.001 C 
ATOM     19  C   UNL     1      27.792 -23.412 -15.922  0.00  0.00    +0.000 C 
ENDBRANCH   5  14
BRANCH  10  21
ATOM     20  N   UNL     1      38.502 -24.092 -13.121  0.00  0.00    -0.195 NA
ATOM     21  C   UNL     1      37.342 -24.120 -13.143  0.00  0.00    +0.087 C 
ENDBRANCH  10  21
BRANCH   1  22
ATOM     22  C   UNL     1      35.708 -22.381 -18.052  0.00  0.00    +0.099 C 
BRANCH  22  23
ATOM     23  C   UNL     1      35.535 -21.603 -19.355  0.00  0.00    +0.020 C 
ATOM     24  C   UNL     1      34.120 -21.018 -19.452  0.00  0.00    +0.002 C 
ATOM     25  C   UNL     1      36.592 -20.497 -19.471  0.00  0.00    +0.002 C 
ATOM     26  C   UNL     1      33.937 -20.190 -20.722  0.00  0.00    +0.000 C 
ATOM     27  C   UNL     1      36.406 -19.670 -20.741  0.00  0.00    +0.000 C 
ATOM     28  C   UNL     1      34.995 -19.098 -20.839  0.00  0.00    +0.000 C 
ENDBRANCH  22  23
ENDBRANCH   1  22
TORSDOF 4
ENDMDL
MODEL 3
REMARK VINA RESULT:     -10.3      2.052      5.565
REMARK  Name = 24779675
REMARK  4 active torsions:
REMARK  status: ('A' for Active; 'I' for Inactive)
REMARK    1  A    between atoms: N_1  and  C_22
REMARK    2  A    between atoms: N_5  and  C_14
REMARK    3  A    between atoms: C_10  and  C_21
REMARK    4  A    between atoms: C_22  and  C_23
REMARK                            x       y       z     vdW  Elec       q    Type
REMARK                         _______ _______ _______ _____ _____    ______ ____
ROOT
ATOM      1  N   UNL     1      35.778 -22.290 -16.979  0.00  0.00    -0.259 N 
ATOM      2  N   UNL     1      37.126 -23.554 -15.613  0.00  0.00    -0.314 NA
ATOM      3  N   UNL     1      34.766 -23.497 -15.250  0.00  0.00    -0.295 NA
ATOM      4  N   UNL     1      36.093 -24.763 -13.879  0.00  0.00    -0.123 N 
ATOM      5  N   UNL     1      33.764 -24.730 -13.491  0.00  0.00    -0.274 N 
ATOM      6  N   UNL     1      36.317 -25.600 -12.851  0.00  0.00    -0.170 NA
ATOM      7  C   UNL     1      35.923 -23.130 -15.932  0.00  0.00    +0.203 C 
ATOM      8  C   UNL     1      37.218 -24.395 -14.557  0.00  0.00    +0.219 C 
ATOM      9  C   UNL     1      34.833 -24.304 -14.231  0.00  0.00    +0.279 C 
ATOM     10  C   UNL     1      38.256 -25.042 -13.926  0.00  0.00    +0.203 C 
ATOM     11  C   UNL     1      37.643 -25.767 -12.885  0.00  0.00    +0.116 C 
ATOM     12  H   UNL     1      34.873 -21.981 -17.208  0.00  0.00    +0.160 HD
ATOM     13  H   UNL     1      33.961 -25.342 -12.745  0.00  0.00    +0.156 HD
ENDROOT
BRANCH   5  14
ATOM     14  C   UNL     1      32.424 -24.389 -13.681  0.00  0.00    +0.051 C 
ATOM     15  C   UNL     1      32.077 -23.075 -13.999  0.00  0.00    +0.015 C 
ATOM     16  C   UNL     1      31.431 -25.361 -13.553  0.00  0.00    +0.015 C 
ATOM     17  C   UNL     1      30.738 -22.733 -14.187  0.00  0.00    +0.001 C 
ATOM     18  C   UNL     1      30.092 -25.019 -13.742  0.00  0.00    +0.001 C 
ATOM     19  C   UNL     1      29.745 -23.705 -14.059  0.00  0.00    +0.000 C 
ENDBRANCH   5  14
BRANCH  10  21
ATOM     20  N   UNL     1      40.759 -24.919 -14.548  0.00  0.00    -0.195 NA
ATOM     21  C   UNL     1      39.634 -24.974 -14.267  0.00  0.00    +0.087 C 
ENDBRANCH  10  21
BRANCH   1  22
ATOM     22  C   UNL     1      36.883 -21.825 -17.775  0.00  0.00    +0.099 C 
BRANCH  22  23
ATOM     23  C   UNL     1      36.368 -21.315 -19.120  0.00  0.00    +0.020 C 
ATOM     24  C   UNL     1      34.839 -21.183 -19.100  0.00  0.00    +0.002 C 
ATOM     25  C   UNL     1      37.026 -19.976 -19.480  0.00  0.00    +0.002 C 
ATOM     26  C   UNL     1      34.304 -20.623 -20.416  0.00  0.00    +0.000 C 
ATOM     27  C   UNL     1      36.487 -19.418 -20.795  0.00  0.00    +0.000 C 
ATOM     28  C   UNL     1      34.966 -19.297 -20.775  0.00  0.00    +0.000 C 
ENDBRANCH  22  23
ENDBRANCH   1  22
TORSDOF 4
ENDMDL
MODEL 4
REMARK VINA RESULT:     -10.2      1.687      6.722
REMARK  Name = 24779675
REMARK  4 active torsions:
REMARK  status: ('A' for Active; 'I' for Inactive)
REMARK    1  A    between atoms: N_1  and  C_22
REMARK    2  A    between atoms: N_5  and  C_14
REMARK    3  A    between atoms: C_10  and  C_21
REMARK    4  A    between atoms: C_22  and  C_23
REMARK                            x       y       z     vdW  Elec       q    Type
REMARK                         _______ _______ _______ _____ _____    ______ ____
ROOT
ATOM      1  N   UNL     1      32.202 -23.831 -14.598  0.00  0.00    -0.259 N 
ATOM      2  N   UNL     1      33.948 -24.011 -13.116  0.00  0.00    -0.314 NA
ATOM      3  N   UNL     1      34.316 -23.120 -15.301  0.00  0.00    -0.295 NA
ATOM      4  N   UNL     1      36.068 -23.290 -13.838  0.00  0.00    -0.123 N 
ATOM      5  N   UNL     1      36.468 -22.404 -15.990  0.00  0.00    -0.274 N 
ATOM      6  N   UNL     1      37.355 -23.152 -13.472  0.00  0.00    -0.170 NA
ATOM      7  C   UNL     1      33.508 -23.662 -14.305  0.00  0.00    +0.203 C 
ATOM      8  C   UNL     1      35.265 -23.820 -12.871  0.00  0.00    +0.219 C 
ATOM      9  C   UNL     1      35.585 -22.929 -15.086  0.00  0.00    +0.279 C 
ATOM     10  C   UNL     1      36.089 -24.044 -11.791  0.00  0.00    +0.203 C 
ATOM     11  C   UNL     1      37.361 -23.614 -12.219  0.00  0.00    +0.116 C 
ATOM     12  H   UNL     1      31.885 -23.566 -15.491  0.00  0.00    +0.160 HD
ATOM     13  H   UNL     1      37.403 -22.316 -15.693  0.00  0.00    +0.156 HD
ENDROOT
BRANCH   5  14
ATOM     14  C   UNL     1      36.185 -21.981 -17.290  0.00  0.00    +0.051 C 
ATOM     15  C   UNL     1      37.117 -21.218 -17.994  0.00  0.00    +0.015 C 
ATOM     16  C   UNL     1      34.969 -22.319 -17.884  0.00  0.00    +0.015 C 
ATOM     17  C   UNL     1      36.833 -20.794 -19.293  0.00  0.00    +0.001 C 
ATOM     18  C   UNL     1      34.686 -21.895 -19.183  0.00  0.00    +0.001 C 
ATOM     19  C   UNL     1      35.618 -21.132 -19.887  0.00  0.00    +0.000 C 
ENDBRANCH   5  14
BRANCH  10  21
ATOM     20  N   UNL     1      35.406 -25.036  -9.508  0.00  0.00    -0.195 NA
ATOM     21  C   UNL     1      35.714 -24.590 -10.534  0.00  0.00    +0.087 C 
ENDBRANCH  10  21
BRANCH   1  22
ATOM     22  C   UNL     1      31.250 -24.380 -13.668  0.00  0.00    +0.099 C 
BRANCH  22  23
ATOM     23  C   UNL     1      29.834 -24.183 -14.206  0.00  0.00    +0.020 C 
ATOM     24  C   UNL     1      29.534 -22.691 -14.407  0.00  0.00    +0.002 C 
ATOM     25  C   UNL     1      29.637 -24.960 -15.514  0.00  0.00    +0.002 C 
ATOM     26  C   UNL     1      28.142 -22.470 -14.995  0.00  0.00    +0.000 C 
ATOM     27  C   UNL     1      28.245 -24.735 -16.100  0.00  0.00    +0.000 C 
ATOM     28  C   UNL     1      27.946 -23.251 -16.290  0.00  0.00    +0.000 C 
ENDBRANCH  22  23
ENDBRANCH   1  22
TORSDOF 4
ENDMDL
MODEL 5
REMARK VINA RESULT:      -9.8      1.674      7.121
REMARK  Name = 24779675
REMARK  4 active torsions:
REMARK  status: ('A' for Active; 'I' for Inactive)
REMARK    1  A    between atoms: N_1  and  C_22
REMARK    2  A    between atoms: N_5  and  C_14
REMARK    3  A    between atoms: C_10  and  C_21
REMARK    4  A    between atoms: C_22  and  C_23
REMARK                            x       y       z     vdW  Elec       q    Type
REMARK                         _______ _______ _______ _____ _____    ______ ____
ROOT
ATOM      1  N   UNL     1      32.579 -23.795 -15.158  0.00  0.00    -0.259 N 
ATOM      2  N   UNL     1      34.605 -24.323 -14.211  0.00  0.00    -0.314 NA
ATOM      3  N   UNL     1      34.518 -23.028 -16.217  0.00  0.00    -0.295 NA
ATOM      4  N   UNL     1      36.546 -23.543 -15.287  0.00  0.00    -0.123 N 
ATOM      5  N   UNL     1      36.498 -22.261 -17.270  0.00  0.00    -0.274 N 
ATOM      6  N   UNL     1      37.889 -23.522 -15.231  0.00  0.00    -0.170 NA
ATOM      7  C   UNL     1      33.927 -23.730 -15.170  0.00  0.00    +0.203 C 
ATOM      8  C   UNL     1      35.953 -24.228 -14.267  0.00  0.00    +0.219 C 
ATOM      9  C   UNL     1      35.814 -22.926 -16.289  0.00  0.00    +0.279 C 
ATOM     10  C   UNL     1      36.987 -24.689 -13.484  0.00  0.00    +0.203 C 
ATOM     11  C   UNL     1      38.153 -24.224 -14.125  0.00  0.00    +0.116 C 
ATOM     12  H   UNL     1      32.083 -23.348 -15.881  0.00  0.00    +0.160 HD
ATOM     13  H   UNL     1      37.480 -22.265 -17.201  0.00  0.00    +0.156 HD
ENDROOT
BRANCH   5  14
ATOM     14  C   UNL     1      35.952 -21.579 -18.359  0.00  0.00    +0.051 C 
ATOM     15  C   UNL     1      34.601 -21.733 -18.671  0.00  0.00    +0.015 C 
ATOM     16  C   UNL     1      36.757 -20.743 -19.134  0.00  0.00    +0.015 C 
ATOM     17  C   UNL     1      34.055 -21.052 -19.760  0.00  0.00    +0.001 C 
ATOM     18  C   UNL     1      36.210 -20.062 -20.221  0.00  0.00    +0.001 C 
ATOM     19  C   UNL     1      34.859 -20.217 -20.535  0.00  0.00    +0.000 C 
ENDBRANCH   5  14
BRANCH  10  21
ATOM     20  N   UNL     1      36.785 -26.091 -11.326  0.00  0.00    -0.195 NA
ATOM     21  C   UNL     1      36.875 -25.461 -12.297  0.00  0.00    +0.087 C 
ENDBRANCH  10  21
BRANCH   1  22
ATOM     22  C   UNL     1      31.831 -24.486 -14.141  0.00  0.00    +0.099 C 
BRANCH  22  23
ATOM     23  C   UNL     1      30.339 -24.217 -14.327  0.00  0.00    +0.020 C 
ATOM     24  C   UNL     1      30.067 -22.710 -14.417  0.00  0.00    +0.002 C 
ATOM     25  C   UNL     1      29.809 -24.943 -15.571  0.00  0.00    +0.002 C 
ATOM     26  C   UNL     1      28.588 -22.416 -14.658  0.00  0.00    +0.000 C 
ATOM     27  C   UNL     1      28.330 -24.646 -15.810  0.00  0.00    +0.000 C 
ATOM     28  C   UNL     1      28.062 -23.146 -15.889  0.00  0.00    +0.000 C 
ENDBRANCH  22  23
ENDBRANCH   1  22
TORSDOF 4
ENDMDL
MODEL 6
REMARK VINA RESULT:      -9.6      1.817      7.125
REMARK  Name = 24779675
REMARK  4 active torsions:
REMARK  status: ('A' for Active; 'I' for Inactive)
REMARK    1  A    between atoms: N_1  and  C_22
REMARK    2  A    between atoms: N_5  and  C_14
REMARK    3  A    between atoms: C_10  and  C_21
REMARK    4  A    between atoms: C_22  and  C_23
REMARK                            x       y       z     vdW  Elec       q    Type
REMARK                         _______ _______ _______ _____ _____    ______ ____
ROOT
ATOM      1  N   UNL     1      35.836 -23.538 -15.301  0.00  0.00    -0.259 N 
ATOM      2  N   UNL     1      35.481 -22.363 -17.243  0.00  0.00    -0.314 NA
ATOM      3  N   UNL     1      33.637 -23.321 -16.067  0.00  0.00    -0.295 NA
ATOM      4  N   UNL     1      33.263 -22.153 -18.000  0.00  0.00    -0.123 N 
ATOM      5  N   UNL     1      31.416 -23.087 -16.862  0.00  0.00    -0.274 N 
ATOM      6  N   UNL     1      32.487 -21.638 -18.969  0.00  0.00    -0.170 NA
ATOM      7  C   UNL     1      34.993 -23.053 -16.236  0.00  0.00    +0.203 C 
ATOM      8  C   UNL     1      34.594 -21.897 -18.153  0.00  0.00    +0.219 C 
ATOM      9  C   UNL     1      32.767 -22.883 -16.931  0.00  0.00    +0.279 C 
ATOM     10  C   UNL     1      34.696 -21.157 -19.309  0.00  0.00    +0.203 C 
ATOM     11  C   UNL     1      33.369 -21.029 -19.767  0.00  0.00    +0.116 C 
ATOM     12  H   UNL     1      35.458 -24.052 -14.552  0.00  0.00    +0.160 HD
ATOM     13  H   UNL     1      30.875 -22.698 -17.587  0.00  0.00    +0.156 HD
ENDROOT
BRANCH   5  14
ATOM     14  C   UNL     1      30.723 -23.789 -15.874  0.00  0.00    +0.051 C 
ATOM     15  C   UNL     1      31.410 -24.312 -14.779  0.00  0.00    +0.015 C 
ATOM     16  C   UNL     1      29.344 -23.967 -15.983  0.00  0.00    +0.015 C 
ATOM     17  C   UNL     1      30.719 -25.014 -13.792  0.00  0.00    +0.001 C 
ATOM     18  C   UNL     1      28.652 -24.669 -14.995  0.00  0.00    +0.001 C 
ATOM     19  C   UNL     1      29.339 -25.193 -13.900  0.00  0.00    +0.000 C 
ENDBRANCH   5  14
BRANCH  10  21
ATOM     20  N   UNL     1      36.861 -20.232 -20.367  0.00  0.00    -0.195 NA
ATOM     21  C   UNL     1      35.888 -20.649 -19.891  0.00  0.00    +0.087 C 
ENDBRANCH  10  21
BRANCH   1  22
ATOM     22  C   UNL     1      37.261 -23.340 -15.346  0.00  0.00    +0.099 C 
BRANCH  22  23
ATOM     23  C   UNL     1      37.908 -23.983 -14.120  0.00  0.00    +0.020 C 
ATOM     24  C   UNL     1      37.226 -23.502 -12.832  0.00  0.00    +0.002 C 
ATOM     25  C   UNL     1      37.863 -25.513 -14.224  0.00  0.00    +0.002 C 
ATOM     26  C   UNL     1      37.820 -24.172 -11.595  0.00  0.00    +0.000 C 
ATOM     27  C   UNL     1      38.456 -26.180 -12.984  0.00  0.00    +0.000 C 
ATOM     28  C   UNL     1      37.781 -25.693 -11.705  0.00  0.00    +0.000 C 
ENDBRANCH  22  23
ENDBRANCH   1  22
TORSDOF 4
ENDMDL
