MODEL 1
REMARK VINA RESULT:     -12.0      0.000      0.000
REMARK  Name = 446129
REMARK  7 active torsions:
REMARK  status: ('A' for Active; 'I' for Inactive)
REMARK    1  A    between atoms: C_1  and  O_2
REMARK    2  A    between atoms: C_1  and  C_4
REMARK    3  A    between atoms: C_1  and  C_18
REMARK    4  A    between atoms: C_4  and  N_5
REMARK    5  A    between atoms: C_18  and  O_19
REMARK    6  A    between atoms: O_19  and  C_23
REMARK    7  A    between atoms: C_20  and  C_26
REMARK                            x       y       z     vdW  Elec       q    Type
REMARK                         _______ _______ _______ _____ _____    ______ ____
ROOT
ATOM      1  C   UNL     1      33.806 -15.293 -23.845  0.00  0.00    +0.133 C 
ENDROOT
BRANCH   1   2
ATOM      2  O   UNL     1      33.080 -14.855 -24.996  0.00  0.00    -0.383 OA
ATOM      3  H   UNL     1      32.179 -14.609 -24.736  0.00  0.00    +0.210 HD
ENDBRANCH   1   2
BRANCH   1   4
ATOM      4  C   UNL     1      35.053 -16.040 -24.323  0.00  0.00    -0.043 C 
BRANCH   4   5
ATOM      5  N   UNL     1      35.316 -17.239 -23.527  0.00  0.00    +0.391 N 
ATOM      6  N   UNL     1      34.856 -19.140 -21.446  0.00  0.00    -0.298 N 
ATOM      7  C   UNL     1      34.184 -18.170 -23.608  0.00  0.00    -0.055 C 
ATOM      8  C   UNL     1      35.570 -16.881 -22.127  0.00  0.00    -0.055 C 
ATOM      9  C   UNL     1      34.470 -19.453 -22.825  0.00  0.00    +0.069 C 
ATOM     10  C   UNL     1      35.903 -18.122 -21.294  0.00  0.00    +0.069 C 
ATOM     11  H   UNL     1      36.146 -17.696 -23.906  0.00  0.00    -0.079 HD
ATOM     12  N   UNL     1      35.852 -20.522 -19.759  0.00  0.00    -0.229 NA
ATOM     13  C   UNL     1      34.743 -20.120 -20.453  0.00  0.00    +0.132 C 
ATOM     14  C   UNL     1      33.479 -20.669 -20.196  0.00  0.00    +0.034 C 
ATOM     15  C   UNL     1      33.352 -21.645 -19.214  0.00  0.00    +0.004 C 
ATOM     16  C   UNL     1      35.690 -21.472 -18.811  0.00  0.00    +0.100 C 
ATOM     17  C   UNL     1      34.473 -22.059 -18.503  0.00  0.00    +0.021 C 
ENDBRANCH   4   5
ENDBRANCH   1   4
BRANCH   1  18
ATOM     18  C   UNL     1      34.127 -14.077 -22.977  0.00  0.00    +0.232 C 
BRANCH  18  19
ATOM     19  O   UNL     1      32.952 -13.694 -22.268  0.00  0.00    -0.473 OA
BRANCH  19  23
ATOM     20  C   UNL     1      32.041  -9.645 -22.216  0.00  0.00    -0.022 C 
ATOM     21  C   UNL     1      31.454 -10.504 -21.287  0.00  0.00    -0.001 C 
ATOM     22  C   UNL     1      32.934 -10.148 -23.163  0.00  0.00    -0.001 C 
ATOM     23  C   UNL     1      32.651 -12.359 -22.251  0.00  0.00    +0.139 C 
ATOM     24  C   UNL     1      31.760 -11.865 -21.304  0.00  0.00    +0.037 C 
ATOM     25  C   UNL     1      33.239 -11.509 -23.181  0.00  0.00    +0.037 C 
BRANCH  20  26
ATOM     26  C   UNL     1      31.707  -8.166 -22.198  0.00  0.00    +0.022 C 
ATOM     27  C   UNL     1      32.620  -7.382 -21.238  0.00  0.00    +0.004 C 
ATOM     28  C   UNL     1      31.738  -7.554 -23.609  0.00  0.00    +0.004 C 
ATOM     29  C   UNL     1      32.269  -5.896 -21.220  0.00  0.00    +0.000 C 
ATOM     30  C   UNL     1      31.391  -6.066 -23.582  0.00  0.00    +0.000 C 
ATOM     31  C   UNL     1      32.293  -5.295 -22.623  0.00  0.00    +0.000 C 
ENDBRANCH  20  26
ENDBRANCH  19  23
ENDBRANCH  18  19
ENDBRANCH   1  18
TORSDOF 7
ENDMDL
MODEL 2
REMARK VINA RESULT:     -12.0      3.012     11.303
REMARK  Name = 446129
REMARK  7 active torsions:
REMARK  status: ('A' for Active; 'I' for Inactive)
REMARK    1  A    between atoms: C_1  and  O_2
REMARK    2  A    between atoms: C_1  and  C_4
REMARK    3  A    between atoms: C_1  and  C_18
REMARK    4  A    between atoms: C_4  and  N_5
REMARK    5  A    between atoms: C_18  and  O_19
REMARK    6  A    between atoms: O_19  and  C_23
REMARK    7  A    between atoms: C_20  and  C_26
REMARK                            x       y       z     vdW  Elec       q    Type
REMARK                         _______ _______ _______ _____ _____    ______ ____
ROOT
ATOM      1  C   UNL     1      35.677 -18.029 -21.984  0.00  0.00    +0.133 C 
ENDROOT
BRANCH   1   2
ATOM      2  O   UNL     1      37.071 -18.298 -22.156  0.00  0.00    -0.383 OA
ATOM      3  H   UNL     1      37.215 -18.722 -23.017  0.00  0.00    +0.210 HD
ENDBRANCH   1   2
BRANCH   1   4
ATOM      4  C   UNL     1      35.157 -17.370 -23.264  0.00  0.00    -0.043 C 
BRANCH   4   5
ATOM      5  N   UNL     1      34.925 -15.936 -23.089  0.00  0.00    +0.391 N 
ATOM      6  N   UNL     1      33.417 -13.598 -22.445  0.00  0.00    -0.298 N 
ATOM      7  C   UNL     1      34.580 -15.635 -21.695  0.00  0.00    -0.055 C 
ATOM      8  C   UNL     1      33.853 -15.476 -23.980  0.00  0.00    -0.055 C 
ATOM      9  C   UNL     1      34.390 -14.131 -21.487  0.00  0.00    +0.069 C 
ATOM     10  C   UNL     1      33.639 -13.966 -23.849  0.00  0.00    +0.069 C 
ATOM     11  H   UNL     1      35.786 -15.444 -23.329  0.00  0.00    -0.079 HD
ATOM     12  N   UNL     1      32.907 -11.333 -23.043  0.00  0.00    -0.229 NA
ATOM     13  C   UNL     1      32.772 -12.384 -22.178  0.00  0.00    +0.132 C 
ATOM     14  C   UNL     1      31.998 -12.281 -21.014  0.00  0.00    +0.034 C 
ATOM     15  C   UNL     1      31.352 -11.082 -20.735  0.00  0.00    +0.004 C 
ATOM     16  C   UNL     1      32.265 -10.183 -22.739  0.00  0.00    +0.100 C 
ATOM     17  C   UNL     1      31.483 -10.008 -21.608  0.00  0.00    +0.021 C 
ENDBRANCH   4   5
ENDBRANCH   1   4
BRANCH   1  18
ATOM     18  C   UNL     1      34.964 -19.338 -21.646  0.00  0.00    +0.232 C 
BRANCH  18  19
ATOM     19  O   UNL     1      35.803 -20.112 -20.795  0.00  0.00    -0.473 OA
BRANCH  19  23
ATOM     20  C   UNL     1      33.915 -22.382 -17.878  0.00  0.00    -0.022 C 
ATOM     21  C   UNL     1      33.156 -21.670 -18.807  0.00  0.00    -0.001 C 
ATOM     22  C   UNL     1      35.308 -22.329 -17.928  0.00  0.00    -0.001 C 
ATOM     23  C   UNL     1      35.180 -20.860 -19.833  0.00  0.00    +0.139 C 
ATOM     24  C   UNL     1      33.791 -20.908 -19.788  0.00  0.00    +0.037 C 
ATOM     25  C   UNL     1      35.942 -21.566 -18.908  0.00  0.00    +0.037 C 
BRANCH  20  26
ATOM     26  C   UNL     1      33.224 -23.210 -16.810  0.00  0.00    +0.022 C 
ATOM     27  C   UNL     1      33.971 -23.152 -15.466  0.00  0.00    +0.004 C 
ATOM     28  C   UNL     1      31.750 -22.808 -16.639  0.00  0.00    +0.004 C 
ATOM     29  C   UNL     1      33.273 -23.997 -14.402  0.00  0.00    +0.000 C 
ATOM     30  C   UNL     1      31.060 -23.654 -15.569  0.00  0.00    +0.000 C 
ATOM     31  C   UNL     1      31.808 -23.601 -14.241  0.00  0.00    +0.000 C 
ENDBRANCH  20  26
ENDBRANCH  19  23
ENDBRANCH  18  19
ENDBRANCH   1  18
TORSDOF 7
ENDMDL
MODEL 3
REMARK VINA RESULT:     -11.8      3.025     11.408
REMARK  Name = 446129
REMARK  7 active torsions:
REMARK  status: ('A' for Active; 'I' for Inactive)
REMARK    1  A    between atoms: C_1  and  O_2
REMARK    2  A    between atoms: C_1  and  C_4
REMARK    3  A    between atoms: C_1  and  C_18
REMARK    4  A    between atoms: C_4  and  N_5
REMARK    5  A    between atoms: C_18  and  O_19
REMARK    6  A    between atoms: O_19  and  C_23
REMARK    7  A    between atoms: C_20  and  C_26
REMARK                            x       y       z     vdW  Elec       q    Type
REMARK                         _______ _______ _______ _____ _____    ______ ____
ROOT
ATOM      1  C   UNL     1      35.710 -18.125 -22.031  0.00  0.00    +0.133 C 
ENDROOT
BRANCH   1   2
ATOM      2  O   UNL     1      37.093 -18.471 -22.141  0.00  0.00    -0.383 OA
ATOM      3  H   UNL     1      37.183 -19.436 -22.179  0.00  0.00    +0.210 HD
ENDBRANCH   1   2
BRANCH   1   4
ATOM      4  C   UNL     1      35.238 -17.606 -23.391  0.00  0.00    -0.043 C 
BRANCH   4   5
ATOM      5  N   UNL     1      34.379 -16.429 -23.263  0.00  0.00    +0.391 N 
ATOM      6  N   UNL     1      33.761 -13.640 -23.245  0.00  0.00    -0.298 N 
ATOM      7  C   UNL     1      34.363 -15.663 -24.515  0.00  0.00    -0.055 C 
ATOM      8  C   UNL     1      34.837 -15.575 -22.161  0.00  0.00    -0.055 C 
ATOM      9  C   UNL     1      33.423 -14.460 -24.413  0.00  0.00    +0.069 C 
ATOM     10  C   UNL     1      33.912 -14.369 -21.979  0.00  0.00    +0.069 C 
ATOM     11  H   UNL     1      33.431 -16.748 -23.060  0.00  0.00    -0.079 HD
ATOM     12  N   UNL     1      32.533 -11.883 -22.172  0.00  0.00    -0.229 NA
ATOM     13  C   UNL     1      33.346 -12.305 -23.189  0.00  0.00    +0.132 C 
ATOM     14  C   UNL     1      33.780 -11.428 -24.193  0.00  0.00    +0.034 C 
ATOM     15  C   UNL     1      33.375 -10.098 -24.152  0.00  0.00    +0.004 C 
ATOM     16  C   UNL     1      32.160 -10.583 -22.166  0.00  0.00    +0.100 C 
ATOM     17  C   UNL     1      32.550  -9.660 -23.122  0.00  0.00    +0.021 C 
ENDBRANCH   4   5
ENDBRANCH   1   4
BRANCH   1  18
ATOM     18  C   UNL     1      34.936 -19.351 -21.550  0.00  0.00    +0.232 C 
BRANCH  18  19
ATOM     19  O   UNL     1      35.786 -20.136 -20.720  0.00  0.00    -0.473 OA
BRANCH  19  23
ATOM     20  C   UNL     1      33.940 -22.416 -17.784  0.00  0.00    -0.022 C 
ATOM     21  C   UNL     1      33.169 -21.736 -18.726  0.00  0.00    -0.001 C 
ATOM     22  C   UNL     1      35.331 -22.329 -17.828  0.00  0.00    -0.001 C 
ATOM     23  C   UNL     1      35.177 -20.887 -19.751  0.00  0.00    +0.139 C 
ATOM     24  C   UNL     1      33.789 -20.970 -19.713  0.00  0.00    +0.037 C 
ATOM     25  C   UNL     1      35.951 -21.562 -18.814  0.00  0.00    +0.037 C 
BRANCH  20  26
ATOM     26  C   UNL     1      33.265 -23.248 -16.710  0.00  0.00    +0.022 C 
ATOM     27  C   UNL     1      34.007 -23.162 -15.365  0.00  0.00    +0.004 C 
ATOM     28  C   UNL     1      31.781 -22.875 -16.545  0.00  0.00    +0.004 C 
ATOM     29  C   UNL     1      33.324 -24.010 -14.293  0.00  0.00    +0.000 C 
ATOM     30  C   UNL     1      31.107 -23.725 -15.468  0.00  0.00    +0.000 C 
ATOM     31  C   UNL     1      31.851 -23.643 -14.139  0.00  0.00    +0.000 C 
ENDBRANCH  20  26
ENDBRANCH  19  23
ENDBRANCH  18  19
ENDBRANCH   1  18
TORSDOF 7
ENDMDL
MODEL 4
REMARK VINA RESULT:     -11.6      2.820     11.131
REMARK  Name = 446129
REMARK  7 active torsions:
REMARK  status: ('A' for Active; 'I' for Inactive)
REMARK    1  A    between atoms: C_1  and  O_2
REMARK    2  A    between atoms: C_1  and  C_4
REMARK    3  A    between atoms: C_1  and  C_18
REMARK    4  A    between atoms: C_4  and  N_5
REMARK    5  A    between atoms: C_18  and  O_19
REMARK    6  A    between atoms: O_19  and  C_23
REMARK    7  A    between atoms: C_20  and  C_26
REMARK                            x       y       z     vdW  Elec       q    Type
REMARK                         _______ _______ _______ _____ _____    ______ ____
ROOT
ATOM      1  C   UNL     1      33.807 -14.412 -24.461  0.00  0.00    +0.133 C 
ENDROOT
BRANCH   1   2
ATOM      2  O   UNL     1      32.754 -14.160 -25.395  0.00  0.00    -0.383 OA
ATOM      3  H   UNL     1      32.604 -13.205 -25.464  0.00  0.00    +0.210 HD
ENDBRANCH   1   2
BRANCH   1   4
ATOM      4  C   UNL     1      33.405 -13.805 -23.115  0.00  0.00    -0.043 C 
BRANCH   4   5
ATOM      5  N   UNL     1      32.859 -12.455 -23.261  0.00  0.00    +0.391 N 
ATOM      6  N   UNL     1      32.683  -9.646 -22.774  0.00  0.00    -0.298 N 
ATOM      7  C   UNL     1      33.875 -11.543 -23.799  0.00  0.00    -0.055 C 
ATOM      8  C   UNL     1      32.372 -11.955 -21.969  0.00  0.00    -0.055 C 
ATOM      9  C   UNL     1      33.299 -10.141 -24.010  0.00  0.00    +0.069 C 
ATOM     10  C   UNL     1      31.746 -10.566 -22.119  0.00  0.00    +0.069 C 
ATOM     11  H   UNL     1      32.075 -12.499 -23.913  0.00  0.00    -0.079 HD
ATOM     12  N   UNL     1      31.225  -7.780 -22.405  0.00  0.00    -0.229 NA
ATOM     13  C   UNL     1      32.487  -8.272 -22.597  0.00  0.00    +0.132 C 
ATOM     14  C   UNL     1      33.607  -7.428 -22.625  0.00  0.00    +0.034 C 
ATOM     15  C   UNL     1      33.428  -6.060 -22.452  0.00  0.00    +0.004 C 
ATOM     16  C   UNL     1      31.090  -6.445 -22.240  0.00  0.00    +0.100 C 
ATOM     17  C   UNL     1      32.149  -5.551 -22.255  0.00  0.00    +0.021 C 
ENDBRANCH   4   5
ENDBRANCH   1   4
BRANCH   1  18
ATOM     18  C   UNL     1      34.052 -15.919 -24.394  0.00  0.00    +0.232 C 
BRANCH  18  19
ATOM     19  O   UNL     1      35.186 -16.165 -23.569  0.00  0.00    -0.473 OA
BRANCH  19  23
ATOM     20  C   UNL     1      35.054 -19.553 -21.176  0.00  0.00    -0.022 C 
ATOM     21  C   UNL     1      34.547 -19.597 -22.474  0.00  0.00    -0.001 C 
ATOM     22  C   UNL     1      35.605 -18.371 -20.681  0.00  0.00    -0.001 C 
ATOM     23  C   UNL     1      35.142 -17.282 -22.779  0.00  0.00    +0.139 C 
ATOM     24  C   UNL     1      34.591 -18.458 -23.279  0.00  0.00    +0.037 C 
ATOM     25  C   UNL     1      35.648 -17.232 -21.485  0.00  0.00    +0.037 C 
BRANCH  20  26
ATOM     26  C   UNL     1      35.005 -20.792 -20.301  0.00  0.00    +0.022 C 
ATOM     27  C   UNL     1      36.118 -20.789 -19.238  0.00  0.00    +0.004 C 
ATOM     28  C   UNL     1      33.623 -20.978 -19.650  0.00  0.00    +0.004 C 
ATOM     29  C   UNL     1      36.065 -22.045 -18.369  0.00  0.00    +0.000 C 
ATOM     30  C   UNL     1      33.580 -22.233 -18.779  0.00  0.00    +0.000 C 
ATOM     31  C   UNL     1      34.690 -22.230 -17.732  0.00  0.00    +0.000 C 
ENDBRANCH  20  26
ENDBRANCH  19  23
ENDBRANCH  18  19
ENDBRANCH   1  18
TORSDOF 7
ENDMDL
MODEL 5
REMARK VINA RESULT:     -10.8      6.666     10.113
REMARK  Name = 446129
REMARK  7 active torsions:
REMARK  status: ('A' for Active; 'I' for Inactive)
REMARK    1  A    between atoms: C_1  and  O_2
REMARK    2  A    between atoms: C_1  and  C_4
REMARK    3  A    between atoms: C_1  and  C_18
REMARK    4  A    between atoms: C_4  and  N_5
REMARK    5  A    between atoms: C_18  and  O_19
REMARK    6  A    between atoms: O_19  and  C_23
REMARK    7  A    between atoms: C_20  and  C_26
REMARK                            x       y       z     vdW  Elec       q    Type
REMARK                         _______ _______ _______ _____ _____    ______ ____
ROOT
ATOM      1  C   UNL     1      37.314 -22.795 -15.640  0.00  0.00    +0.133 C 
ENDROOT
BRANCH   1   2
ATOM      2  O   UNL     1      37.662 -22.214 -14.381  0.00  0.00    -0.383 OA
ATOM      3  H   UNL     1      38.327 -21.522 -14.517  0.00  0.00    +0.210 HD
ENDBRANCH   1   2
BRANCH   1   4
ATOM      4  C   UNL     1      36.269 -23.885 -15.391  0.00  0.00    -0.043 C 
BRANCH   4   5
ATOM      5  N   UNL     1      34.904 -23.361 -15.442  0.00  0.00    +0.391 N 
ATOM      6  N   UNL     1      32.052 -23.513 -15.489  0.00  0.00    -0.298 N 
ATOM      7  C   UNL     1      34.160 -23.740 -14.235  0.00  0.00    -0.055 C 
ATOM      8  C   UNL     1      34.207 -23.857 -16.635  0.00  0.00    -0.055 C 
ATOM      9  C   UNL     1      32.748 -23.150 -14.250  0.00  0.00    +0.069 C 
ATOM     10  C   UNL     1      32.796 -23.270 -16.731  0.00  0.00    +0.069 C 
ATOM     11  H   UNL     1      34.957 -22.343 -15.491  0.00  0.00    -0.079 HD
ATOM     12  N   UNL     1      30.031 -22.649 -16.444  0.00  0.00    -0.229 NA
ATOM     13  C   UNL     1      30.654 -23.464 -15.540  0.00  0.00    +0.132 C 
ATOM     14  C   UNL     1      29.925 -24.264 -14.649  0.00  0.00    +0.034 C 
ATOM     15  C   UNL     1      28.536 -24.226 -14.687  0.00  0.00    +0.004 C 
ATOM     16  C   UNL     1      28.679 -22.638 -16.452  0.00  0.00    +0.100 C 
ATOM     17  C   UNL     1      27.893 -23.401 -15.603  0.00  0.00    +0.021 C 
ENDBRANCH   4   5
ENDBRANCH   1   4
BRANCH   1  18
ATOM     18  C   UNL     1      36.821 -21.687 -16.571  0.00  0.00    +0.232 C 
BRANCH  18  19
ATOM     19  O   UNL     1      36.610 -22.236 -17.868  0.00  0.00    -0.473 OA
BRANCH  19  23
ATOM     20  C   UNL     1      35.187 -19.642 -20.779  0.00  0.00    -0.022 C 
ATOM     21  C   UNL     1      34.317 -20.537 -20.157  0.00  0.00    -0.001 C 
ATOM     22  C   UNL     1      36.535 -19.619 -20.423  0.00  0.00    -0.001 C 
ATOM     23  C   UNL     1      36.140 -21.381 -18.828  0.00  0.00    +0.139 C 
ATOM     24  C   UNL     1      34.794 -21.409 -19.179  0.00  0.00    +0.037 C 
ATOM     25  C   UNL     1      37.013 -20.492 -19.445  0.00  0.00    +0.037 C 
BRANCH  20  26
ATOM     26  C   UNL     1      34.667 -18.695 -21.844  0.00  0.00    +0.022 C 
ATOM     27  C   UNL     1      35.471 -17.383 -21.888  0.00  0.00    +0.004 C 
ATOM     28  C   UNL     1      34.622 -19.360 -23.230  0.00  0.00    +0.004 C 
ATOM     29  C   UNL     1      34.933 -16.434 -22.957  0.00  0.00    +0.000 C 
ATOM     30  C   UNL     1      34.088 -18.403 -24.293  0.00  0.00    +0.000 C 
ATOM     31  C   UNL     1      34.882 -17.101 -24.329  0.00  0.00    +0.000 C 
ENDBRANCH  20  26
ENDBRANCH  19  23
ENDBRANCH  18  19
ENDBRANCH   1  18
TORSDOF 7
ENDMDL
MODEL 6
REMARK VINA RESULT:     -10.8      2.681     11.223
REMARK  Name = 446129
REMARK  7 active torsions:
REMARK  status: ('A' for Active; 'I' for Inactive)
REMARK    1  A    between atoms: C_1  and  O_2
REMARK    2  A    between atoms: C_1  and  C_4
REMARK    3  A    between atoms: C_1  and  C_18
REMARK    4  A    between atoms: C_4  and  N_5
REMARK    5  A    between atoms: C_18  and  O_19
REMARK    6  A    between atoms: O_19  and  C_23
REMARK    7  A    between atoms: C_20  and  C_26
REMARK                            x       y       z     vdW  Elec       q    Type
REMARK                         _______ _______ _______ _____ _____    ______ ____
ROOT
ATOM      1  C   UNL     1      34.742 -15.713 -24.061  0.00  0.00    +0.133 C 
ENDROOT
BRANCH   1   2
ATOM      2  O   UNL     1      34.642 -16.696 -25.095  0.00  0.00    -0.383 OA
ATOM      3  H   UNL     1      33.901 -17.291 -24.905  0.00  0.00    +0.210 HD
ENDBRANCH   1   2
BRANCH   1   4
ATOM      4  C   UNL     1      33.446 -14.898 -24.051  0.00  0.00    -0.043 C 
BRANCH   4   5
ATOM      5  N   UNL     1      33.665 -13.522 -23.606  0.00  0.00    +0.391 N 
ATOM      6  N   UNL     1      33.047 -10.750 -23.302  0.00  0.00    -0.298 N 
ATOM      7  C   UNL     1      32.590 -13.095 -22.703  0.00  0.00    -0.055 C 
ATOM      8  C   UNL     1      33.740 -12.615 -24.757  0.00  0.00    -0.055 C 
ATOM      9  C   UNL     1      32.837 -11.676 -22.185  0.00  0.00    +0.069 C 
ATOM     10  C   UNL     1      34.026 -11.180 -24.308  0.00  0.00    +0.069 C 
ATOM     11  H   UNL     1      34.552 -13.489 -23.102  0.00  0.00    -0.079 HD
ATOM     12  N   UNL     1      33.899  -8.510 -23.323  0.00  0.00    -0.229 NA
ATOM     13  C   UNL     1      32.862  -9.376 -23.110  0.00  0.00    +0.132 C 
ATOM     14  C   UNL     1      31.600  -8.924 -22.698  0.00  0.00    +0.034 C 
ATOM     15  C   UNL     1      31.401  -7.561 -22.502  0.00  0.00    +0.004 C 
ATOM     16  C   UNL     1      33.667  -7.193 -23.122  0.00  0.00    +0.100 C 
ATOM     17  C   UNL     1      32.448  -6.673 -22.716  0.00  0.00    +0.021 C 
ENDBRANCH   4   5
ENDBRANCH   1   4
BRANCH   1  18
ATOM     18  C   UNL     1      35.020 -16.422 -22.737  0.00  0.00    +0.232 C 
BRANCH  18  19
ATOM     19  O   UNL     1      35.781 -17.598 -22.995  0.00  0.00    -0.473 OA
BRANCH  19  23
ATOM     20  C   UNL     1      35.705 -20.551 -20.079  0.00  0.00    -0.022 C 
ATOM     21  C   UNL     1      34.603 -20.367 -20.914  0.00  0.00    -0.001 C 
ATOM     22  C   UNL     1      36.832 -19.742 -20.224  0.00  0.00    -0.001 C 
ATOM     23  C   UNL     1      35.756 -18.572 -22.033  0.00  0.00    +0.139 C 
ATOM     24  C   UNL     1      34.628 -19.375 -21.894  0.00  0.00    +0.037 C 
ATOM     25  C   UNL     1      36.857 -18.749 -21.203  0.00  0.00    +0.037 C 
BRANCH  20  26
ATOM     26  C   UNL     1      35.677 -21.629 -19.012  0.00  0.00    +0.022 C 
ATOM     27  C   UNL     1      36.682 -21.346 -17.882  0.00  0.00    +0.004 C 
ATOM     28  C   UNL     1      34.261 -21.840 -18.449  0.00  0.00    +0.004 C 
ATOM     29  C   UNL     1      36.652 -22.443 -16.819  0.00  0.00    +0.000 C 
ATOM     30  C   UNL     1      34.240 -22.934 -17.383  0.00  0.00    +0.000 C 
ATOM     31  C   UNL     1      35.244 -22.654 -16.269  0.00  0.00    +0.000 C 
ENDBRANCH  20  26
ENDBRANCH  19  23
ENDBRANCH  18  19
ENDBRANCH   1  18
TORSDOF 7
ENDMDL
MODEL 7
REMARK VINA RESULT:     -10.5      3.206     11.844
REMARK  Name = 446129
REMARK  7 active torsions:
REMARK  status: ('A' for Active; 'I' for Inactive)
REMARK    1  A    between atoms: C_1  and  O_2
REMARK    2  A    between atoms: C_1  and  C_4
REMARK    3  A    between atoms: C_1  and  C_18
REMARK    4  A    between atoms: C_4  and  N_5
REMARK    5  A    between atoms: C_18  and  O_19
REMARK    6  A    between atoms: O_19  and  C_23
REMARK    7  A    between atoms: C_20  and  C_26
REMARK                            x       y       z     vdW  Elec       q    Type
REMARK                         _______ _______ _______ _____ _____    ______ ____
ROOT
ATOM      1  C   UNL     1      35.839 -18.256 -21.738  0.00  0.00    +0.133 C 
ENDROOT
BRANCH   1   2
ATOM      2  O   UNL     1      37.147 -18.819 -21.874  0.00  0.00    -0.383 OA
ATOM      3  H   UNL     1      37.650 -18.669 -21.059  0.00  0.00    +0.210 HD
ENDBRANCH   1   2
BRANCH   1   4
ATOM      4  C   UNL     1      35.346 -17.855 -23.131  0.00  0.00    -0.043 C 
BRANCH   4   5
ATOM      5  N   UNL     1      34.500 -16.663 -23.093  0.00  0.00    +0.391 N 
ATOM      6  N   UNL     1      33.916 -13.872 -23.271  0.00  0.00    -0.298 N 
ATOM      7  C   UNL     1      34.506 -15.984 -24.394  0.00  0.00    -0.055 C 
ATOM      8  C   UNL     1      34.957 -15.741 -22.046  0.00  0.00    -0.055 C 
ATOM      9  C   UNL     1      33.580 -14.766 -24.384  0.00  0.00    +0.069 C 
ATOM     10  C   UNL     1      34.045 -14.514 -21.957  0.00  0.00    +0.069 C 
ATOM     11  H   UNL     1      33.546 -16.956 -22.878  0.00  0.00    -0.079 HD
ATOM     12  N   UNL     1      32.699 -12.032 -22.334  0.00  0.00    -0.229 NA
ATOM     13  C   UNL     1      33.517 -12.531 -23.311  0.00  0.00    +0.132 C 
ATOM     14  C   UNL     1      33.972 -11.730 -24.367  0.00  0.00    +0.034 C 
ATOM     15  C   UNL     1      33.583 -10.396 -24.421  0.00  0.00    +0.004 C 
ATOM     16  C   UNL     1      32.342 -10.730 -22.420  0.00  0.00    +0.100 C 
ATOM     17  C   UNL     1      32.753  -9.879 -23.433  0.00  0.00    +0.021 C 
ENDBRANCH   4   5
ENDBRANCH   1   4
BRANCH   1  18
ATOM     18  C   UNL     1      34.936 -19.276 -21.048  0.00  0.00    +0.232 C 
BRANCH  18  19
ATOM     19  O   UNL     1      35.652 -20.498 -20.897  0.00  0.00    -0.473 OA
BRANCH  19  23
ATOM     20  C   UNL     1      35.657 -22.208 -17.116  0.00  0.00    -0.022 C 
ATOM     21  C   UNL     1      34.492 -22.217 -17.883  0.00  0.00    -0.001 C 
ATOM     22  C   UNL     1      36.819 -21.624 -17.618  0.00  0.00    -0.001 C 
ATOM     23  C   UNL     1      35.653 -21.061 -19.650  0.00  0.00    +0.139 C 
ATOM     24  C   UNL     1      34.491 -21.642 -19.154  0.00  0.00    +0.037 C 
ATOM     25  C   UNL     1      36.817 -21.048 -18.889  0.00  0.00    +0.037 C 
BRANCH  20  26
ATOM     26  C   UNL     1      35.657 -22.832 -15.733  0.00  0.00    +0.022 C 
ATOM     27  C   UNL     1      34.574 -23.916 -15.591  0.00  0.00    +0.004 C 
ATOM     28  C   UNL     1      37.042 -23.385 -15.355  0.00  0.00    +0.004 C 
ATOM     29  C   UNL     1      34.578 -24.531 -14.192  0.00  0.00    +0.000 C 
ATOM     30  C   UNL     1      37.036 -24.002 -13.957  0.00  0.00    +0.000 C 
ATOM     31  C   UNL     1      35.956 -25.070 -13.818  0.00  0.00    +0.000 C 
ENDBRANCH  20  26
ENDBRANCH  19  23
ENDBRANCH  18  19
ENDBRANCH   1  18
TORSDOF 7
ENDMDL
MODEL 8
REMARK VINA RESULT:     -10.2      3.341      6.154
REMARK  Name = 446129
REMARK  7 active torsions:
REMARK  status: ('A' for Active; 'I' for Inactive)
REMARK    1  A    between atoms: C_1  and  O_2
REMARK    2  A    between atoms: C_1  and  C_4
REMARK    3  A    between atoms: C_1  and  C_18
REMARK    4  A    between atoms: C_4  and  N_5
REMARK    5  A    between atoms: C_18  and  O_19
REMARK    6  A    between atoms: O_19  and  C_23
REMARK    7  A    between atoms: C_20  and  C_26
REMARK                            x       y       z     vdW  Elec       q    Type
REMARK                         _______ _______ _______ _____ _____    ______ ____
ROOT
ATOM      1  C   UNL     1      32.057  -9.420 -20.354  0.00  0.00    +0.133 C 
ENDROOT
BRANCH   1   2
ATOM      2  O   UNL     1      31.121  -9.745 -19.324  0.00  0.00    -0.383 OA
ATOM      3  H   UNL     1      30.453 -10.355 -19.673  0.00  0.00    +0.210 HD
ENDBRANCH   1   2
BRANCH   1   4
ATOM      4  C   UNL     1      31.738 -10.283 -21.577  0.00  0.00    -0.043 C 
BRANCH   4   5
ATOM      5  N   UNL     1      32.691 -11.381 -21.740  0.00  0.00    +0.391 N 
ATOM      6  N   UNL     1      33.579 -13.958 -22.593  0.00  0.00    -0.298 N 
ATOM      7  C   UNL     1      32.929 -11.651 -23.163  0.00  0.00    -0.055 C 
ATOM      8  C   UNL     1      32.196 -12.594 -21.077  0.00  0.00    -0.055 C 
ATOM      9  C   UNL     1      33.967 -12.760 -23.346  0.00  0.00    +0.069 C 
ATOM     10  C   UNL     1      33.210 -13.735 -21.190  0.00  0.00    +0.069 C 
ATOM     11  H   UNL     1      33.572 -11.104 -21.304  0.00  0.00    -0.079 HD
ATOM     12  N   UNL     1      34.845 -15.913 -22.026  0.00  0.00    -0.229 NA
ATOM     13  C   UNL     1      34.118 -15.202 -22.941  0.00  0.00    +0.132 C 
ATOM     14  C   UNL     1      33.894 -15.688 -24.237  0.00  0.00    +0.034 C 
ATOM     15  C   UNL     1      34.423 -16.922 -24.598  0.00  0.00    +0.004 C 
ATOM     16  C   UNL     1      35.344 -17.109 -22.413  0.00  0.00    +0.100 C 
ATOM     17  C   UNL     1      35.163 -17.652 -23.675  0.00  0.00    +0.021 C 
ENDBRANCH   4   5
ENDBRANCH   1   4
BRANCH   1  18
ATOM     18  C   UNL     1      31.975  -7.920 -20.635  0.00  0.00    +0.232 C 
BRANCH  18  19
ATOM     19  O   UNL     1      33.291  -7.420 -20.850  0.00  0.00    -0.473 OA
BRANCH  19  23
ATOM     20  C   UNL     1      33.917  -5.247 -24.330  0.00  0.00    -0.022 C 
ATOM     21  C   UNL     1      32.801  -4.985 -23.536  0.00  0.00    -0.001 C 
ATOM     22  C   UNL     1      34.822  -6.240 -23.955  0.00  0.00    -0.001 C 
ATOM     23  C   UNL     1      33.497  -6.704 -21.998  0.00  0.00    +0.139 C 
ATOM     24  C   UNL     1      32.590  -5.715 -22.366  0.00  0.00    +0.037 C 
ATOM     25  C   UNL     1      34.611  -6.971 -22.786  0.00  0.00    +0.037 C 
BRANCH  20  26
ATOM     26  C   UNL     1      34.145  -4.453 -25.603  0.00  0.00    +0.022 C 
ATOM     27  C   UNL     1      35.498  -4.788 -26.254  0.00  0.00    +0.004 C 
ATOM     28  C   UNL     1      32.992  -4.635 -26.606  0.00  0.00    +0.004 C 
ATOM     29  C   UNL     1      35.721  -3.977 -27.530  0.00  0.00    +0.000 C 
ATOM     30  C   UNL     1      33.225  -3.825 -27.880  0.00  0.00    +0.000 C 
ATOM     31  C   UNL     1      34.572  -4.153 -28.517  0.00  0.00    +0.000 C 
ENDBRANCH  20  26
ENDBRANCH  19  23
ENDBRANCH  18  19
ENDBRANCH   1  18
TORSDOF 7
ENDMDL
MODEL 9
REMARK VINA RESULT:     -10.2      7.992     11.723
REMARK  Name = 446129
REMARK  7 active torsions:
REMARK  status: ('A' for Active; 'I' for Inactive)
REMARK    1  A    between atoms: C_1  and  O_2
REMARK    2  A    between atoms: C_1  and  C_4
REMARK    3  A    between atoms: C_1  and  C_18
REMARK    4  A    between atoms: C_4  and  N_5
REMARK    5  A    between atoms: C_18  and  O_19
REMARK    6  A    between atoms: O_19  and  C_23
REMARK    7  A    between atoms: C_20  and  C_26
REMARK                            x       y       z     vdW  Elec       q    Type
REMARK                         _______ _______ _______ _____ _____    ______ ____
ROOT
ATOM      1  C   UNL     1      34.962 -24.196 -13.658  0.00  0.00    +0.133 C 
ENDROOT
BRANCH   1   2
ATOM      2  O   UNL     1      35.709 -23.805 -12.503  0.00  0.00    -0.383 OA
ATOM      3  H   UNL     1      35.254 -24.113 -11.704  0.00  0.00    +0.210 HD
ENDBRANCH   1   2
BRANCH   1   4
ATOM      4  C   UNL     1      33.537 -24.531 -13.213  0.00  0.00    -0.043 C 
BRANCH   4   5
ATOM      5  N   UNL     1      32.531 -23.870 -14.045  0.00  0.00    +0.391 N 
ATOM      6  N   UNL     1      29.892 -23.212 -14.918  0.00  0.00    -0.298 N 
ATOM      7  C   UNL     1      31.671 -23.007 -13.227  0.00  0.00    -0.055 C 
ATOM      8  C   UNL     1      31.714 -24.864 -14.751  0.00  0.00    -0.055 C 
ATOM      9  C   UNL     1      30.651 -22.266 -14.094  0.00  0.00    +0.069 C 
ATOM     10  C   UNL     1      30.695 -24.185 -15.670  0.00  0.00    +0.069 C 
ATOM     11  H   UNL     1      33.017 -23.295 -14.733  0.00  0.00    -0.079 HD
ATOM     12  N   UNL     1      28.459 -22.829 -16.801  0.00  0.00    -0.229 NA
ATOM     13  C   UNL     1      28.653 -22.834 -15.447  0.00  0.00    +0.132 C 
ATOM     14  C   UNL     1      27.632 -22.467 -14.558  0.00  0.00    +0.034 C 
ATOM     15  C   UNL     1      26.395 -22.088 -15.068  0.00  0.00    +0.004 C 
ATOM     16  C   UNL     1      27.243 -22.455 -17.260  0.00  0.00    +0.100 C 
ATOM     17  C   UNL     1      26.189 -22.080 -16.443  0.00  0.00    +0.021 C 
ENDBRANCH   4   5
ENDBRANCH   1   4
BRANCH   1  18
ATOM     18  C   UNL     1      35.025 -23.068 -14.686  0.00  0.00    +0.232 C 
BRANCH  18  19
ATOM     19  O   UNL     1      34.557 -23.560 -15.938  0.00  0.00    -0.473 OA
BRANCH  19  23
ATOM     20  C   UNL     1      35.475 -21.296 -19.294  0.00  0.00    -0.022 C 
ATOM     21  C   UNL     1      36.448 -21.528 -18.322  0.00  0.00    -0.001 C 
ATOM     22  C   UNL     1      34.193 -21.825 -19.138  0.00  0.00    -0.001 C 
ATOM     23  C   UNL     1      34.860 -22.813 -17.044  0.00  0.00    +0.139 C 
ATOM     24  C   UNL     1      36.140 -22.289 -17.194  0.00  0.00    +0.037 C 
ATOM     25  C   UNL     1      33.885 -22.584 -18.009  0.00  0.00    +0.037 C 
BRANCH  20  26
ATOM     26  C   UNL     1      35.810 -20.468 -20.520  0.00  0.00    +0.022 C 
ATOM     27  C   UNL     1      34.553 -19.848 -21.156  0.00  0.00    +0.004 C 
ATOM     28  C   UNL     1      36.860 -19.387 -20.211  0.00  0.00    +0.004 C 
ATOM     29  C   UNL     1      34.901 -19.025 -22.395  0.00  0.00    +0.000 C 
ATOM     30  C   UNL     1      37.199 -18.565 -21.453  0.00  0.00    +0.000 C 
ATOM     31  C   UNL     1      35.949 -17.959 -22.086  0.00  0.00    +0.000 C 
ENDBRANCH  20  26
ENDBRANCH  19  23
ENDBRANCH  18  19
ENDBRANCH   1  18
TORSDOF 7
ENDMDL
