MODEL 1
REMARK VINA RESULT:     -12.3      0.000      0.000
REMARK  Name = 118161062
REMARK  4 active torsions:
REMARK  status: ('A' for Active; 'I' for Inactive)
REMARK    1  A    between atoms: N_1  and  C_26
REMARK    2  A    between atoms: C_7  and  C_15
REMARK    3  A    between atoms: C_21  and  N_28
REMARK    4  A    between atoms: N_27  and  C_35
REMARK                            x       y       z     vdW  Elec       q    Type
REMARK                         _______ _______ _______ _____ _____    ______ ____
ROOT
ATOM      1  N   UNL     1      36.315 -23.191 -15.761  0.00  0.00    -0.286 N 
ATOM      2  N   UNL     1      34.821 -24.057 -12.487  0.00  0.00    -0.260 N 
ATOM      3  N   UNL     1      34.110 -23.635 -15.129  0.00  0.00    -0.384 NA
ATOM      4  N   UNL     1      36.976 -23.667 -12.911  0.00  0.00    -0.224 NA
ATOM      5  C   UNL     1      35.383 -23.516 -14.804  0.00  0.00    +0.216 C 
ATOM      6  C   UNL     1      35.770 -23.738 -13.424  0.00  0.00    +0.180 C 
ATOM      7  C   UNL     1      33.174 -23.967 -14.151  0.00  0.00    +0.162 C 
ATOM      8  C   UNL     1      33.497 -24.171 -12.855  0.00  0.00    +0.159 C 
ATOM      9  C   UNL     1      35.466 -24.198 -11.291  0.00  0.00    +0.088 C 
ATOM     10  C   UNL     1      36.793 -23.954 -11.578  0.00  0.00    +0.117 C 
ATOM     11  H   UNL     1      37.223 -23.543 -15.620  0.00  0.00    +0.155 HD
ENDROOT
BRANCH   7  15
ATOM     12  N   UNL     1      31.032 -25.069 -14.041  0.00  0.00    -0.386 NA
ATOM     13  N   UNL     1      29.939 -23.263 -15.888  0.00  0.00    -0.257 NA
ATOM     14  N   UNL     1      28.914 -26.166 -13.927  0.00  0.00    -0.335 N 
ATOM     15  C   UNL     1      31.759 -24.071 -14.579  0.00  0.00    +0.178 C 
ATOM     16  C   UNL     1      31.223 -23.183 -15.485  0.00  0.00    +0.128 C 
ATOM     17  C   UNL     1      29.748 -25.148 -14.442  0.00  0.00    +0.179 C 
ATOM     18  C   UNL     1      29.211 -24.261 -15.349  0.00  0.00    +0.199 C 
ATOM     19  H   UNL     1      29.272 -26.814 -13.277  0.00  0.00    +0.144 HD
ATOM     20  H   UNL     1      27.976 -26.227 -14.218  0.00  0.00    +0.144 HD
ENDBRANCH   7  15
BRANCH   1  26
ATOM     21  C   UNL     1      35.743 -20.867 -19.213  0.00  0.00    +0.048 C 
ATOM     22  C   UNL     1      36.940 -20.778 -18.503  0.00  0.00    +0.016 C 
ATOM     23  C   UNL     1      34.735 -21.728 -18.775  0.00  0.00    +0.016 C 
ATOM     24  C   UNL     1      37.131 -21.551 -17.357  0.00  0.00    +0.016 C 
ATOM     25  C   UNL     1      34.927 -22.500 -17.630  0.00  0.00    +0.016 C 
ATOM     26  C   UNL     1      36.124 -22.412 -16.920  0.00  0.00    +0.050 C 
BRANCH  21  28
ATOM     27  N   UNL     1      35.112 -18.307 -22.543  0.00  0.00    +0.394 N 
ATOM     28  N   UNL     1      35.552 -20.092 -20.361  0.00  0.00    -0.312 N 
ATOM     29  C   UNL     1      36.479 -18.622 -22.110  0.00  0.00    -0.055 C 
ATOM     30  C   UNL     1      34.246 -19.477 -22.358  0.00  0.00    -0.055 C 
ATOM     31  C   UNL     1      36.505 -19.007 -20.629  0.00  0.00    +0.068 C 
ATOM     32  C   UNL     1      34.197 -19.892 -20.886  0.00  0.00    +0.068 C 
ATOM     33  H   UNL     1      34.753 -17.532 -21.985  0.00  0.00    -0.079 HD
BRANCH  27  35
ATOM     34  O   UNL     1      33.445 -17.063 -24.953  0.00  0.00    -0.358 OA
ATOM     35  C   UNL     1      35.127 -17.932 -23.968  0.00  0.00    +0.002 C 
ATOM     36  C   UNL     1      33.838 -18.421 -24.629  0.00  0.00    +0.124 C 
ATOM     37  C   UNL     1      34.512 -16.539 -24.122  0.00  0.00    +0.124 C 
ENDBRANCH  27  35
ENDBRANCH  21  28
ENDBRANCH   1  26
TORSDOF 4
ENDMDL
MODEL 2
REMARK VINA RESULT:      -9.8      1.483      1.918
REMARK  Name = 118161062
REMARK  4 active torsions:
REMARK  status: ('A' for Active; 'I' for Inactive)
REMARK    1  A    between atoms: N_1  and  C_26
REMARK    2  A    between atoms: C_7  and  C_15
REMARK    3  A    between atoms: C_21  and  N_28
REMARK    4  A    between atoms: N_27  and  C_35
REMARK                            x       y       z     vdW  Elec       q    Type
REMARK                         _______ _______ _______ _____ _____    ______ ____
ROOT
ATOM      1  N   UNL     1      35.160 -23.197 -16.658  0.00  0.00    -0.286 N 
ATOM      2  N   UNL     1      33.494 -23.946 -13.440  0.00  0.00    -0.260 N 
ATOM      3  N   UNL     1      32.914 -23.125 -16.019  0.00  0.00    -0.384 NA
ATOM      4  N   UNL     1      35.677 -24.075 -13.876  0.00  0.00    -0.224 NA
ATOM      5  C   UNL     1      34.175 -23.360 -15.713  0.00  0.00    +0.216 C 
ATOM      6  C   UNL     1      34.492 -23.794 -14.366  0.00  0.00    +0.180 C 
ATOM      7  C   UNL     1      31.923 -23.297 -15.053  0.00  0.00    +0.162 C 
ATOM      8  C   UNL     1      32.183 -23.690 -13.786  0.00  0.00    +0.159 C 
ATOM      9  C   UNL     1      34.081 -24.351 -12.275  0.00  0.00    +0.088 C 
ATOM     10  C   UNL     1      35.427 -24.425 -12.569  0.00  0.00    +0.117 C 
ATOM     11  H   UNL     1      35.949 -23.777 -16.568  0.00  0.00    +0.155 HD
ENDROOT
BRANCH   7  15
ATOM     12  N   UNL     1      29.662 -22.694 -14.472  0.00  0.00    -0.386 NA
ATOM     13  N   UNL     1      28.882 -22.781 -17.165  0.00  0.00    -0.257 NA
ATOM     14  N   UNL     1      27.425 -22.098 -13.888  0.00  0.00    -0.335 N 
ATOM     15  C   UNL     1      30.529 -23.002 -15.456  0.00  0.00    +0.178 C 
ATOM     16  C   UNL     1      30.146 -23.045 -16.779  0.00  0.00    +0.128 C 
ATOM     17  C   UNL     1      28.398 -22.430 -14.857  0.00  0.00    +0.179 C 
ATOM     18  C   UNL     1      28.015 -22.472 -16.180  0.00  0.00    +0.199 C 
ATOM     19  H   UNL     1      27.671 -22.060 -12.936  0.00  0.00    +0.144 HD
ATOM     20  H   UNL     1      26.500 -21.904 -14.166  0.00  0.00    +0.144 HD
ENDBRANCH   7  15
BRANCH   1  26
ATOM     21  C   UNL     1      35.195 -20.505 -19.883  0.00  0.00    +0.048 C 
ATOM     22  C   UNL     1      36.382 -20.815 -19.220  0.00  0.00    +0.016 C 
ATOM     23  C   UNL     1      33.996 -21.089 -19.475  0.00  0.00    +0.016 C 
ATOM     24  C   UNL     1      36.372 -21.709 -18.150  0.00  0.00    +0.016 C 
ATOM     25  C   UNL     1      33.985 -21.984 -18.405  0.00  0.00    +0.016 C 
ATOM     26  C   UNL     1      35.172 -22.294 -17.742  0.00  0.00    +0.050 C 
BRANCH  21  28
ATOM     27  N   UNL     1      35.418 -17.928 -23.253  0.00  0.00    +0.394 N 
ATOM     28  N   UNL     1      35.207 -19.607 -20.956  0.00  0.00    -0.312 N 
ATOM     29  C   UNL     1      34.339 -18.918 -23.158  0.00  0.00    -0.055 C 
ATOM     30  C   UNL     1      35.732 -17.402 -21.920  0.00  0.00    -0.055 C 
ATOM     31  C   UNL     1      34.753 -20.091 -22.267  0.00  0.00    +0.068 C 
ATOM     32  C   UNL     1      36.194 -18.523 -20.986  0.00  0.00    +0.068 C 
ATOM     33  H   UNL     1      36.249 -18.374 -23.643  0.00  0.00    -0.079 HD
BRANCH  27  35
ATOM     34  O   UNL     1      33.376 -15.515 -23.627  0.00  0.00    -0.358 OA
ATOM     35  C   UNL     1      34.989 -16.821 -24.125  0.00  0.00    +0.002 C 
ATOM     36  C   UNL     1      33.464 -16.831 -24.233  0.00  0.00    +0.124 C 
ATOM     37  C   UNL     1      34.781 -15.568 -23.272  0.00  0.00    +0.124 C 
ENDBRANCH  27  35
ENDBRANCH  21  28
ENDBRANCH   1  26
TORSDOF 4
ENDMDL
