MODEL 1
REMARK VINA RESULT:     -12.0      0.000      0.000
REMARK  Name = 11314340
REMARK  7 active torsions:
REMARK  status: ('A' for Active; 'I' for Inactive)
REMARK    1  A    between atoms: C_2  and  C_10
REMARK    2  A    between atoms: C_3  and  O_18
REMARK    3  A    between atoms: O_18  and  C_19
REMARK    4  A    between atoms: C_19  and  C_20
REMARK    5  A    between atoms: C_20  and  N_21
REMARK    6  A    between atoms: C_20  and  C_25
REMARK    7  A    between atoms: C_25  and  C_26
REMARK                            x       y       z     vdW  Elec       q    Type
REMARK                         _______ _______ _______ _____ _____    ______ ____
ROOT
ATOM      1  N   UNL     1      33.797 -15.506 -25.288  0.00  0.00    -0.239 NA
ATOM      2  C   UNL     1      33.664 -13.905 -23.490  0.00  0.00    +0.022 C 
ATOM      3  C   UNL     1      34.920 -15.926 -23.189  0.00  0.00    +0.158 C 
ATOM      4  C   UNL     1      34.455 -14.714 -22.689  0.00  0.00    +0.040 C 
ATOM      5  C   UNL     1      33.363 -14.336 -24.768  0.00  0.00    +0.099 C 
ATOM      6  C   UNL     1      34.565 -16.273 -24.482  0.00  0.00    +0.136 C 
ENDROOT
BRANCH   2  10
ATOM      7  N   UNL     1      32.660  -8.298 -22.401  0.00  0.00    -0.280 N 
ATOM      8  N   UNL     1      31.802  -9.022 -21.656  0.00  0.00    -0.173 NA
ATOM      9  C   UNL     1      33.162 -10.332 -22.920  0.00  0.00    +0.032 A 
ATOM     10  C   UNL     1      33.162 -12.636 -22.997  0.00  0.00    +0.002 C 
ATOM     11  C   UNL     1      32.088 -10.302 -21.956  0.00  0.00    +0.102 A 
ATOM     12  C   UNL     1      33.752 -11.454 -23.487  0.00  0.00    +0.003 C 
ATOM     13  C   UNL     1      33.502  -9.035 -23.182  0.00  0.00    +0.053 A 
ATOM     14  C   UNL     1      32.096 -12.659 -22.042  0.00  0.00    +0.002 C 
ATOM     15  C   UNL     1      31.517 -11.498 -21.484  0.00  0.00    +0.021 C 
ATOM     16  C   UNL     1      34.502  -8.406 -24.060  0.00  0.00    +0.051 C 
ATOM     17  H   UNL     1      32.676  -7.313 -22.384  0.00  0.00    +0.189 HD
ENDBRANCH   2  10
BRANCH   3  18
ATOM     18  O   UNL     1      35.697 -16.741 -22.433  0.00  0.00    -0.476 OA
BRANCH  18  19
ATOM     19  C   UNL     1      35.640 -18.141 -22.710  0.00  0.00    +0.184 C 
BRANCH  19  20
ATOM     20  C   UNL     1      35.613 -18.941 -21.402  0.00  0.00    -0.017 C 
BRANCH  20  21
ATOM     21  N   UNL     1      35.731 -18.002 -20.283  0.00  0.00    +0.384 N 
ATOM     22  H   UNL     1      34.946 -17.351 -20.300  0.00  0.00    -0.089 HD
ATOM     23  H   UNL     1      36.606 -17.482 -20.366  0.00  0.00    -0.089 HD
ATOM     24  H   UNL     1      35.725 -18.519 -19.403  0.00  0.00    -0.089 HD
ENDBRANCH  20  21
BRANCH  20  25
ATOM     25  C   UNL     1      34.316 -19.756 -21.214  0.00  0.00    +0.008 C 
BRANCH  25  26
ATOM     26  C   UNL     1      34.331 -20.700 -20.037  0.00  0.00    -0.024 C 
ATOM     27  C   UNL     1      35.546 -21.139 -19.532  0.00  0.00    -0.004 C 
ATOM     28  C   UNL     1      33.130 -21.113 -19.480  0.00  0.00    -0.004 C 
ATOM     29  C   UNL     1      35.561 -22.011 -18.445  0.00  0.00    -0.000 C 
ATOM     30  C   UNL     1      33.146 -21.986 -18.392  0.00  0.00    -0.000 C 
ATOM     31  C   UNL     1      34.360 -22.435 -17.874  0.00  0.00    -0.000 C 
ENDBRANCH  25  26
ENDBRANCH  20  25
ENDBRANCH  19  20
ENDBRANCH  18  19
ENDBRANCH   3  18
TORSDOF 7
ENDMDL
MODEL 2
REMARK VINA RESULT:     -11.3      1.911     10.059
REMARK  Name = 11314340
REMARK  7 active torsions:
REMARK  status: ('A' for Active; 'I' for Inactive)
REMARK    1  A    between atoms: C_2  and  C_10
REMARK    2  A    between atoms: C_3  and  O_18
REMARK    3  A    between atoms: O_18  and  C_19
REMARK    4  A    between atoms: C_19  and  C_20
REMARK    5  A    between atoms: C_20  and  N_21
REMARK    6  A    between atoms: C_20  and  C_25
REMARK    7  A    between atoms: C_25  and  C_26
REMARK                            x       y       z     vdW  Elec       q    Type
REMARK                         _______ _______ _______ _____ _____    ______ ____
ROOT
ATOM      1  N   UNL     1      34.130 -16.973 -24.899  0.00  0.00    -0.239 NA
ATOM      2  C   UNL     1      34.995 -17.480 -22.707  0.00  0.00    +0.022 C 
ATOM      3  C   UNL     1      34.585 -15.199 -23.322  0.00  0.00    +0.158 C 
ATOM      4  C   UNL     1      35.012 -16.132 -22.383  0.00  0.00    +0.040 C 
ATOM      5  C   UNL     1      34.552 -17.851 -23.962  0.00  0.00    +0.099 C 
ATOM      6  C   UNL     1      34.158 -15.666 -24.554  0.00  0.00    +0.136 C 
ENDROOT
BRANCH   2  10
ATOM      7  N   UNL     1      35.350 -21.765 -18.814  0.00  0.00    -0.280 N 
ATOM      8  N   UNL     1      36.598 -21.314 -19.045  0.00  0.00    -0.173 NA
ATOM      9  C   UNL     1      35.040 -20.197 -20.265  0.00  0.00    +0.032 A 
ATOM     10  C   UNL     1      35.435 -18.478 -21.750  0.00  0.00    +0.002 C 
ATOM     11  C   UNL     1      36.442 -20.330 -19.950  0.00  0.00    +0.102 A 
ATOM     12  C   UNL     1      34.459 -19.298 -21.150  0.00  0.00    +0.003 C 
ATOM     13  C   UNL     1      34.372 -21.128 -19.522  0.00  0.00    +0.053 A 
ATOM     14  C   UNL     1      36.836 -18.572 -21.472  0.00  0.00    +0.002 C 
ATOM     15  C   UNL     1      37.396 -19.498 -20.563  0.00  0.00    +0.021 C 
ATOM     16  C   UNL     1      32.952 -21.494 -19.394  0.00  0.00    +0.051 C 
ATOM     17  H   UNL     1      35.158 -22.498 -18.185  0.00  0.00    +0.189 HD
ENDBRANCH   2  10
BRANCH   3  18
ATOM     18  O   UNL     1      34.587 -13.872 -23.038  0.00  0.00    -0.476 OA
BRANCH  18  19
ATOM     19  C   UNL     1      33.372 -13.154 -23.259  0.00  0.00    +0.184 C 
BRANCH  19  20
ATOM     20  C   UNL     1      33.677 -11.735 -23.755  0.00  0.00    -0.017 C 
BRANCH  20  21
ATOM     21  N   UNL     1      33.573 -11.725 -25.217  0.00  0.00    +0.384 N 
ATOM     22  H   UNL     1      34.306 -11.133 -25.607  0.00  0.00    -0.089 HD
ATOM     23  H   UNL     1      32.660 -11.359 -25.490  0.00  0.00    -0.089 HD
ATOM     24  H   UNL     1      33.678 -12.676 -25.573  0.00  0.00    -0.089 HD
ENDBRANCH  20  21
BRANCH  20  25
ATOM     25  C   UNL     1      32.707 -10.673 -23.195  0.00  0.00    +0.008 C 
BRANCH  25  26
ATOM     26  C   UNL     1      33.321  -9.311 -22.980  0.00  0.00    -0.024 C 
ATOM     27  C   UNL     1      34.428  -8.939 -23.728  0.00  0.00    -0.004 C 
ATOM     28  C   UNL     1      32.768  -8.457 -22.039  0.00  0.00    -0.004 C 
ATOM     29  C   UNL     1      34.995  -7.681 -23.530  0.00  0.00    -0.000 C 
ATOM     30  C   UNL     1      33.337  -7.198 -21.841  0.00  0.00    -0.000 C 
ATOM     31  C   UNL     1      34.450  -6.810 -22.586  0.00  0.00    -0.000 C 
ENDBRANCH  25  26
ENDBRANCH  20  25
ENDBRANCH  19  20
ENDBRANCH  18  19
ENDBRANCH   3  18
TORSDOF 7
ENDMDL
MODEL 3
REMARK VINA RESULT:     -11.1      2.873      5.917
REMARK  Name = 11314340
REMARK  7 active torsions:
REMARK  status: ('A' for Active; 'I' for Inactive)
REMARK    1  A    between atoms: C_2  and  C_10
REMARK    2  A    between atoms: C_3  and  O_18
REMARK    3  A    between atoms: O_18  and  C_19
REMARK    4  A    between atoms: C_19  and  C_20
REMARK    5  A    between atoms: C_20  and  N_21
REMARK    6  A    between atoms: C_20  and  C_25
REMARK    7  A    between atoms: C_25  and  C_26
REMARK                            x       y       z     vdW  Elec       q    Type
REMARK                         _______ _______ _______ _____ _____    ______ ____
ROOT
ATOM      1  N   UNL     1      37.527 -19.104 -19.864  0.00  0.00    -0.239 NA
ATOM      2  C   UNL     1      35.750 -18.636 -21.426  0.00  0.00    +0.022 C 
ATOM      3  C   UNL     1      35.684 -20.646 -20.119  0.00  0.00    +0.158 C 
ATOM      4  C   UNL     1      35.112 -19.817 -21.079  0.00  0.00    +0.040 C 
ATOM      5  C   UNL     1      36.942 -18.323 -20.801  0.00  0.00    +0.099 C 
ATOM      6  C   UNL     1      36.881 -20.248 -19.548  0.00  0.00    +0.136 C 
ENDROOT
BRANCH   2  10
ATOM      7  N   UNL     1      33.631 -14.116 -24.377  0.00  0.00    -0.280 N 
ATOM      8  N   UNL     1      33.581 -15.194 -25.184  0.00  0.00    -0.173 NA
ATOM      9  C   UNL     1      34.446 -15.686 -23.141  0.00  0.00    +0.032 A 
ATOM     10  C   UNL     1      35.180 -17.750 -22.424  0.00  0.00    +0.002 C 
ATOM     11  C   UNL     1      34.084 -16.197 -24.441  0.00  0.00    +0.102 A 
ATOM     12  C   UNL     1      34.996 -16.397 -22.082  0.00  0.00    +0.003 C 
ATOM     13  C   UNL     1      34.143 -14.355 -23.135  0.00  0.00    +0.053 A 
ATOM     14  C   UNL     1      34.839 -18.305 -23.699  0.00  0.00    +0.002 C 
ATOM     15  C   UNL     1      34.279 -17.554 -24.756  0.00  0.00    +0.021 C 
ATOM     16  C   UNL     1      34.271 -13.290 -22.126  0.00  0.00    +0.051 C 
ATOM     17  H   UNL     1      33.323 -13.225 -24.663  0.00  0.00    +0.189 HD
ENDBRANCH   2  10
BRANCH   3  18
ATOM     18  O   UNL     1      35.086 -21.808 -19.755  0.00  0.00    -0.476 OA
BRANCH  18  19
ATOM     19  C   UNL     1      34.939 -22.059 -18.357  0.00  0.00    +0.184 C 
BRANCH  19  20
ATOM     20  C   UNL     1      33.459 -22.239 -18.001  0.00  0.00    -0.017 C 
BRANCH  20  21
ATOM     21  N   UNL     1      32.685 -22.268 -19.245  0.00  0.00    +0.384 N 
ATOM     22  H   UNL     1      32.110 -23.110 -19.270  0.00  0.00    -0.089 HD
ATOM     23  H   UNL     1      33.323 -22.267 -20.043  0.00  0.00    -0.089 HD
ATOM     24  H   UNL     1      32.084 -21.444 -19.291  0.00  0.00    -0.089 HD
ENDBRANCH  20  21
BRANCH  20  25
ATOM     25  C   UNL     1      33.174 -23.543 -17.226  0.00  0.00    +0.008 C 
BRANCH  25  26
ATOM     26  C   UNL     1      32.298 -23.373 -16.009  0.00  0.00    -0.024 C 
ATOM     27  C   UNL     1      32.872 -23.415 -14.747  0.00  0.00    -0.004 C 
ATOM     28  C   UNL     1      30.935 -23.177 -16.173  0.00  0.00    -0.004 C 
ATOM     29  C   UNL     1      32.063 -23.258 -13.622  0.00  0.00    -0.000 C 
ATOM     30  C   UNL     1      30.127 -23.020 -15.047  0.00  0.00    -0.000 C 
ATOM     31  C   UNL     1      30.689 -23.060 -13.772  0.00  0.00    -0.000 C 
ENDBRANCH  25  26
ENDBRANCH  20  25
ENDBRANCH  19  20
ENDBRANCH  18  19
ENDBRANCH   3  18
TORSDOF 7
ENDMDL
MODEL 4
REMARK VINA RESULT:     -10.8      5.828     12.622
REMARK  Name = 11314340
REMARK  7 active torsions:
REMARK  status: ('A' for Active; 'I' for Inactive)
REMARK    1  A    between atoms: C_2  and  C_10
REMARK    2  A    between atoms: C_3  and  O_18
REMARK    3  A    between atoms: O_18  and  C_19
REMARK    4  A    between atoms: C_19  and  C_20
REMARK    5  A    between atoms: C_20  and  N_21
REMARK    6  A    between atoms: C_20  and  C_25
REMARK    7  A    between atoms: C_25  and  C_26
REMARK                            x       y       z     vdW  Elec       q    Type
REMARK                         _______ _______ _______ _____ _____    ______ ____
ROOT
ATOM      1  N   UNL     1      31.389 -23.453 -14.885  0.00  0.00    -0.239 NA
ATOM      2  C   UNL     1      33.801 -23.448 -14.914  0.00  0.00    +0.022 C 
ATOM      3  C   UNL     1      32.588 -22.988 -16.932  0.00  0.00    +0.158 C 
ATOM      4  C   UNL     1      33.800 -23.141 -16.266  0.00  0.00    +0.040 C 
ATOM      5  C   UNL     1      32.586 -23.594 -14.272  0.00  0.00    +0.099 C 
ATOM      6  C   UNL     1      31.422 -23.153 -16.203  0.00  0.00    +0.136 C 
ENDROOT
BRANCH   2  10
ATOM      7  N   UNL     1      37.905 -24.391 -10.927  0.00  0.00    -0.280 N 
ATOM      8  N   UNL     1      38.520 -24.103 -12.091  0.00  0.00    -0.173 NA
ATOM      9  C   UNL     1      36.256 -24.073 -12.283  0.00  0.00    +0.032 A 
ATOM     10  C   UNL     1      35.048 -23.615 -14.192  0.00  0.00    +0.002 C 
ATOM     11  C   UNL     1      37.516 -23.898 -12.963  0.00  0.00    +0.102 A 
ATOM     12  C   UNL     1      34.983 -23.949 -12.825  0.00  0.00    +0.003 C 
ATOM     13  C   UNL     1      36.542 -24.387 -10.985  0.00  0.00    +0.053 A 
ATOM     14  C   UNL     1      36.271 -23.432 -14.912  0.00  0.00    +0.002 C 
ATOM     15  C   UNL     1      37.552 -23.565 -14.329  0.00  0.00    +0.021 C 
ATOM     16  C   UNL     1      35.710 -24.682  -9.806  0.00  0.00    +0.051 C 
ATOM     17  H   UNL     1      38.401 -24.590 -10.100  0.00  0.00    +0.189 HD
ENDBRANCH   2  10
BRANCH   3  18
ATOM     18  O   UNL     1      32.551 -22.686 -18.254  0.00  0.00    -0.476 OA
BRANCH  18  19
ATOM     19  C   UNL     1      33.802 -22.510 -18.920  0.00  0.00    +0.184 C 
BRANCH  19  20
ATOM     20  C   UNL     1      33.705 -21.370 -19.941  0.00  0.00    -0.017 C 
BRANCH  20  21
ATOM     21  N   UNL     1      32.534 -20.552 -19.610  0.00  0.00    +0.384 N 
ATOM     22  H   UNL     1      32.087 -20.235 -20.469  0.00  0.00    -0.089 HD
ATOM     23  H   UNL     1      32.829 -19.744 -19.061  0.00  0.00    -0.089 HD
ATOM     24  H   UNL     1      31.873 -21.109 -19.067  0.00  0.00    -0.089 HD
ENDBRANCH  20  21
BRANCH  20  25
ATOM     25  C   UNL     1      34.947 -20.454 -19.950  0.00  0.00    +0.008 C 
BRANCH  25  26
ATOM     26  C   UNL     1      34.989 -19.462 -21.088  0.00  0.00    -0.024 C 
ATOM     27  C   UNL     1      34.512 -19.838 -22.335  0.00  0.00    -0.004 C 
ATOM     28  C   UNL     1      35.503 -18.194 -20.866  0.00  0.00    -0.004 C 
ATOM     29  C   UNL     1      34.551 -18.923 -23.386  0.00  0.00    -0.000 C 
ATOM     30  C   UNL     1      35.542 -17.279 -21.918  0.00  0.00    -0.000 C 
ATOM     31  C   UNL     1      35.066 -17.643 -23.178  0.00  0.00    -0.000 C 
ENDBRANCH  25  26
ENDBRANCH  20  25
ENDBRANCH  19  20
ENDBRANCH  18  19
ENDBRANCH   3  18
TORSDOF 7
ENDMDL
MODEL 5
REMARK VINA RESULT:     -10.7      6.085      9.380
REMARK  Name = 11314340
REMARK  7 active torsions:
REMARK  status: ('A' for Active; 'I' for Inactive)
REMARK    1  A    between atoms: C_2  and  C_10
REMARK    2  A    between atoms: C_3  and  O_18
REMARK    3  A    between atoms: O_18  and  C_19
REMARK    4  A    between atoms: C_19  and  C_20
REMARK    5  A    between atoms: C_20  and  N_21
REMARK    6  A    between atoms: C_20  and  C_25
REMARK    7  A    between atoms: C_25  and  C_26
REMARK                            x       y       z     vdW  Elec       q    Type
REMARK                         _______ _______ _______ _____ _____    ______ ____
ROOT
ATOM      1  N   UNL     1      32.116 -22.437 -17.926  0.00  0.00    -0.239 NA
ATOM      2  C   UNL     1      34.311 -21.692 -18.594  0.00  0.00    +0.022 C 
ATOM      3  C   UNL     1      34.088 -23.286 -16.816  0.00  0.00    +0.158 C 
ATOM      4  C   UNL     1      34.896 -22.503 -17.634  0.00  0.00    +0.040 C 
ATOM      5  C   UNL     1      32.933 -21.690 -18.704  0.00  0.00    +0.099 C 
ATOM      6  C   UNL     1      32.717 -23.216 -17.000  0.00  0.00    +0.136 C 
ENDROOT
BRANCH   2  10
ATOM      7  N   UNL     1      36.368 -18.337 -22.854  0.00  0.00    -0.280 N 
ATOM      8  N   UNL     1      37.359 -18.521 -21.959  0.00  0.00    -0.173 NA
ATOM      9  C   UNL     1      35.446 -19.589 -21.357  0.00  0.00    +0.032 A 
ATOM     10  C   UNL     1      35.126 -20.864 -19.463  0.00  0.00    +0.002 C 
ATOM     11  C   UNL     1      36.816 -19.301 -21.007  0.00  0.00    +0.102 A 
ATOM     12  C   UNL     1      34.539 -20.360 -20.640  0.00  0.00    +0.003 C 
ATOM     13  C   UNL     1      35.194 -18.958 -22.542  0.00  0.00    +0.053 A 
ATOM     14  C   UNL     1      36.478 -20.606 -19.072  0.00  0.00    +0.002 C 
ATOM     15  C   UNL     1      37.376 -19.817 -19.824  0.00  0.00    +0.021 C 
ATOM     16  C   UNL     1      34.006 -18.863 -23.407  0.00  0.00    +0.051 C 
ATOM     17  H   UNL     1      36.483 -17.797 -23.669  0.00  0.00    +0.189 HD
ENDBRANCH   2  10
BRANCH   3  18
ATOM     18  O   UNL     1      34.628 -24.092 -15.867  0.00  0.00    -0.476 OA
BRANCH  18  19
ATOM     19  C   UNL     1      34.705 -23.576 -14.537  0.00  0.00    +0.184 C 
BRANCH  19  20
ATOM     20  C   UNL     1      33.844 -24.420 -13.590  0.00  0.00    -0.017 C 
BRANCH  20  21
ATOM     21  N   UNL     1      34.679 -24.847 -12.463  0.00  0.00    +0.384 N 
ATOM     22  H   UNL     1      34.239 -24.565 -11.587  0.00  0.00    -0.089 HD
ATOM     23  H   UNL     1      35.599 -24.411 -12.538  0.00  0.00    -0.089 HD
ATOM     24  H   UNL     1      34.781 -25.862 -12.482  0.00  0.00    -0.089 HD
ENDBRANCH  20  21
BRANCH  20  25
ATOM     25  C   UNL     1      32.629 -23.652 -13.027  0.00  0.00    +0.008 C 
BRANCH  25  26
ATOM     26  C   UNL     1      31.319 -23.961 -13.708  0.00  0.00    -0.024 C 
ATOM     27  C   UNL     1      30.583 -22.927 -14.268  0.00  0.00    -0.004 C 
ATOM     28  C   UNL     1      30.873 -25.272 -13.763  0.00  0.00    -0.004 C 
ATOM     29  C   UNL     1      29.372 -23.211 -14.898  0.00  0.00    -0.000 C 
ATOM     30  C   UNL     1      29.661 -25.556 -14.394  0.00  0.00    -0.000 C 
ATOM     31  C   UNL     1      28.911 -24.527 -14.961  0.00  0.00    -0.000 C 
ENDBRANCH  25  26
ENDBRANCH  20  25
ENDBRANCH  19  20
ENDBRANCH  18  19
ENDBRANCH   3  18
TORSDOF 7
ENDMDL
MODEL 6
REMARK VINA RESULT:     -10.7      4.505     11.942
REMARK  Name = 11314340
REMARK  7 active torsions:
REMARK  status: ('A' for Active; 'I' for Inactive)
REMARK    1  A    between atoms: C_2  and  C_10
REMARK    2  A    between atoms: C_3  and  O_18
REMARK    3  A    between atoms: O_18  and  C_19
REMARK    4  A    between atoms: C_19  and  C_20
REMARK    5  A    between atoms: C_20  and  N_21
REMARK    6  A    between atoms: C_20  and  C_25
REMARK    7  A    between atoms: C_25  and  C_26
REMARK                            x       y       z     vdW  Elec       q    Type
REMARK                         _______ _______ _______ _____ _____    ______ ____
ROOT
ATOM      1  N   UNL     1      32.695 -22.582 -18.394  0.00  0.00    -0.239 NA
ATOM      2  C   UNL     1      34.418 -22.887 -16.735  0.00  0.00    +0.022 C 
ATOM      3  C   UNL     1      34.872 -21.576 -18.692  0.00  0.00    +0.158 C 
ATOM      4  C   UNL     1      35.297 -22.117 -17.483  0.00  0.00    +0.040 C 
ATOM      5  C   UNL     1      33.142 -23.091 -17.224  0.00  0.00    +0.099 C 
ATOM      6  C   UNL     1      33.575 -21.837 -19.099  0.00  0.00    +0.136 C 
ENDROOT
BRANCH   2  10
ATOM      7  N   UNL     1      37.337 -25.297 -12.341  0.00  0.00    -0.280 N 
ATOM      8  N   UNL     1      36.067 -25.104 -11.935  0.00  0.00    -0.173 NA
ATOM      9  C   UNL     1      36.404 -24.405 -14.071  0.00  0.00    +0.032 A 
ATOM     10  C   UNL     1      34.831 -23.466 -15.470  0.00  0.00    +0.002 C 
ATOM     11  C   UNL     1      35.452 -24.547 -12.995  0.00  0.00    +0.102 A 
ATOM     12  C   UNL     1      36.171 -23.877 -15.334  0.00  0.00    +0.003 C 
ATOM     13  C   UNL     1      37.596 -24.894 -13.619  0.00  0.00    +0.053 A 
ATOM     14  C   UNL     1      33.851 -23.584 -14.434  0.00  0.00    +0.002 C 
ATOM     15  C   UNL     1      34.120 -24.127 -13.158  0.00  0.00    +0.021 C 
ATOM     16  C   UNL     1      38.932 -25.030 -14.224  0.00  0.00    +0.051 C 
ATOM     17  H   UNL     1      38.025 -25.696 -11.760  0.00  0.00    +0.189 HD
ENDBRANCH   2  10
BRANCH   3  18
ATOM     18  O   UNL     1      35.705 -20.817 -19.447  0.00  0.00    -0.476 OA
BRANCH  18  19
ATOM     19  C   UNL     1      35.136 -20.137 -20.567  0.00  0.00    +0.184 C 
BRANCH  19  20
ATOM     20  C   UNL     1      35.902 -18.838 -20.845  0.00  0.00    -0.017 C 
BRANCH  20  21
ATOM     21  N   UNL     1      37.243 -18.960 -20.266  0.00  0.00    +0.384 N 
ATOM     22  H   UNL     1      37.922 -18.515 -20.883  0.00  0.00    -0.089 HD
ATOM     23  H   UNL     1      37.478 -19.947 -20.157  0.00  0.00    -0.089 HD
ATOM     24  H   UNL     1      37.262 -18.503 -19.353  0.00  0.00    -0.089 HD
ENDBRANCH  20  21
BRANCH  20  25
ATOM     25  C   UNL     1      36.052 -18.530 -22.350  0.00  0.00    +0.008 C 
BRANCH  25  26
ATOM     26  C   UNL     1      35.314 -17.299 -22.817  0.00  0.00    -0.024 C 
ATOM     27  C   UNL     1      35.180 -16.220 -21.956  0.00  0.00    -0.004 C 
ATOM     28  C   UNL     1      34.785 -17.268 -24.097  0.00  0.00    -0.004 C 
ATOM     29  C   UNL     1      34.499 -15.082 -22.387  0.00  0.00    -0.000 C 
ATOM     30  C   UNL     1      34.104 -16.128 -24.528  0.00  0.00    -0.000 C 
ATOM     31  C   UNL     1      33.961 -15.036 -23.673  0.00  0.00    -0.000 C 
ENDBRANCH  25  26
ENDBRANCH  20  25
ENDBRANCH  19  20
ENDBRANCH  18  19
ENDBRANCH   3  18
TORSDOF 7
ENDMDL
MODEL 7
REMARK VINA RESULT:     -10.7      3.690     11.245
REMARK  Name = 11314340
REMARK  7 active torsions:
REMARK  status: ('A' for Active; 'I' for Inactive)
REMARK    1  A    between atoms: C_2  and  C_10
REMARK    2  A    between atoms: C_3  and  O_18
REMARK    3  A    between atoms: O_18  and  C_19
REMARK    4  A    between atoms: C_19  and  C_20
REMARK    5  A    between atoms: C_20  and  N_21
REMARK    6  A    between atoms: C_20  and  C_25
REMARK    7  A    between atoms: C_25  and  C_26
REMARK                            x       y       z     vdW  Elec       q    Type
REMARK                         _______ _______ _______ _____ _____    ______ ____
ROOT
ATOM      1  N   UNL     1      32.809 -21.711 -19.153  0.00  0.00    -0.239 NA
ATOM      2  C   UNL     1      34.933 -21.919 -18.030  0.00  0.00    +0.022 C 
ATOM      3  C   UNL     1      34.821 -20.837 -20.168  0.00  0.00    +0.158 C 
ATOM      4  C   UNL     1      35.569 -21.269 -19.077  0.00  0.00    +0.040 C 
ATOM      5  C   UNL     1      33.568 -22.116 -18.110  0.00  0.00    +0.099 C 
ATOM      6  C   UNL     1      33.458 -21.081 -20.158  0.00  0.00    +0.136 C 
ENDROOT
BRANCH   2  10
ATOM      7  N   UNL     1      36.638 -24.168 -12.964  0.00  0.00    -0.280 N 
ATOM      8  N   UNL     1      37.734 -23.713 -13.602  0.00  0.00    -0.173 NA
ATOM      9  C   UNL     1      35.835 -23.375 -14.804  0.00  0.00    +0.032 A 
ATOM     10  C   UNL     1      35.685 -22.382 -16.879  0.00  0.00    +0.002 C 
ATOM     11  C   UNL     1      37.269 -23.209 -14.760  0.00  0.00    +0.102 A 
ATOM     12  C   UNL     1      34.976 -22.989 -15.824  0.00  0.00    +0.003 C 
ATOM     13  C   UNL     1      35.467 -23.990 -13.642  0.00  0.00    +0.053 A 
ATOM     14  C   UNL     1      37.104 -22.195 -16.883  0.00  0.00    +0.002 C 
ATOM     15  C   UNL     1      37.952 -22.599 -15.827  0.00  0.00    +0.021 C 
ATOM     16  C   UNL     1      34.174 -24.429 -13.092  0.00  0.00    +0.051 C 
ATOM     17  H   UNL     1      36.680 -24.595 -12.077  0.00  0.00    +0.189 HD
ENDBRANCH   2  10
BRANCH   3  18
ATOM     18  O   UNL     1      35.411 -20.197 -21.209  0.00  0.00    -0.476 OA
BRANCH  18  19
ATOM     19  C   UNL     1      34.605 -19.288 -21.959  0.00  0.00    +0.184 C 
BRANCH  19  20
ATOM     20  C   UNL     1      35.382 -17.996 -22.241  0.00  0.00    -0.017 C 
BRANCH  20  21
ATOM     21  N   UNL     1      36.813 -18.314 -22.262  0.00  0.00    +0.384 N 
ATOM     22  H   UNL     1      36.957 -19.262 -21.917  0.00  0.00    -0.089 HD
ATOM     23  H   UNL     1      37.316 -17.655 -21.667  0.00  0.00    -0.089 HD
ATOM     24  H   UNL     1      37.163 -18.242 -23.218  0.00  0.00    -0.089 HD
ENDBRANCH  20  21
BRANCH  20  25
ATOM     25  C   UNL     1      35.012 -17.345 -23.590  0.00  0.00    +0.008 C 
BRANCH  25  26
ATOM     26  C   UNL     1      34.491 -15.932 -23.485  0.00  0.00    -0.024 C 
ATOM     27  C   UNL     1      33.813 -15.376 -24.560  0.00  0.00    -0.004 C 
ATOM     28  C   UNL     1      34.700 -15.215 -22.317  0.00  0.00    -0.004 C 
ATOM     29  C   UNL     1      33.332 -14.072 -24.464  0.00  0.00    -0.000 C 
ATOM     30  C   UNL     1      34.218 -13.910 -22.222  0.00  0.00    -0.000 C 
ATOM     31  C   UNL     1      33.534 -13.337 -23.294  0.00  0.00    -0.000 C 
ENDBRANCH  25  26
ENDBRANCH  20  25
ENDBRANCH  19  20
ENDBRANCH  18  19
ENDBRANCH   3  18
TORSDOF 7
ENDMDL
MODEL 8
REMARK VINA RESULT:     -10.6      4.930     11.486
REMARK  Name = 11314340
REMARK  7 active torsions:
REMARK  status: ('A' for Active; 'I' for Inactive)
REMARK    1  A    between atoms: C_2  and  C_10
REMARK    2  A    between atoms: C_3  and  O_18
REMARK    3  A    between atoms: O_18  and  C_19
REMARK    4  A    between atoms: C_19  and  C_20
REMARK    5  A    between atoms: C_20  and  N_21
REMARK    6  A    between atoms: C_20  and  C_25
REMARK    7  A    between atoms: C_25  and  C_26
REMARK                            x       y       z     vdW  Elec       q    Type
REMARK                         _______ _______ _______ _____ _____    ______ ____
ROOT
ATOM      1  N   UNL     1      36.994 -22.278 -16.419  0.00  0.00    -0.239 NA
ATOM      2  C   UNL     1      34.670 -22.914 -16.308  0.00  0.00    +0.022 C 
ATOM      3  C   UNL     1      35.560 -22.017 -18.347  0.00  0.00    +0.158 C 
ATOM      4  C   UNL     1      34.485 -22.529 -17.627  0.00  0.00    +0.040 C 
ATOM      5  C   UNL     1      35.927 -22.772 -15.751  0.00  0.00    +0.099 C 
ATOM      6  C   UNL     1      36.781 -21.912 -17.703  0.00  0.00    +0.136 C 
ENDROOT
BRANCH   2  10
ATOM      7  N   UNL     1      29.478 -24.431 -14.218  0.00  0.00    -0.280 N 
ATOM      8  N   UNL     1      30.417 -24.935 -13.393  0.00  0.00    -0.173 NA
ATOM      9  C   UNL     1      31.324 -23.783 -15.130  0.00  0.00    +0.032 A 
ATOM     10  C   UNL     1      33.569 -23.452 -15.531  0.00  0.00    +0.002 C 
ATOM     11  C   UNL     1      31.587 -24.549 -13.934  0.00  0.00    +0.102 A 
ATOM     12  C   UNL     1      32.257 -23.203 -15.978  0.00  0.00    +0.003 C 
ATOM     13  C   UNL     1      29.967 -23.728 -15.280  0.00  0.00    +0.053 A 
ATOM     14  C   UNL     1      33.882 -24.204 -14.354  0.00  0.00    +0.002 C 
ATOM     15  C   UNL     1      32.908 -24.782 -13.510  0.00  0.00    +0.021 C 
ATOM     16  C   UNL     1      29.082 -23.109 -16.281  0.00  0.00    +0.051 C 
ATOM     17  H   UNL     1      28.513 -24.561 -14.065  0.00  0.00    +0.189 HD
ENDBRANCH   2  10
BRANCH   3  18
ATOM     18  O   UNL     1      35.414 -21.632 -19.640  0.00  0.00    -0.476 OA
BRANCH  18  19
ATOM     19  C   UNL     1      34.517 -20.552 -19.904  0.00  0.00    +0.184 C 
BRANCH  19  20
ATOM     20  C   UNL     1      35.254 -19.411 -20.614  0.00  0.00    -0.017 C 
BRANCH  20  21
ATOM     21  N   UNL     1      36.639 -19.386 -20.135  0.00  0.00    +0.384 N 
ATOM     22  H   UNL     1      37.214 -18.849 -20.783  0.00  0.00    -0.089 HD
ATOM     23  H   UNL     1      36.995 -20.341 -20.074  0.00  0.00    -0.089 HD
ATOM     24  H   UNL     1      36.671 -18.953 -19.211  0.00  0.00    -0.089 HD
ENDBRANCH  20  21
BRANCH  20  25
ATOM     25  C   UNL     1      35.278 -19.564 -22.150  0.00  0.00    +0.008 C 
BRANCH  25  26
ATOM     26  C   UNL     1      34.917 -18.313 -22.913  0.00  0.00    -0.024 C 
ATOM     27  C   UNL     1      35.323 -17.079 -22.427  0.00  0.00    -0.004 C 
ATOM     28  C   UNL     1      34.187 -18.419 -24.087  0.00  0.00    -0.004 C 
ATOM     29  C   UNL     1      34.990 -15.923 -23.131  0.00  0.00    -0.000 C 
ATOM     30  C   UNL     1      33.854 -17.261 -24.791  0.00  0.00    -0.000 C 
ATOM     31  C   UNL     1      34.255 -16.014 -24.314  0.00  0.00    -0.000 C 
ENDBRANCH  25  26
ENDBRANCH  20  25
ENDBRANCH  19  20
ENDBRANCH  18  19
ENDBRANCH   3  18
TORSDOF 7
ENDMDL
MODEL 9
REMARK VINA RESULT:     -10.5      7.642     12.083
REMARK  Name = 11314340
REMARK  7 active torsions:
REMARK  status: ('A' for Active; 'I' for Inactive)
REMARK    1  A    between atoms: C_2  and  C_10
REMARK    2  A    between atoms: C_3  and  O_18
REMARK    3  A    between atoms: O_18  and  C_19
REMARK    4  A    between atoms: C_19  and  C_20
REMARK    5  A    between atoms: C_20  and  N_21
REMARK    6  A    between atoms: C_20  and  C_25
REMARK    7  A    between atoms: C_25  and  C_26
REMARK                            x       y       z     vdW  Elec       q    Type
REMARK                         _______ _______ _______ _____ _____    ______ ____
ROOT
ATOM      1  N   UNL     1      35.500 -24.644 -12.520  0.00  0.00    -0.239 NA
ATOM      2  C   UNL     1      34.083 -23.734 -14.246  0.00  0.00    +0.022 C 
ATOM      3  C   UNL     1      36.405 -23.135 -14.177  0.00  0.00    +0.158 C 
ATOM      4  C   UNL     1      35.154 -23.031 -14.777  0.00  0.00    +0.040 C 
ATOM      5  C   UNL     1      34.300 -24.519 -13.129  0.00  0.00    +0.099 C 
ATOM      6  C   UNL     1      36.524 -23.946 -13.061  0.00  0.00    +0.136 C 
ENDROOT
BRANCH   2  10
ATOM      7  N   UNL     1      28.484 -24.337 -15.633  0.00  0.00    -0.280 N 
ATOM      8  N   UNL     1      29.028 -23.449 -16.489  0.00  0.00    -0.173 NA
ATOM      9  C   UNL     1      30.541 -24.231 -14.984  0.00  0.00    +0.032 A 
ATOM     10  C   UNL     1      32.766 -23.645 -14.848  0.00  0.00    +0.002 C 
ATOM     11  C   UNL     1      30.316 -23.358 -16.112  0.00  0.00    +0.102 A 
ATOM     12  C   UNL     1      31.732 -24.430 -14.300  0.00  0.00    +0.003 C 
ATOM     13  C   UNL     1      29.350 -24.840 -14.706  0.00  0.00    +0.053 A 
ATOM     14  C   UNL     1      32.594 -22.765 -15.963  0.00  0.00    +0.002 C 
ATOM     15  C   UNL     1      31.367 -22.585 -16.639  0.00  0.00    +0.021 C 
ATOM     16  C   UNL     1      28.926 -25.820 -13.693  0.00  0.00    +0.051 C 
ATOM     17  H   UNL     1      27.536 -24.601 -15.673  0.00  0.00    +0.189 HD
ENDBRANCH   2  10
BRANCH   3  18
ATOM     18  O   UNL     1      37.474 -22.462 -14.672  0.00  0.00    -0.476 OA
BRANCH  18  19
ATOM     19  C   UNL     1      37.740 -22.592 -16.069  0.00  0.00    +0.184 C 
BRANCH  19  20
ATOM     20  C   UNL     1      37.090 -21.439 -16.843  0.00  0.00    -0.017 C 
BRANCH  20  21
ATOM     21  N   UNL     1      37.864 -20.220 -16.593  0.00  0.00    +0.384 N 
ATOM     22  H   UNL     1      37.548 -19.481 -17.221  0.00  0.00    -0.089 HD
ATOM     23  H   UNL     1      38.854 -20.406 -16.757  0.00  0.00    -0.089 HD
ATOM     24  H   UNL     1      37.731 -19.924 -15.625  0.00  0.00    -0.089 HD
ENDBRANCH  20  21
BRANCH  20  25
ATOM     25  C   UNL     1      37.046 -21.679 -18.367  0.00  0.00    +0.008 C 
BRANCH  25  26
ATOM     26  C   UNL     1      35.747 -21.286 -19.028  0.00  0.00    -0.024 C 
ATOM     27  C   UNL     1      35.755 -20.316 -20.020  0.00  0.00    -0.004 C 
ATOM     28  C   UNL     1      34.569 -21.901 -18.633  0.00  0.00    -0.004 C 
ATOM     29  C   UNL     1      34.556 -19.953 -20.632  0.00  0.00    -0.000 C 
ATOM     30  C   UNL     1      33.370 -21.536 -19.246  0.00  0.00    -0.000 C 
ATOM     31  C   UNL     1      33.362 -20.563 -20.244  0.00  0.00    -0.000 C 
ENDBRANCH  25  26
ENDBRANCH  20  25
ENDBRANCH  19  20
ENDBRANCH  18  19
ENDBRANCH   3  18
TORSDOF 7
ENDMDL
