MODEL 1
REMARK VINA RESULT:     -12.4      0.000      0.000
REMARK  Name = 25101874
REMARK  5 active torsions:
REMARK  status: ('A' for Active; 'I' for Inactive)
REMARK    1  A    between atoms: N_1  and  C_22
REMARK    2  A    between atoms: C_2  and  N_8
REMARK    3  A    between atoms: N_8  and  C_11
REMARK    4  A    between atoms: C_11  and  C_14
REMARK    5  A    between atoms: C_22  and  C_28
REMARK                            x       y       z     vdW  Elec       q    Type
REMARK                         _______ _______ _______ _____ _____    ______ ____
ROOT
ATOM      1  N   UNL     1      34.351 -22.656 -18.527  0.00  0.00    +0.388 N 
ATOM      2  C   UNL     1      34.920 -20.208 -20.024  0.00  0.00    -0.066 C 
ATOM      3  C   UNL     1      35.664 -22.005 -18.417  0.00  0.00    -0.079 C 
ATOM      4  C   UNL     1      33.288 -21.673 -18.776  0.00  0.00    -0.079 C 
ATOM      5  C   UNL     1      36.007 -21.235 -19.695  0.00  0.00    -0.044 C 
ATOM      6  C   UNL     1      33.551 -20.891 -20.066  0.00  0.00    -0.044 C 
ATOM      7  H   UNL     1      34.383 -23.293 -19.322  0.00  0.00    -0.080 HD
ENDROOT
BRANCH   2   8
ATOM      8  N   UNL     1      35.215 -19.550 -21.295  0.00  0.00    +0.389 N 
ATOM      9  H   UNL     1      34.377 -19.555 -21.876  0.00  0.00    -0.084 HD
ATOM     10  H   UNL     1      35.971 -20.056 -21.757  0.00  0.00    -0.084 HD
BRANCH   8  11
ATOM     11  C   UNL     1      35.639 -18.175 -21.079  0.00  0.00    -0.034 C 
BRANCH  11  14
ATOM     12  O   UNL     1      33.791 -14.924 -25.239  0.00  0.00    -0.474 OA
ATOM     13  N   UNL     1      35.019 -17.793 -23.399  0.00  0.00    -0.247 NA
ATOM     14  C   UNL     1      35.142 -17.257 -22.165  0.00  0.00    +0.037 C 
ATOM     15  C   UNL     1      34.843 -15.939 -21.855  0.00  0.00    +0.011 C 
ATOM     16  C   UNL     1      34.389 -15.106 -22.880  0.00  0.00    +0.015 C 
ATOM     17  C   UNL     1      34.053 -13.671 -22.596  0.00  0.00    +0.033 C 
ATOM     18  C   UNL     1      34.229 -15.639 -24.161  0.00  0.00    +0.154 C 
ATOM     19  C   UNL     1      33.973 -12.882 -23.896  0.00  0.00    +0.052 C 
ATOM     20  C   UNL     1      34.566 -16.968 -24.369  0.00  0.00    +0.135 C 
ATOM     21  C   UNL     1      33.169 -13.674 -24.916  0.00  0.00    +0.206 C 
ENDBRANCH  11  14
ENDBRANCH   8  11
ENDBRANCH   2   8
BRANCH   1  22
ATOM     22  C   UNL     1      34.061 -23.429 -17.319  0.00  0.00    -0.055 C 
BRANCH  22  28
ATOM     23  O   UNL     1      31.543 -22.805 -15.131  0.00  0.00    -0.273 OA
ATOM     24  O   UNL     1      38.317 -23.843 -14.161  0.00  0.00    -0.270 OA
ATOM     25  N   UNL     1      33.827 -23.207 -14.858  0.00  0.00    -0.261 N 
ATOM     26  N   UNL     1      36.039 -23.543 -14.489  0.00  0.00    -0.255 N 
ATOM     27  N   UNL     1      33.180 -24.394 -12.400  0.00  0.00    -0.262 NA
ATOM     28  C   UNL     1      34.475 -22.664 -16.068  0.00  0.00    +0.076 C 
ATOM     29  C   UNL     1      35.991 -22.823 -15.770  0.00  0.00    +0.113 C 
ATOM     30  C   UNL     1      34.771 -23.704 -14.020  0.00  0.00    +0.196 C 
ATOM     31  C   UNL     1      34.468 -24.271 -12.855  0.00  0.00    +0.092 C 
ATOM     32  C   UNL     1      32.501 -23.235 -14.509  0.00  0.00    +0.252 C 
ATOM     33  C   UNL     1      37.152 -23.971 -13.793  0.00  0.00    +0.251 C 
ATOM     34  C   UNL     1      35.566 -24.763 -12.054  0.00  0.00    +0.022 C 
ATOM     35  C   UNL     1      32.250 -23.906 -13.169  0.00  0.00    +0.210 C 
ATOM     36  C   UNL     1      36.839 -24.637 -12.476  0.00  0.00    +0.059 C 
ENDBRANCH  22  28
ENDBRANCH   1  22
TORSDOF 5
ENDMDL
MODEL 2
REMARK VINA RESULT:     -12.3      1.279      3.050
REMARK  Name = 25101874
REMARK  5 active torsions:
REMARK  status: ('A' for Active; 'I' for Inactive)
REMARK    1  A    between atoms: N_1  and  C_22
REMARK    2  A    between atoms: C_2  and  N_8
REMARK    3  A    between atoms: N_8  and  C_11
REMARK    4  A    between atoms: C_11  and  C_14
REMARK    5  A    between atoms: C_22  and  C_28
REMARK                            x       y       z     vdW  Elec       q    Type
REMARK                         _______ _______ _______ _____ _____    ______ ____
ROOT
ATOM      1  N   UNL     1      34.924 -22.021 -18.462  0.00  0.00    +0.388 N 
ATOM      2  C   UNL     1      34.868 -20.029 -20.604  0.00  0.00    -0.066 C 
ATOM      3  C   UNL     1      36.123 -21.232 -18.776  0.00  0.00    -0.079 C 
ATOM      4  C   UNL     1      33.698 -21.258 -18.737  0.00  0.00    -0.079 C 
ATOM      5  C   UNL     1      36.136 -20.809 -20.247  0.00  0.00    -0.044 C 
ATOM      6  C   UNL     1      33.629 -20.836 -20.207  0.00  0.00    -0.044 C 
ATOM      7  H   UNL     1      34.923 -22.844 -19.064  0.00  0.00    -0.080 HD
ENDROOT
BRANCH   2   8
ATOM      8  N   UNL     1      34.852 -19.716 -22.031  0.00  0.00    +0.389 N 
ATOM      9  H   UNL     1      33.922 -19.388 -22.291  0.00  0.00    -0.084 HD
ATOM     10  H   UNL     1      35.091 -20.559 -22.553  0.00  0.00    -0.084 HD
BRANCH   8  11
ATOM     11  C   UNL     1      35.827 -18.682 -22.345  0.00  0.00    -0.034 C 
BRANCH  11  14
ATOM     12  O   UNL     1      33.358 -14.200 -24.606  0.00  0.00    -0.474 OA
ATOM     13  N   UNL     1      34.715 -17.532 -24.177  0.00  0.00    -0.247 NA
ATOM     14  C   UNL     1      35.175 -17.447 -22.909  0.00  0.00    +0.037 C 
ATOM     15  C   UNL     1      35.080 -16.311 -22.121  0.00  0.00    +0.011 C 
ATOM     16  C   UNL     1      34.477 -15.176 -22.667  0.00  0.00    +0.015 C 
ATOM     17  C   UNL     1      34.351 -13.920 -21.855  0.00  0.00    +0.033 C 
ATOM     18  C   UNL     1      33.971 -15.242 -23.967  0.00  0.00    +0.154 C 
ATOM     19  C   UNL     1      34.039 -12.736 -22.762  0.00  0.00    +0.052 C 
ATOM     20  C   UNL     1      34.125 -16.424 -24.677  0.00  0.00    +0.135 C 
ATOM     21  C   UNL     1      32.948 -13.130 -23.746  0.00  0.00    +0.206 C 
ENDBRANCH  11  14
ENDBRANCH   8  11
ENDBRANCH   2   8
BRANCH   1  22
ATOM     22  C   UNL     1      34.952 -22.460 -17.067  0.00  0.00    -0.055 C 
BRANCH  22  28
ATOM     23  O   UNL     1      35.968 -24.793 -14.821  0.00  0.00    -0.273 OA
ATOM     24  O   UNL     1      29.665 -22.493 -16.519  0.00  0.00    -0.270 OA
ATOM     25  N   UNL     1      33.870 -23.948 -15.400  0.00  0.00    -0.261 N 
ATOM     26  N   UNL     1      31.784 -23.225 -15.921  0.00  0.00    -0.255 N 
ATOM     27  N   UNL     1      33.108 -24.404 -12.740  0.00  0.00    -0.262 NA
ATOM     28  C   UNL     1      33.962 -23.595 -16.831  0.00  0.00    +0.076 C 
ATOM     29  C   UNL     1      32.511 -23.181 -17.197  0.00  0.00    +0.113 C 
ATOM     30  C   UNL     1      32.616 -23.694 -14.949  0.00  0.00    +0.196 C 
ATOM     31  C   UNL     1      32.252 -23.906 -13.687  0.00  0.00    +0.092 C 
ATOM     32  C   UNL     1      34.817 -24.480 -14.564  0.00  0.00    +0.252 C 
ATOM     33  C   UNL     1      30.461 -22.908 -15.681  0.00  0.00    +0.251 C 
ATOM     34  C   UNL     1      30.885 -23.593 -13.332  0.00  0.00    +0.022 C 
ATOM     35  C   UNL     1      34.314 -24.681 -13.143  0.00  0.00    +0.210 C 
ATOM     36  C   UNL     1      30.025 -23.119 -14.253  0.00  0.00    +0.059 C 
ENDBRANCH  22  28
ENDBRANCH   1  22
TORSDOF 5
ENDMDL
MODEL 3
REMARK VINA RESULT:     -11.9      5.499     12.734
REMARK  Name = 25101874
REMARK  5 active torsions:
REMARK  status: ('A' for Active; 'I' for Inactive)
REMARK    1  A    between atoms: N_1  and  C_22
REMARK    2  A    between atoms: C_2  and  N_8
REMARK    3  A    between atoms: N_8  and  C_11
REMARK    4  A    between atoms: C_11  and  C_14
REMARK    5  A    between atoms: C_22  and  C_28
REMARK                            x       y       z     vdW  Elec       q    Type
REMARK                         _______ _______ _______ _____ _____    ______ ____
ROOT
ATOM      1  N   UNL     1      33.378 -12.135 -23.454  0.00  0.00    +0.388 N 
ATOM      2  C   UNL     1      33.963 -14.896 -24.224  0.00  0.00    -0.066 C 
ATOM      3  C   UNL     1      34.182 -12.998 -22.578  0.00  0.00    -0.079 C 
ATOM      4  C   UNL     1      33.566 -12.489 -24.868  0.00  0.00    -0.079 C 
ATOM      5  C   UNL     1      33.811 -14.472 -22.762  0.00  0.00    -0.044 C 
ATOM      6  C   UNL     1      33.174 -13.945 -25.129  0.00  0.00    -0.044 C 
ATOM      7  H   UNL     1      32.396 -12.281 -23.222  0.00  0.00    -0.080 HD
ENDROOT
BRANCH   2   8
ATOM      8  N   UNL     1      33.514 -16.276 -24.399  0.00  0.00    +0.389 N 
ATOM      9  H   UNL     1      32.921 -16.332 -25.228  0.00  0.00    -0.084 HD
ATOM     10  H   UNL     1      32.992 -16.557 -23.569  0.00  0.00    -0.084 HD
BRANCH   8  11
ATOM     11  C   UNL     1      34.648 -17.172 -24.562  0.00  0.00    -0.034 C 
BRANCH  11  14
ATOM     12  O   UNL     1      35.097 -20.651 -20.205  0.00  0.00    -0.474 OA
ATOM     13  N   UNL     1      33.786 -18.915 -23.102  0.00  0.00    -0.247 NA
ATOM     14  C   UNL     1      34.817 -18.085 -23.377  0.00  0.00    +0.037 C 
ATOM     15  C   UNL     1      35.991 -18.033 -22.641  0.00  0.00    +0.011 C 
ATOM     16  C   UNL     1      36.121 -18.885 -21.543  0.00  0.00    +0.015 C 
ATOM     17  C   UNL     1      37.373 -18.865 -20.714  0.00  0.00    +0.033 C 
ATOM     18  C   UNL     1      35.082 -19.770 -21.249  0.00  0.00    +0.154 C 
ATOM     19  C   UNL     1      37.132 -19.561 -19.381  0.00  0.00    +0.052 C 
ATOM     20  C   UNL     1      33.944 -19.737 -22.041  0.00  0.00    +0.135 C 
ATOM     21  C   UNL     1      36.388 -20.866 -19.622  0.00  0.00    +0.206 C 
ENDBRANCH  11  14
ENDBRANCH   8  11
ENDBRANCH   2   8
BRANCH   1  22
ATOM     22  C   UNL     1      33.708 -10.728 -23.230  0.00  0.00    -0.055 C 
BRANCH  22  28
ATOM     23  O   UNL     1      31.735 -11.838 -20.701  0.00  0.00    -0.273 OA
ATOM     24  O   UNL     1      32.874  -5.479 -23.185  0.00  0.00    -0.270 OA
ATOM     25  N   UNL     1      32.191  -9.710 -21.549  0.00  0.00    -0.261 N 
ATOM     26  N   UNL     1      32.533  -7.608 -22.326  0.00  0.00    -0.255 N 
ATOM     27  N   UNL     1      31.811  -8.745 -18.943  0.00  0.00    -0.262 NA
ATOM     28  C   UNL     1      32.450  -9.902 -22.990  0.00  0.00    +0.076 C 
ATOM     29  C   UNL     1      32.601  -8.452 -23.527  0.00  0.00    +0.113 C 
ATOM     30  C   UNL     1      32.273  -8.391 -21.243  0.00  0.00    +0.196 C 
ATOM     31  C   UNL     1      32.098  -7.930 -20.008  0.00  0.00    +0.092 C 
ATOM     32  C   UNL     1      31.877 -10.631 -20.584  0.00  0.00    +0.252 C 
ATOM     33  C   UNL     1      32.652  -6.234 -22.242  0.00  0.00    +0.251 C 
ATOM     34  C   UNL     1      32.213  -6.502 -19.813  0.00  0.00    +0.022 C 
ATOM     35  C   UNL     1      31.702 -10.016 -19.205  0.00  0.00    +0.210 C 
ATOM     36  C   UNL     1      32.477  -5.683 -20.849  0.00  0.00    +0.059 C 
ENDBRANCH  22  28
ENDBRANCH   1  22
TORSDOF 5
ENDMDL
MODEL 4
REMARK VINA RESULT:     -11.4      1.646      2.659
REMARK  Name = 25101874
REMARK  5 active torsions:
REMARK  status: ('A' for Active; 'I' for Inactive)
REMARK    1  A    between atoms: N_1  and  C_22
REMARK    2  A    between atoms: C_2  and  N_8
REMARK    3  A    between atoms: N_8  and  C_11
REMARK    4  A    between atoms: C_11  and  C_14
REMARK    5  A    between atoms: C_22  and  C_28
REMARK                            x       y       z     vdW  Elec       q    Type
REMARK                         _______ _______ _______ _____ _____    ______ ____
ROOT
ATOM      1  N   UNL     1      35.822 -21.117 -20.315  0.00  0.00    +0.388 N 
ATOM      2  C   UNL     1      35.780 -18.313 -21.151  0.00  0.00    -0.066 C 
ATOM      3  C   UNL     1      36.849 -20.181 -19.836  0.00  0.00    -0.079 C 
ATOM      4  C   UNL     1      34.544 -20.430 -20.551  0.00  0.00    -0.079 C 
ATOM      5  C   UNL     1      37.083 -19.054 -20.844  0.00  0.00    -0.044 C 
ATOM      6  C   UNL     1      34.701 -19.310 -21.583  0.00  0.00    -0.044 C 
ATOM      7  H   UNL     1      36.139 -21.502 -21.204  0.00  0.00    -0.080 HD
ENDROOT
BRANCH   2   8
ATOM      8  N   UNL     1      36.003 -17.305 -22.185  0.00  0.00    +0.389 N 
ATOM      9  H   UNL     1      36.775 -17.602 -22.782  0.00  0.00    -0.084 HD
ATOM     10  H   UNL     1      36.224 -16.417 -21.733  0.00  0.00    -0.084 HD
BRANCH   8  11
ATOM     11  C   UNL     1      34.810 -17.128 -23.000  0.00  0.00    -0.034 C 
BRANCH  11  14
ATOM     12  O   UNL     1      33.635 -11.689 -23.572  0.00  0.00    -0.474 OA
ATOM     13  N   UNL     1      34.509 -14.886 -22.109  0.00  0.00    -0.247 NA
ATOM     14  C   UNL     1      34.482 -15.672 -23.207  0.00  0.00    +0.037 C 
ATOM     15  C   UNL     1      34.175 -15.220 -24.480  0.00  0.00    +0.011 C 
ATOM     16  C   UNL     1      33.868 -13.868 -24.646  0.00  0.00    +0.015 C 
ATOM     17  C   UNL     1      33.527 -13.330 -26.005  0.00  0.00    +0.033 C 
ATOM     18  C   UNL     1      33.911 -13.026 -23.533  0.00  0.00    +0.154 C 
ATOM     19  C   UNL     1      32.857 -11.968 -25.880  0.00  0.00    +0.052 C 
ATOM     20  C   UNL     1      34.220 -13.579 -22.299  0.00  0.00    +0.135 C 
ATOM     21  C   UNL     1      33.632 -11.116 -24.885  0.00  0.00    +0.206 C 
ENDBRANCH  11  14
ENDBRANCH   8  11
ENDBRANCH   2   8
BRANCH   1  22
ATOM     22  C   UNL     1      35.646 -22.214 -19.365  0.00  0.00    -0.055 C 
BRANCH  22  28
ATOM     23  O   UNL     1      32.401 -21.914 -18.415  0.00  0.00    -0.273 OA
ATOM     24  O   UNL     1      38.140 -23.266 -14.790  0.00  0.00    -0.270 OA
ATOM     25  N   UNL     1      34.362 -22.412 -17.249  0.00  0.00    -0.261 N 
ATOM     26  N   UNL     1      36.214 -22.860 -16.019  0.00  0.00    -0.255 N 
ATOM     27  N   UNL     1      32.783 -23.986 -15.548  0.00  0.00    -0.262 NA
ATOM     28  C   UNL     1      35.439 -21.685 -17.950  0.00  0.00    +0.076 C 
ATOM     29  C   UNL     1      36.684 -21.930 -17.055  0.00  0.00    +0.113 C 
ATOM     30  C   UNL     1      34.877 -23.068 -16.179  0.00  0.00    +0.196 C 
ATOM     31  C   UNL     1      34.132 -23.819 -15.373  0.00  0.00    +0.092 C 
ATOM     32  C   UNL     1      33.019 -22.467 -17.520  0.00  0.00    +0.252 C 
ATOM     33  C   UNL     1      36.939 -23.427 -14.990  0.00  0.00    +0.251 C 
ATOM     34  C   UNL     1      34.803 -24.467 -14.268  0.00  0.00    +0.022 C 
ATOM     35  C   UNL     1      32.250 -23.352 -16.553  0.00  0.00    +0.210 C 
ATOM     36  C   UNL     1      36.124 -24.301 -14.069  0.00  0.00    +0.059 C 
ENDBRANCH  22  28
ENDBRANCH   1  22
TORSDOF 5
ENDMDL
MODEL 5
REMARK VINA RESULT:     -11.1      7.422     15.866
REMARK  Name = 25101874
REMARK  5 active torsions:
REMARK  status: ('A' for Active; 'I' for Inactive)
REMARK    1  A    between atoms: N_1  and  C_22
REMARK    2  A    between atoms: C_2  and  N_8
REMARK    3  A    between atoms: N_8  and  C_11
REMARK    4  A    between atoms: C_11  and  C_14
REMARK    5  A    between atoms: C_22  and  C_28
REMARK                            x       y       z     vdW  Elec       q    Type
REMARK                         _______ _______ _______ _____ _____    ______ ____
ROOT
ATOM      1  N   UNL     1      34.309  -8.506 -23.325  0.00  0.00    +0.388 N 
ATOM      2  C   UNL     1      33.660 -11.044 -24.628  0.00  0.00    -0.066 C 
ATOM      3  C   UNL     1      34.874  -8.833 -24.642  0.00  0.00    -0.079 C 
ATOM      4  C   UNL     1      32.983  -9.115 -23.149  0.00  0.00    -0.079 C 
ATOM      5  C   UNL     1      35.008 -10.347 -24.825  0.00  0.00    -0.044 C 
ATOM      6  C   UNL     1      33.054 -10.638 -23.281  0.00  0.00    -0.044 C 
ATOM      7  H   UNL     1      34.929  -8.891 -22.614  0.00  0.00    -0.080 HD
ENDROOT
BRANCH   2   8
ATOM      8  N   UNL     1      33.824 -12.494 -24.711  0.00  0.00    +0.389 N 
ATOM      9  H   UNL     1      34.775 -12.706 -25.012  0.00  0.00    -0.084 HD
ATOM     10  H   UNL     1      33.148 -12.861 -25.382  0.00  0.00    -0.084 HD
BRANCH   8  11
ATOM     11  C   UNL     1      33.582 -13.116 -23.418  0.00  0.00    -0.034 C 
BRANCH  11  14
ATOM     12  O   UNL     1      35.099 -18.499 -23.563  0.00  0.00    -0.474 OA
ATOM     13  N   UNL     1      33.818 -15.256 -24.549  0.00  0.00    -0.247 NA
ATOM     14  C   UNL     1      34.003 -14.562 -23.404  0.00  0.00    +0.037 C 
ATOM     15  C   UNL     1      34.543 -15.100 -22.247  0.00  0.00    +0.011 C 
ATOM     16  C   UNL     1      34.920 -16.445 -22.256  0.00  0.00    +0.015 C 
ATOM     17  C   UNL     1      35.509 -17.075 -21.027  0.00  0.00    +0.033 C 
ATOM     18  C   UNL     1      34.764 -17.181 -23.432  0.00  0.00    +0.154 C 
ATOM     19  C   UNL     1      35.467 -18.593 -21.141  0.00  0.00    +0.052 C 
ATOM     20  C   UNL     1      34.203 -16.552 -24.534  0.00  0.00    +0.135 C 
ATOM     21  C   UNL     1      35.946 -19.006 -22.525  0.00  0.00    +0.206 C 
ENDBRANCH  11  14
ENDBRANCH   8  11
ENDBRANCH   2   8
BRANCH   1  22
ATOM     22  C   UNL     1      34.235  -7.056 -23.147  0.00  0.00    -0.055 C 
BRANCH  22  28
ATOM     23  O   UNL     1      31.223  -7.034 -21.583  0.00  0.00    -0.273 OA
ATOM     24  O   UNL     1      33.983  -2.777 -26.290  0.00  0.00    -0.270 OA
ATOM     25  N   UNL     1      32.220  -5.606 -23.138  0.00  0.00    -0.261 N 
ATOM     26  N   UNL     1      33.083  -4.181 -24.677  0.00  0.00    -0.255 N 
ATOM     27  N   UNL     1      30.779  -3.522 -21.935  0.00  0.00    -0.262 NA
ATOM     28  C   UNL     1      33.094  -6.462 -23.964  0.00  0.00    +0.076 C 
ATOM     29  C   UNL     1      33.613  -5.496 -25.064  0.00  0.00    +0.113 C 
ATOM     30  C   UNL     1      32.279  -4.327 -23.587  0.00  0.00    +0.196 C 
ATOM     31  C   UNL     1      31.601  -3.335 -23.017  0.00  0.00    +0.092 C 
ATOM     32  C   UNL     1      31.410  -5.936 -22.082  0.00  0.00    +0.252 C 
ATOM     33  C   UNL     1      33.281  -2.965 -25.301  0.00  0.00    +0.251 C 
ATOM     34  C   UNL     1      31.750  -2.016 -23.591  0.00  0.00    +0.022 C 
ATOM     35  C   UNL     1      30.681  -4.741 -21.491  0.00  0.00    +0.210 C 
ATOM     36  C   UNL     1      32.539  -1.816 -24.664  0.00  0.00    +0.059 C 
ENDBRANCH  22  28
ENDBRANCH   1  22
TORSDOF 5
ENDMDL
MODEL 6
REMARK VINA RESULT:     -11.0      4.858     12.452
REMARK  Name = 25101874
REMARK  5 active torsions:
REMARK  status: ('A' for Active; 'I' for Inactive)
REMARK    1  A    between atoms: N_1  and  C_22
REMARK    2  A    between atoms: C_2  and  N_8
REMARK    3  A    between atoms: N_8  and  C_11
REMARK    4  A    between atoms: C_11  and  C_14
REMARK    5  A    between atoms: C_22  and  C_28
REMARK                            x       y       z     vdW  Elec       q    Type
REMARK                         _______ _______ _______ _____ _____    ______ ____
ROOT
ATOM      1  N   UNL     1      33.341 -13.052 -21.653  0.00  0.00    +0.388 N 
ATOM      2  C   UNL     1      34.310 -15.596 -22.725  0.00  0.00    -0.066 C 
ATOM      3  C   UNL     1      32.733 -13.632 -22.859  0.00  0.00    -0.079 C 
ATOM      4  C   UNL     1      33.835 -14.101 -20.749  0.00  0.00    -0.079 C 
ATOM      5  C   UNL     1      33.739 -14.497 -23.623  0.00  0.00    -0.044 C 
ATOM      6  C   UNL     1      34.877 -14.981 -21.443  0.00  0.00    -0.044 C 
ATOM      7  H   UNL     1      34.138 -12.488 -21.945  0.00  0.00    -0.080 HD
ENDROOT
BRANCH   2   8
ATOM      8  N   UNL     1      35.337 -16.351 -23.440  0.00  0.00    +0.389 N 
ATOM      9  H   UNL     1      36.220 -16.277 -22.935  0.00  0.00    -0.084 HD
ATOM     10  H   UNL     1      35.432 -15.963 -24.380  0.00  0.00    -0.084 HD
BRANCH   8  11
ATOM     11  C   UNL     1      34.966 -17.753 -23.551  0.00  0.00    -0.034 C 
BRANCH  11  14
ATOM     12  O   UNL     1      36.959 -20.645 -19.197  0.00  0.00    -0.474 OA
ATOM     13  N   UNL     1      36.745 -18.381 -22.018  0.00  0.00    -0.247 NA
ATOM     14  C   UNL     1      35.455 -18.558 -22.376  0.00  0.00    +0.037 C 
ATOM     15  C   UNL     1      34.580 -19.421 -21.734  0.00  0.00    +0.011 C 
ATOM     16  C   UNL     1      35.058 -20.161 -20.650  0.00  0.00    +0.015 C 
ATOM     17  C   UNL     1      34.151 -21.111 -19.923  0.00  0.00    +0.033 C 
ATOM     18  C   UNL     1      36.381 -19.981 -20.242  0.00  0.00    +0.154 C 
ATOM     19  C   UNL     1      34.969 -22.071 -19.069  0.00  0.00    +0.052 C 
ATOM     20  C   UNL     1      37.179 -19.100 -20.959  0.00  0.00    +0.135 C 
ATOM     21  C   UNL     1      36.034 -21.289 -18.313  0.00  0.00    +0.206 C 
ENDBRANCH  11  14
ENDBRANCH   8  11
ENDBRANCH   2   8
BRANCH   1  22
ATOM     22  C   UNL     1      32.383 -12.189 -20.962  0.00  0.00    -0.055 C 
BRANCH  22  28
ATOM     23  O   UNL     1      30.840  -9.637 -19.342  0.00  0.00    -0.273 OA
ATOM     24  O   UNL     1      34.765  -9.753 -25.041  0.00  0.00    -0.270 OA
ATOM     25  N   UNL     1      32.207  -9.728 -21.233  0.00  0.00    -0.261 N 
ATOM     26  N   UNL     1      33.489  -9.715 -23.103  0.00  0.00    -0.255 N 
ATOM     27  N   UNL     1      33.119  -7.173 -20.522  0.00  0.00    -0.262 NA
ATOM     28  C   UNL     1      31.939 -11.039 -21.857  0.00  0.00    +0.076 C 
ATOM     29  C   UNL     1      32.755 -10.986 -23.177  0.00  0.00    +0.113 C 
ATOM     30  C   UNL     1      33.107  -9.043 -21.982  0.00  0.00    +0.196 C 
ATOM     31  C   UNL     1      33.545  -7.833 -21.646  0.00  0.00    +0.092 C 
ATOM     32  C   UNL     1      31.675  -9.170 -20.099  0.00  0.00    +0.252 C 
ATOM     33  C   UNL     1      34.393  -9.198 -24.011  0.00  0.00    +0.251 C 
ATOM     34  C   UNL     1      34.506  -7.209 -22.528  0.00  0.00    +0.022 C 
ATOM     35  C   UNL     1      32.238  -7.792 -19.791  0.00  0.00    +0.210 C 
ATOM     36  C   UNL     1      34.923  -7.833 -23.646  0.00  0.00    +0.059 C 
ENDBRANCH  22  28
ENDBRANCH   1  22
TORSDOF 5
ENDMDL
MODEL 7
REMARK VINA RESULT:     -10.9      1.765      2.665
REMARK  Name = 25101874
REMARK  5 active torsions:
REMARK  status: ('A' for Active; 'I' for Inactive)
REMARK    1  A    between atoms: N_1  and  C_22
REMARK    2  A    between atoms: C_2  and  N_8
REMARK    3  A    between atoms: N_8  and  C_11
REMARK    4  A    between atoms: C_11  and  C_14
REMARK    5  A    between atoms: C_22  and  C_28
REMARK                            x       y       z     vdW  Elec       q    Type
REMARK                         _______ _______ _______ _____ _____    ______ ____
ROOT
ATOM      1  N   UNL     1      34.852 -23.253 -16.734  0.00  0.00    +0.388 N 
ATOM      2  C   UNL     1      34.857 -21.340 -18.948  0.00  0.00    -0.066 C 
ATOM      3  C   UNL     1      35.822 -22.149 -16.762  0.00  0.00    -0.079 C 
ATOM      4  C   UNL     1      33.594 -22.872 -17.392  0.00  0.00    -0.079 C 
ATOM      5  C   UNL     1      36.136 -21.725 -18.199  0.00  0.00    -0.044 C 
ATOM      6  C   UNL     1      33.833 -22.473 -18.850  0.00  0.00    -0.044 C 
ATOM      7  H   UNL     1      35.252 -24.035 -17.250  0.00  0.00    -0.080 HD
ENDROOT
BRANCH   2   8
ATOM      8  N   UNL     1      35.163 -21.031 -20.343  0.00  0.00    +0.389 N 
ATOM      9  H   UNL     1      34.328 -20.656 -20.793  0.00  0.00    -0.084 HD
ATOM     10  H   UNL     1      35.464 -21.887 -20.809  0.00  0.00    -0.084 HD
BRANCH   8  11
ATOM     11  C   UNL     1      36.235 -20.051 -20.433  0.00  0.00    -0.034 C 
BRANCH  11  14
ATOM     12  O   UNL     1      34.518 -15.154 -22.522  0.00  0.00    -0.474 OA
ATOM     13  N   UNL     1      35.688 -17.691 -20.216  0.00  0.00    -0.247 NA
ATOM     14  C   UNL     1      35.763 -18.757 -21.043  0.00  0.00    +0.037 C 
ATOM     15  C   UNL     1      35.434 -18.722 -22.389  0.00  0.00    +0.011 C 
ATOM     16  C   UNL     1      34.993 -17.513 -22.931  0.00  0.00    +0.015 C 
ATOM     17  C   UNL     1      34.623 -17.424 -24.383  0.00  0.00    +0.033 C 
ATOM     18  C   UNL     1      34.929 -16.389 -22.106  0.00  0.00    +0.154 C 
ATOM     19  C   UNL     1      33.815 -16.160 -24.644  0.00  0.00    +0.052 C 
ATOM     20  C   UNL     1      35.271 -16.531 -20.769  0.00  0.00    +0.135 C 
ATOM     21  C   UNL     1      34.480 -14.984 -23.944  0.00  0.00    +0.206 C 
ENDBRANCH  11  14
ENDBRANCH   8  11
ENDBRANCH   2   8
BRANCH   1  22
ATOM     22  C   UNL     1      34.602 -23.679 -15.357  0.00  0.00    -0.055 C 
BRANCH  22  28
ATOM     23  O   UNL     1      33.712 -23.521 -12.085  0.00  0.00    -0.273 OA
ATOM     24  O   UNL     1      39.818 -24.675 -15.134  0.00  0.00    -0.270 OA
ATOM     25  N   UNL     1      35.737 -23.950 -13.166  0.00  0.00    -0.261 N 
ATOM     26  N   UNL     1      37.759 -24.335 -14.119  0.00  0.00    -0.255 N 
ATOM     27  N   UNL     1      36.382 -25.605 -10.996  0.00  0.00    -0.262 NA
ATOM     28  C   UNL     1      35.693 -23.173 -14.421  0.00  0.00    +0.076 C 
ATOM     29  C   UNL     1      37.110 -23.376 -15.024  0.00  0.00    +0.113 C 
ATOM     30  C   UNL     1      36.927 -24.596 -13.073  0.00  0.00    +0.196 C 
ATOM     31  C   UNL     1      37.235 -25.384 -12.047  0.00  0.00    +0.092 C 
ATOM     32  C   UNL     1      34.805 -24.058 -12.167  0.00  0.00    +0.252 C 
ATOM     33  C   UNL     1      39.023 -24.883 -14.221  0.00  0.00    +0.251 C 
ATOM     34  C   UNL     1      38.535 -26.016 -12.066  0.00  0.00    +0.022 C 
ATOM     35  C   UNL     1      35.240 -24.983 -11.042  0.00  0.00    +0.210 C 
ATOM     36  C   UNL     1      39.393 -25.798 -13.081  0.00  0.00    +0.059 C 
ENDBRANCH  22  28
ENDBRANCH   1  22
TORSDOF 5
ENDMDL
MODEL 8
REMARK VINA RESULT:     -10.9      7.193     15.627
REMARK  Name = 25101874
REMARK  5 active torsions:
REMARK  status: ('A' for Active; 'I' for Inactive)
REMARK    1  A    between atoms: N_1  and  C_22
REMARK    2  A    between atoms: C_2  and  N_8
REMARK    3  A    between atoms: N_8  and  C_11
REMARK    4  A    between atoms: C_11  and  C_14
REMARK    5  A    between atoms: C_22  and  C_28
REMARK                            x       y       z     vdW  Elec       q    Type
REMARK                         _______ _______ _______ _____ _____    ______ ____
ROOT
ATOM      1  N   UNL     1      32.216  -9.070 -22.486  0.00  0.00    +0.388 N 
ATOM      2  C   UNL     1      32.537 -11.978 -22.559  0.00  0.00    -0.066 C 
ATOM      3  C   UNL     1      32.628  -9.743 -23.726  0.00  0.00    -0.079 C 
ATOM      4  C   UNL     1      31.348  -9.935 -21.674  0.00  0.00    -0.079 C 
ATOM      5  C   UNL     1      33.382 -11.041 -23.426  0.00  0.00    -0.044 C 
ATOM      6  C   UNL     1      32.059 -11.240 -21.306  0.00  0.00    -0.044 C 
ATOM      7  H   UNL     1      33.056  -8.871 -21.944  0.00  0.00    -0.080 HD
ENDROOT
BRANCH   2   8
ATOM      8  N   UNL     1      33.306 -13.168 -22.203  0.00  0.00    +0.389 N 
ATOM      9  H   UNL     1      32.663 -13.924 -21.969  0.00  0.00    -0.084 HD
ATOM     10  H   UNL     1      33.900 -12.946 -21.404  0.00  0.00    -0.084 HD
BRANCH   8  11
ATOM     11  C   UNL     1      34.152 -13.587 -23.310  0.00  0.00    -0.034 C 
BRANCH  11  14
ATOM     12  O   UNL     1      34.687 -19.143 -23.673  0.00  0.00    -0.474 OA
ATOM     13  N   UNL     1      33.871 -15.705 -24.471  0.00  0.00    -0.247 NA
ATOM     14  C   UNL     1      34.315 -15.084 -23.357  0.00  0.00    +0.037 C 
ATOM     15  C   UNL     1      34.896 -15.736 -22.281  0.00  0.00    +0.011 C 
ATOM     16  C   UNL     1      35.031 -17.124 -22.344  0.00  0.00    +0.015 C 
ATOM     17  C   UNL     1      35.653 -17.878 -21.204  0.00  0.00    +0.033 C 
ATOM     18  C   UNL     1      34.604 -17.791 -23.494  0.00  0.00    +0.154 C 
ATOM     19  C   UNL     1      35.336 -19.363 -21.319  0.00  0.00    +0.052 C 
ATOM     20  C   UNL     1      34.026 -17.047 -24.512  0.00  0.00    +0.135 C 
ATOM     21  C   UNL     1      35.558 -19.815 -22.754  0.00  0.00    +0.206 C 
ENDBRANCH  11  14
ENDBRANCH   8  11
ENDBRANCH   2   8
BRANCH   1  22
ATOM     22  C   UNL     1      31.542  -7.808 -22.789  0.00  0.00    -0.055 C 
BRANCH  22  28
ATOM     23  O   UNL     1      34.649  -7.595 -24.138  0.00  0.00    -0.273 OA
ATOM     24  O   UNL     1      30.259  -2.722 -21.928  0.00  0.00    -0.270 OA
ATOM     25  N   UNL     1      33.111  -5.991 -23.420  0.00  0.00    -0.261 N 
ATOM     26  N   UNL     1      31.706  -4.358 -22.711  0.00  0.00    -0.255 N 
ATOM     27  N   UNL     1      34.148  -4.311 -25.413  0.00  0.00    -0.262 NA
ATOM     28  C   UNL     1      32.367  -6.619 -22.310  0.00  0.00    +0.076 C 
ATOM     29  C   UNL     1      31.469  -5.469 -21.779  0.00  0.00    +0.113 C 
ATOM     30  C   UNL     1      32.671  -4.720 -23.602  0.00  0.00    +0.196 C 
ATOM     31  C   UNL     1      33.157  -3.922 -24.548  0.00  0.00    +0.092 C 
ATOM     32  C   UNL     1      34.123  -6.495 -24.196  0.00  0.00    +0.252 C 
ATOM     33  C   UNL     1      31.122  -3.106 -22.712  0.00  0.00    +0.251 C 
ATOM     34  C   UNL     1      32.601  -2.590 -24.639  0.00  0.00    +0.022 C 
ATOM     35  C   UNL     1      34.610  -5.517 -25.252  0.00  0.00    +0.210 C 
ATOM     36  C   UNL     1      31.640  -2.184 -23.788  0.00  0.00    +0.059 C 
ENDBRANCH  22  28
ENDBRANCH   1  22
TORSDOF 5
ENDMDL
MODEL 9
REMARK VINA RESULT:     -10.9      1.836      2.768
REMARK  Name = 25101874
REMARK  5 active torsions:
REMARK  status: ('A' for Active; 'I' for Inactive)
REMARK    1  A    between atoms: N_1  and  C_22
REMARK    2  A    between atoms: C_2  and  N_8
REMARK    3  A    between atoms: N_8  and  C_11
REMARK    4  A    between atoms: C_11  and  C_14
REMARK    5  A    between atoms: C_22  and  C_28
REMARK                            x       y       z     vdW  Elec       q    Type
REMARK                         _______ _______ _______ _____ _____    ______ ____
ROOT
ATOM      1  N   UNL     1      35.877 -20.985 -20.338  0.00  0.00    +0.388 N 
ATOM      2  C   UNL     1      35.886 -18.167 -21.126  0.00  0.00    -0.066 C 
ATOM      3  C   UNL     1      36.825 -20.044 -19.727  0.00  0.00    -0.079 C 
ATOM      4  C   UNL     1      34.624 -20.312 -20.709  0.00  0.00    -0.079 C 
ATOM      5  C   UNL     1      37.157 -18.895 -20.682  0.00  0.00    -0.044 C 
ATOM      6  C   UNL     1      34.882 -19.172 -21.697  0.00  0.00    -0.044 C 
ATOM      7  H   UNL     1      36.301 -21.349 -21.190  0.00  0.00    -0.080 HD
ENDROOT
BRANCH   2   8
ATOM      8  N   UNL     1      36.211 -17.137 -22.110  0.00  0.00    +0.389 N 
ATOM      9  H   UNL     1      37.067 -17.399 -22.598  0.00  0.00    -0.084 HD
ATOM     10  H   UNL     1      36.337 -16.249 -21.623  0.00  0.00    -0.084 HD
BRANCH   8  11
ATOM     11  C   UNL     1      35.135 -16.989 -23.078  0.00  0.00    -0.034 C 
BRANCH  11  14
ATOM     12  O   UNL     1      32.397 -12.131 -22.636  0.00  0.00    -0.474 OA
ATOM     13  N   UNL     1      34.151 -14.978 -24.029  0.00  0.00    -0.247 NA
ATOM     14  C   UNL     1      34.399 -15.686 -22.905  0.00  0.00    +0.037 C 
ATOM     15  C   UNL     1      34.022 -15.284 -21.633  0.00  0.00    +0.011 C 
ATOM     16  C   UNL     1      33.346 -14.070 -21.497  0.00  0.00    +0.015 C 
ATOM     17  C   UNL     1      32.917 -13.590 -20.141  0.00  0.00    +0.033 C 
ATOM     18  C   UNL     1      33.054 -13.328 -22.643  0.00  0.00    +0.154 C 
ATOM     19  C   UNL     1      32.573 -12.107 -20.191  0.00  0.00    +0.052 C 
ATOM     20  C   UNL     1      33.485 -13.813 -23.870  0.00  0.00    +0.135 C 
ATOM     21  C   UNL     1      31.711 -11.833 -21.415  0.00  0.00    +0.206 C 
ENDBRANCH  11  14
ENDBRANCH   8  11
ENDBRANCH   2   8
BRANCH   1  22
ATOM     22  C   UNL     1      35.609 -22.103 -19.433  0.00  0.00    -0.055 C 
BRANCH  22  28
ATOM     23  O   UNL     1      32.375 -21.804 -18.448  0.00  0.00    -0.273 OA
ATOM     24  O   UNL     1      38.132 -23.311 -14.913  0.00  0.00    -0.270 OA
ATOM     25  N   UNL     1      34.341 -22.352 -17.314  0.00  0.00    -0.261 N 
ATOM     26  N   UNL     1      36.199 -22.852 -16.113  0.00  0.00    -0.255 N 
ATOM     27  N   UNL     1      32.763 -23.963 -15.647  0.00  0.00    -0.262 NA
ATOM     28  C   UNL     1      35.419 -21.614 -18.002  0.00  0.00    +0.076 C 
ATOM     29  C   UNL     1      36.669 -21.895 -17.125  0.00  0.00    +0.113 C 
ATOM     30  C   UNL     1      34.860 -23.044 -16.268  0.00  0.00    +0.196 C 
ATOM     31  C   UNL     1      34.115 -23.812 -15.478  0.00  0.00    +0.092 C 
ATOM     32  C   UNL     1      32.996 -22.389 -17.575  0.00  0.00    +0.252 C 
ATOM     33  C   UNL     1      36.928 -23.456 -15.107  0.00  0.00    +0.251 C 
ATOM     34  C   UNL     1      34.789 -24.499 -14.398  0.00  0.00    +0.022 C 
ATOM     35  C   UNL     1      32.228 -23.295 -16.627  0.00  0.00    +0.210 C 
ATOM     36  C   UNL     1      36.113 -24.350 -14.206  0.00  0.00    +0.059 C 
ENDBRANCH  22  28
ENDBRANCH   1  22
TORSDOF 5
ENDMDL
