MODEL 1
REMARK VINA RESULT:     -12.0      0.000      0.000
REMARK  Name = 9823454
REMARK  7 active torsions:
REMARK  status: ('A' for Active; 'I' for Inactive)
REMARK    1  A    between atoms: C_1  and  C_4
REMARK    2  A    between atoms: C_1  and  N_8
REMARK    3  A    between atoms: C_1  and  C_23
REMARK    4  A    between atoms: N_3  and  O_6
REMARK    5  A    between atoms: N_8  and  S_10
REMARK    6  A    between atoms: S_10  and  C_13
REMARK    7  A    between atoms: C_23  and  C_24
REMARK                            x       y       z     vdW  Elec       q    Type
REMARK                         _______ _______ _______ _____ _____    ______ ____
ROOT
ATOM      1  C   UNL     1      34.528 -24.059 -12.736  0.00  0.00    +0.158 C 
ENDROOT
BRANCH   1   4
ATOM      2  O   UNL     1      35.315 -25.042 -10.673  0.00  0.00    -0.272 OA
ATOM      3  N   UNL     1      36.409 -23.191 -11.513  0.00  0.00    -0.196 N 
ATOM      4  C   UNL     1      35.446 -24.169 -11.530  0.00  0.00    +0.260 C 
ATOM      5  H   UNL     1      36.477 -22.511 -12.223  0.00  0.00    +0.182 HD
BRANCH   3   6
ATOM      6  O   UNL     1      37.291 -23.219 -10.424  0.00  0.00    -0.295 OA
ATOM      7  H   UNL     1      37.236 -24.083  -9.987  0.00  0.00    +0.241 HD
ENDBRANCH   3   6
ENDBRANCH   1   4
BRANCH   1   8
ATOM      8  N   UNL     1      35.260 -23.226 -13.720  0.00  0.00    -0.172 NA
ATOM      9  H   UNL     1      34.605 -22.520 -14.055  0.00  0.00    +0.149 HD
BRANCH   8  10
ATOM     10  S   UNL     1      35.949 -23.949 -15.093  0.00  0.00    +0.061 S 
ATOM     11  O   UNL     1      35.601 -25.357 -15.124  0.00  0.00    -0.153 OA
ATOM     12  O   UNL     1      37.337 -23.538 -15.190  0.00  0.00    -0.153 OA
BRANCH  10  13
ATOM     13  C   UNL     1      35.080 -23.144 -16.404  0.00  0.00    +0.122 C 
ATOM     14  C   UNL     1      35.791 -22.397 -17.328  0.00  0.00    +0.020 C 
ATOM     15  C   UNL     1      35.115 -21.750 -18.375  0.00  0.00    +0.001 C 
ATOM     16  C   UNL     1      33.708 -23.274 -16.483  0.00  0.00    +0.020 C 
ATOM     17  C   UNL     1      33.709 -21.873 -18.471  0.00  0.00    +0.000 C 
ATOM     18  C   UNL     1      33.020 -22.639 -17.518  0.00  0.00    +0.001 C 
ATOM     19  C   UNL     1      35.805 -20.984 -19.329  0.00  0.00    +0.000 C 
ATOM     20  C   UNL     1      33.033 -21.226 -19.519  0.00  0.00    +0.000 C 
ATOM     21  C   UNL     1      35.117 -20.348 -20.364  0.00  0.00    +0.000 C 
ATOM     22  C   UNL     1      33.734 -20.469 -20.458  0.00  0.00    +0.000 C 
ENDBRANCH  10  13
ENDBRANCH   8  10
ENDBRANCH   1   8
BRANCH   1  23
ATOM     23  C   UNL     1      33.199 -23.380 -12.364  0.00  0.00    +0.053 C 
BRANCH  23  24
ATOM     24  C   UNL     1      32.052 -23.823 -13.208  0.00  0.00    -0.020 C 
ATOM     25  C   UNL     1      31.378 -22.901 -14.010  0.00  0.00    -0.004 C 
ATOM     26  C   UNL     1      30.295 -23.303 -14.810  0.00  0.00    -0.000 C 
ATOM     27  C   UNL     1      31.653 -25.156 -13.195  0.00  0.00    -0.004 C 
ATOM     28  C   UNL     1      29.891 -24.659 -14.796  0.00  0.00    -0.000 C 
ATOM     29  C   UNL     1      30.581 -25.572 -13.983  0.00  0.00    -0.000 C 
ATOM     30  C   UNL     1      29.606 -22.388 -15.622  0.00  0.00    -0.000 C 
ATOM     31  C   UNL     1      28.809 -25.061 -15.595  0.00  0.00    -0.000 C 
ATOM     32  C   UNL     1      28.533 -22.804 -16.411  0.00  0.00    -0.000 C 
ATOM     33  C   UNL     1      28.135 -24.138 -16.396  0.00  0.00    -0.000 C 
ENDBRANCH  23  24
ENDBRANCH   1  23
TORSDOF 7
ENDMDL
MODEL 2
REMARK VINA RESULT:     -11.6      1.465      6.022
REMARK  Name = 9823454
REMARK  7 active torsions:
REMARK  status: ('A' for Active; 'I' for Inactive)
REMARK    1  A    between atoms: C_1  and  C_4
REMARK    2  A    between atoms: C_1  and  N_8
REMARK    3  A    between atoms: C_1  and  C_23
REMARK    4  A    between atoms: N_3  and  O_6
REMARK    5  A    between atoms: N_8  and  S_10
REMARK    6  A    between atoms: S_10  and  C_13
REMARK    7  A    between atoms: C_23  and  C_24
REMARK                            x       y       z     vdW  Elec       q    Type
REMARK                         _______ _______ _______ _____ _____    ______ ____
ROOT
ATOM      1  C   UNL     1      35.905 -22.555 -15.055  0.00  0.00    +0.158 C 
ENDROOT
BRANCH   1   4
ATOM      2  O   UNL     1      37.627 -22.803 -13.377  0.00  0.00    -0.272 OA
ATOM      3  N   UNL     1      37.903 -23.845 -15.419  0.00  0.00    -0.196 N 
ATOM      4  C   UNL     1      37.227 -23.071 -14.509  0.00  0.00    +0.260 C 
ATOM      5  H   UNL     1      37.543 -24.034 -16.316  0.00  0.00    +0.182 HD
BRANCH   3   6
ATOM      6  O   UNL     1      39.139 -24.351 -14.992  0.00  0.00    -0.295 OA
ATOM      7  H   UNL     1      39.784 -24.278 -15.713  0.00  0.00    +0.241 HD
ENDBRANCH   3   6
ENDBRANCH   1   4
BRANCH   1   8
ATOM      8  N   UNL     1      34.930 -22.706 -13.948  0.00  0.00    -0.172 NA
ATOM      9  H   UNL     1      35.307 -22.195 -13.151  0.00  0.00    +0.149 HD
BRANCH   8  10
ATOM     10  S   UNL     1      34.520 -24.256 -13.389  0.00  0.00    +0.061 S 
ATOM     11  O   UNL     1      34.636 -24.295 -11.944  0.00  0.00    -0.153 OA
ATOM     12  O   UNL     1      35.206 -25.242 -14.203  0.00  0.00    -0.153 OA
BRANCH  10  13
ATOM     13  C   UNL     1      32.805 -24.351 -13.801  0.00  0.00    +0.122 C 
ATOM     14  C   UNL     1      32.297 -23.511 -14.778  0.00  0.00    +0.020 C 
ATOM     15  C   UNL     1      30.935 -23.573 -15.117  0.00  0.00    +0.001 C 
ATOM     16  C   UNL     1      32.002 -25.260 -13.142  0.00  0.00    +0.020 C 
ATOM     17  C   UNL     1      30.098 -24.500 -14.450  0.00  0.00    +0.000 C 
ATOM     18  C   UNL     1      30.647 -25.336 -13.466  0.00  0.00    +0.001 C 
ATOM     19  C   UNL     1      30.387 -22.736 -16.102  0.00  0.00    +0.000 C 
ATOM     20  C   UNL     1      28.736 -24.561 -14.788  0.00  0.00    +0.000 C 
ATOM     21  C   UNL     1      29.031 -22.811 -16.426  0.00  0.00    +0.000 C 
ATOM     22  C   UNL     1      28.209 -23.722 -15.771  0.00  0.00    +0.000 C 
ENDBRANCH  10  13
ENDBRANCH   8  10
ENDBRANCH   1   8
BRANCH   1  23
ATOM     23  C   UNL     1      35.446 -23.377 -16.270  0.00  0.00    +0.053 C 
BRANCH  23  24
ATOM     24  C   UNL     1      35.052 -22.537 -17.438  0.00  0.00    -0.020 C 
ATOM     25  C   UNL     1      36.015 -21.792 -18.119  0.00  0.00    -0.004 C 
ATOM     26  C   UNL     1      35.660 -20.996 -19.220  0.00  0.00    -0.000 C 
ATOM     27  C   UNL     1      33.723 -22.499 -17.850  0.00  0.00    -0.004 C 
ATOM     28  C   UNL     1      34.308 -20.957 -19.638  0.00  0.00    -0.000 C 
ATOM     29  C   UNL     1      33.353 -21.715 -18.942  0.00  0.00    -0.000 C 
ATOM     30  C   UNL     1      36.617 -20.240 -19.916  0.00  0.00    -0.000 C 
ATOM     31  C   UNL     1      33.953 -20.162 -20.740  0.00  0.00    -0.000 C 
ATOM     32  C   UNL     1      36.246 -19.455 -21.009  0.00  0.00    -0.000 C 
ATOM     33  C   UNL     1      34.917 -19.416 -21.419  0.00  0.00    -0.000 C 
ENDBRANCH  23  24
ENDBRANCH   1  23
TORSDOF 7
ENDMDL
MODEL 3
REMARK VINA RESULT:     -10.8      1.372      2.121
REMARK  Name = 9823454
REMARK  7 active torsions:
REMARK  status: ('A' for Active; 'I' for Inactive)
REMARK    1  A    between atoms: C_1  and  C_4
REMARK    2  A    between atoms: C_1  and  N_8
REMARK    3  A    between atoms: C_1  and  C_23
REMARK    4  A    between atoms: N_3  and  O_6
REMARK    5  A    between atoms: N_8  and  S_10
REMARK    6  A    between atoms: S_10  and  C_13
REMARK    7  A    between atoms: C_23  and  C_24
REMARK                            x       y       z     vdW  Elec       q    Type
REMARK                         _______ _______ _______ _____ _____    ______ ____
ROOT
ATOM      1  C   UNL     1      35.303 -25.370 -14.151  0.00  0.00    +0.158 C 
ENDROOT
BRANCH   1   4
ATOM      2  O   UNL     1      37.460 -26.420 -13.859  0.00  0.00    -0.272 OA
ATOM      3  N   UNL     1      36.398 -25.526 -12.014  0.00  0.00    -0.196 N 
ATOM      4  C   UNL     1      36.508 -25.832 -13.348  0.00  0.00    +0.260 C 
ATOM      5  H   UNL     1      35.616 -25.052 -11.648  0.00  0.00    +0.182 HD
BRANCH   3   6
ATOM      6  O   UNL     1      37.468 -25.929 -11.204  0.00  0.00    -0.295 OA
ATOM      7  H   UNL     1      37.159 -26.592 -10.566  0.00  0.00    +0.241 HD
ENDBRANCH   3   6
ENDBRANCH   1   4
BRANCH   1   8
ATOM      8  N   UNL     1      35.856 -24.730 -15.368  0.00  0.00    -0.172 NA
ATOM      9  H   UNL     1      36.493 -25.404 -15.793  0.00  0.00    +0.149 HD
BRANCH   8  10
ATOM     10  S   UNL     1      36.705 -23.264 -15.241  0.00  0.00    +0.061 S 
ATOM     11  O   UNL     1      38.130 -23.523 -15.322  0.00  0.00    -0.153 OA
ATOM     12  O   UNL     1      36.163 -22.506 -14.129  0.00  0.00    -0.153 OA
BRANCH  10  13
ATOM     13  C   UNL     1      36.217 -22.431 -16.720  0.00  0.00    +0.122 C 
ATOM     14  C   UNL     1      34.884 -22.443 -17.095  0.00  0.00    +0.020 C 
ATOM     15  C   UNL     1      34.480 -21.786 -18.269  0.00  0.00    +0.001 C 
ATOM     16  C   UNL     1      37.174 -21.782 -17.476  0.00  0.00    +0.020 C 
ATOM     17  C   UNL     1      35.448 -21.116 -19.055  0.00  0.00    +0.000 C 
ATOM     18  C   UNL     1      36.791 -21.124 -18.645  0.00  0.00    +0.001 C 
ATOM     19  C   UNL     1      33.137 -21.779 -18.679  0.00  0.00    +0.000 C 
ATOM     20  C   UNL     1      35.045 -20.460 -20.229  0.00  0.00    +0.000 C 
ATOM     21  C   UNL     1      32.754 -21.120 -19.849  0.00  0.00    +0.000 C 
ATOM     22  C   UNL     1      33.705 -20.462 -20.621  0.00  0.00    +0.000 C 
ENDBRANCH  10  13
ENDBRANCH   8  10
ENDBRANCH   1   8
BRANCH   1  23
ATOM     23  C   UNL     1      34.465 -24.351 -13.361  0.00  0.00    +0.053 C 
BRANCH  23  24
ATOM     24  C   UNL     1      33.013 -24.389 -13.699  0.00  0.00    -0.020 C 
ATOM     25  C   UNL     1      32.514 -23.587 -14.725  0.00  0.00    -0.004 C 
ATOM     26  C   UNL     1      31.149 -23.612 -15.055  0.00  0.00    -0.000 C 
ATOM     27  C   UNL     1      32.157 -25.225 -12.989  0.00  0.00    -0.004 C 
ATOM     28  C   UNL     1      30.278 -24.463 -14.333  0.00  0.00    -0.000 C 
ATOM     29  C   UNL     1      30.798 -25.263 -13.304  0.00  0.00    -0.000 C 
ATOM     30  C   UNL     1      30.630 -22.811 -16.085  0.00  0.00    -0.000 C 
ATOM     31  C   UNL     1      28.913 -24.488 -14.663  0.00  0.00    -0.000 C 
ATOM     32  C   UNL     1      29.270 -22.848 -16.400  0.00  0.00    -0.000 C 
ATOM     33  C   UNL     1      28.415 -23.685 -15.690  0.00  0.00    -0.000 C 
ENDBRANCH  23  24
ENDBRANCH   1  23
TORSDOF 7
ENDMDL
MODEL 4
REMARK VINA RESULT:     -10.2      2.989      5.658
REMARK  Name = 9823454
REMARK  7 active torsions:
REMARK  status: ('A' for Active; 'I' for Inactive)
REMARK    1  A    between atoms: C_1  and  C_4
REMARK    2  A    between atoms: C_1  and  N_8
REMARK    3  A    between atoms: C_1  and  C_23
REMARK    4  A    between atoms: N_3  and  O_6
REMARK    5  A    between atoms: N_8  and  S_10
REMARK    6  A    between atoms: S_10  and  C_13
REMARK    7  A    between atoms: C_23  and  C_24
REMARK                            x       y       z     vdW  Elec       q    Type
REMARK                         _______ _______ _______ _____ _____    ______ ____
ROOT
ATOM      1  C   UNL     1      32.326 -22.948 -15.625  0.00  0.00    +0.158 C 
ENDROOT
BRANCH   1   4
ATOM      2  O   UNL     1      30.320 -22.866 -14.280  0.00  0.00    -0.272 OA
ATOM      3  N   UNL     1      30.145 -22.550 -16.560  0.00  0.00    -0.196 N 
ATOM      4  C   UNL     1      30.833 -22.784 -15.395  0.00  0.00    +0.260 C 
ATOM      5  H   UNL     1      30.599 -22.492 -17.433  0.00  0.00    +0.182 HD
BRANCH   3   6
ATOM      6  O   UNL     1      28.758 -22.397 -16.432  0.00  0.00    -0.295 OA
ATOM      7  H   UNL     1      28.340 -23.271 -16.383  0.00  0.00    +0.241 HD
ENDBRANCH   3   6
ENDBRANCH   1   4
BRANCH   1   8
ATOM      8  N   UNL     1      32.552 -22.591 -17.046  0.00  0.00    -0.172 NA
ATOM      9  H   UNL     1      31.776 -22.987 -17.577  0.00  0.00    +0.149 HD
BRANCH   8  10
ATOM     10  S   UNL     1      33.980 -23.081 -17.824  0.00  0.00    +0.061 S 
ATOM     11  O   UNL     1      33.733 -24.306 -18.561  0.00  0.00    -0.153 OA
ATOM     12  O   UNL     1      35.076 -23.007 -16.877  0.00  0.00    -0.153 OA
BRANCH  10  13
ATOM     13  C   UNL     1      34.221 -21.780 -18.995  0.00  0.00    +0.122 C 
ATOM     14  C   UNL     1      35.501 -21.298 -19.216  0.00  0.00    +0.020 C 
ATOM     15  C   UNL     1      35.710 -20.264 -20.143  0.00  0.00    +0.001 C 
ATOM     16  C   UNL     1      33.130 -21.267 -19.669  0.00  0.00    +0.020 C 
ATOM     17  C   UNL     1      34.602 -19.727 -20.842  0.00  0.00    +0.000 C 
ATOM     18  C   UNL     1      33.320 -20.240 -20.594  0.00  0.00    +0.001 C 
ATOM     19  C   UNL     1      36.993 -19.751 -20.391  0.00  0.00    +0.000 C 
ATOM     20  C   UNL     1      34.811 -18.692 -21.768  0.00  0.00    +0.000 C 
ATOM     21  C   UNL     1      37.182 -18.722 -21.315  0.00  0.00    +0.000 C 
ATOM     22  C   UNL     1      36.094 -18.195 -22.002  0.00  0.00    +0.000 C 
ENDBRANCH  10  13
ENDBRANCH   8  10
ENDBRANCH   1   8
BRANCH   1  23
ATOM     23  C   UNL     1      32.772 -24.398 -15.375  0.00  0.00    +0.053 C 
BRANCH  23  24
ATOM     24  C   UNL     1      33.828 -24.521 -14.328  0.00  0.00    -0.020 C 
ATOM     25  C   UNL     1      35.049 -25.121 -14.635  0.00  0.00    -0.004 C 
ATOM     26  C   UNL     1      36.053 -25.244 -13.661  0.00  0.00    -0.000 C 
ATOM     27  C   UNL     1      33.594 -24.035 -13.045  0.00  0.00    -0.004 C 
ATOM     28  C   UNL     1      35.815 -24.749 -12.356  0.00  0.00    -0.000 C 
ATOM     29  C   UNL     1      34.580 -24.147 -12.065  0.00  0.00    -0.000 C 
ATOM     30  C   UNL     1      37.287 -25.846 -13.953  0.00  0.00    -0.000 C 
ATOM     31  C   UNL     1      36.818 -24.871 -11.382  0.00  0.00    -0.000 C 
ATOM     32  C   UNL     1      38.274 -25.959 -12.972  0.00  0.00    -0.000 C 
ATOM     33  C   UNL     1      38.039 -25.473 -11.689  0.00  0.00    -0.000 C 
ENDBRANCH  23  24
ENDBRANCH   1  23
TORSDOF 7
ENDMDL
MODEL 5
REMARK VINA RESULT:     -10.0      2.099      3.254
REMARK  Name = 9823454
REMARK  7 active torsions:
REMARK  status: ('A' for Active; 'I' for Inactive)
REMARK    1  A    between atoms: C_1  and  C_4
REMARK    2  A    between atoms: C_1  and  N_8
REMARK    3  A    between atoms: C_1  and  C_23
REMARK    4  A    between atoms: N_3  and  O_6
REMARK    5  A    between atoms: N_8  and  S_10
REMARK    6  A    between atoms: S_10  and  C_13
REMARK    7  A    between atoms: C_23  and  C_24
REMARK                            x       y       z     vdW  Elec       q    Type
REMARK                         _______ _______ _______ _____ _____    ______ ____
ROOT
ATOM      1  C   UNL     1      34.971 -23.903 -15.645  0.00  0.00    +0.158 C 
ENDROOT
BRANCH   1   4
ATOM      2  O   UNL     1      36.739 -25.393 -14.938  0.00  0.00    -0.272 OA
ATOM      3  N   UNL     1      37.285 -23.246 -15.590  0.00  0.00    -0.196 N 
ATOM      4  C   UNL     1      36.414 -24.281 -15.351  0.00  0.00    +0.260 C 
ATOM      5  H   UNL     1      36.980 -22.370 -15.921  0.00  0.00    +0.182 HD
BRANCH   3   6
ATOM      6  O   UNL     1      38.637 -23.513 -15.332  0.00  0.00    -0.295 OA
ATOM      7  H   UNL     1      38.903 -24.317 -15.806  0.00  0.00    +0.241 HD
ENDBRANCH   3   6
ENDBRANCH   1   4
BRANCH   1   8
ATOM      8  N   UNL     1      35.042 -22.740 -16.561  0.00  0.00    -0.172 NA
ATOM      9  H   UNL     1      34.816 -21.914 -16.008  0.00  0.00    +0.149 HD
BRANCH   8  10
ATOM     10  S   UNL     1      34.055 -22.691 -17.943  0.00  0.00    +0.061 S 
ATOM     11  O   UNL     1      32.779 -22.091 -17.603  0.00  0.00    -0.153 OA
ATOM     12  O   UNL     1      34.103 -23.985 -18.596  0.00  0.00    -0.153 OA
BRANCH  10  13
ATOM     13  C   UNL     1      34.932 -21.559 -18.977  0.00  0.00    +0.122 C 
ATOM     14  C   UNL     1      34.259 -20.926 -20.009  0.00  0.00    +0.020 C 
ATOM     15  C   UNL     1      34.942 -20.023 -20.841  0.00  0.00    +0.001 C 
ATOM     16  C   UNL     1      36.271 -21.324 -18.737  0.00  0.00    +0.020 C 
ATOM     17  C   UNL     1      36.315 -19.772 -20.609  0.00  0.00    +0.000 C 
ATOM     18  C   UNL     1      36.965 -20.430 -19.553  0.00  0.00    +0.001 C 
ATOM     19  C   UNL     1      34.291 -19.365 -21.897  0.00  0.00    +0.000 C 
ATOM     20  C   UNL     1      36.998 -18.870 -21.441  0.00  0.00    +0.000 C 
ATOM     21  C   UNL     1      34.985 -18.471 -22.714  0.00  0.00    +0.000 C 
ATOM     22  C   UNL     1      36.335 -18.224 -22.486  0.00  0.00    +0.000 C 
ENDBRANCH  10  13
ENDBRANCH   8  10
ENDBRANCH   1   8
BRANCH   1  23
ATOM     23  C   UNL     1      34.226 -23.509 -14.359  0.00  0.00    +0.053 C 
BRANCH  23  24
ATOM     24  C   UNL     1      32.781 -23.876 -14.376  0.00  0.00    -0.020 C 
ATOM     25  C   UNL     1      31.900 -23.206 -15.227  0.00  0.00    -0.004 C 
ATOM     26  C   UNL     1      30.537 -23.541 -15.254  0.00  0.00    -0.000 C 
ATOM     27  C   UNL     1      32.310 -24.886 -13.542  0.00  0.00    -0.004 C 
ATOM     28  C   UNL     1      30.059 -24.568 -14.406  0.00  0.00    -0.000 C 
ATOM     29  C   UNL     1      30.959 -25.231 -13.557  0.00  0.00    -0.000 C 
ATOM     30  C   UNL     1      29.637 -22.877 -16.104  0.00  0.00    -0.000 C 
ATOM     31  C   UNL     1      28.695 -24.903 -14.434  0.00  0.00    -0.000 C 
ATOM     32  C   UNL     1      28.285 -23.222 -16.119  0.00  0.00    -0.000 C 
ATOM     33  C   UNL     1      27.815 -24.232 -15.284  0.00  0.00    -0.000 C 
ENDBRANCH  23  24
ENDBRANCH   1  23
TORSDOF 7
ENDMDL
MODEL 6
REMARK VINA RESULT:      -9.9      2.920      8.005
REMARK  Name = 9823454
REMARK  7 active torsions:
REMARK  status: ('A' for Active; 'I' for Inactive)
REMARK    1  A    between atoms: C_1  and  C_4
REMARK    2  A    between atoms: C_1  and  N_8
REMARK    3  A    between atoms: C_1  and  C_23
REMARK    4  A    between atoms: N_3  and  O_6
REMARK    5  A    between atoms: N_8  and  S_10
REMARK    6  A    between atoms: S_10  and  C_13
REMARK    7  A    between atoms: C_23  and  C_24
REMARK                            x       y       z     vdW  Elec       q    Type
REMARK                         _______ _______ _______ _____ _____    ______ ____
ROOT
ATOM      1  C   UNL     1      36.221 -21.260 -18.348  0.00  0.00    +0.158 C 
ENDROOT
BRANCH   1   4
ATOM      2  O   UNL     1      37.816 -20.155 -16.907  0.00  0.00    -0.272 OA
ATOM      3  N   UNL     1      37.484 -22.426 -16.665  0.00  0.00    -0.196 N 
ATOM      4  C   UNL     1      37.255 -21.199 -17.236  0.00  0.00    +0.260 C 
ATOM      5  H   UNL     1      37.010 -23.238 -16.960  0.00  0.00    +0.182 HD
BRANCH   3   6
ATOM      6  O   UNL     1      38.435 -22.454 -15.635  0.00  0.00    -0.295 OA
ATOM      7  H   UNL     1      39.300 -22.194 -15.987  0.00  0.00    +0.241 HD
ENDBRANCH   3   6
ENDBRANCH   1   4
BRANCH   1   8
ATOM      8  N   UNL     1      35.538 -22.566 -18.186  0.00  0.00    -0.172 NA
ATOM      9  H   UNL     1      35.987 -23.216 -18.829  0.00  0.00    +0.149 HD
BRANCH   8  10
ATOM     10  S   UNL     1      33.865 -22.684 -18.455  0.00  0.00    +0.061 S 
ATOM     11  O   UNL     1      33.601 -23.772 -19.378  0.00  0.00    -0.153 OA
ATOM     12  O   UNL     1      33.340 -21.358 -18.720  0.00  0.00    -0.153 OA
BRANCH  10  13
ATOM     13  C   UNL     1      33.272 -23.165 -16.862  0.00  0.00    +0.122 C 
ATOM     14  C   UNL     1      31.913 -23.351 -16.674  0.00  0.00    +0.020 C 
ATOM     15  C   UNL     1      31.425 -23.732 -15.413  0.00  0.00    +0.001 C 
ATOM     16  C   UNL     1      34.175 -23.347 -15.833  0.00  0.00    +0.020 C 
ATOM     17  C   UNL     1      32.337 -23.923 -14.348  0.00  0.00    +0.000 C 
ATOM     18  C   UNL     1      33.708 -23.727 -14.574  0.00  0.00    +0.001 C 
ATOM     19  C   UNL     1      30.053 -23.928 -15.188  0.00  0.00    +0.000 C 
ATOM     20  C   UNL     1      31.849 -24.304 -13.087  0.00  0.00    +0.000 C 
ATOM     21  C   UNL     1      29.586 -24.307 -13.928  0.00  0.00    +0.000 C 
ATOM     22  C   UNL     1      30.482 -24.495 -12.881  0.00  0.00    +0.000 C 
ENDBRANCH  10  13
ENDBRANCH   8  10
ENDBRANCH   1   8
BRANCH   1  23
ATOM     23  C   UNL     1      36.888 -21.190 -19.732  0.00  0.00    +0.053 C 
BRANCH  23  24
ATOM     24  C   UNL     1      36.418 -20.040 -20.558  0.00  0.00    -0.020 C 
ATOM     25  C   UNL     1      35.617 -20.266 -21.678  0.00  0.00    -0.004 C 
ATOM     26  C   UNL     1      35.167 -19.194 -22.465  0.00  0.00    -0.000 C 
ATOM     27  C   UNL     1      36.779 -18.742 -20.211  0.00  0.00    -0.004 C 
ATOM     28  C   UNL     1      35.534 -17.874 -22.111  0.00  0.00    -0.000 C 
ATOM     29  C   UNL     1      36.340 -17.665 -20.981  0.00  0.00    -0.000 C 
ATOM     30  C   UNL     1      34.361 -19.404 -23.595  0.00  0.00    -0.000 C 
ATOM     31  C   UNL     1      35.084 -16.801 -22.899  0.00  0.00    -0.000 C 
ATOM     32  C   UNL     1      33.922 -18.326 -24.366  0.00  0.00    -0.000 C 
ATOM     33  C   UNL     1      34.284 -17.029 -24.019  0.00  0.00    -0.000 C 
ENDBRANCH  23  24
ENDBRANCH   1  23
TORSDOF 7
ENDMDL
MODEL 7
REMARK VINA RESULT:      -9.8      3.209      6.045
REMARK  Name = 9823454
REMARK  7 active torsions:
REMARK  status: ('A' for Active; 'I' for Inactive)
REMARK    1  A    between atoms: C_1  and  C_4
REMARK    2  A    between atoms: C_1  and  N_8
REMARK    3  A    between atoms: C_1  and  C_23
REMARK    4  A    between atoms: N_3  and  O_6
REMARK    5  A    between atoms: N_8  and  S_10
REMARK    6  A    between atoms: S_10  and  C_13
REMARK    7  A    between atoms: C_23  and  C_24
REMARK                            x       y       z     vdW  Elec       q    Type
REMARK                         _______ _______ _______ _____ _____    ______ ____
ROOT
ATOM      1  C   UNL     1      33.422 -22.982 -15.086  0.00  0.00    +0.158 C 
ENDROOT
BRANCH   1   4
ATOM      2  O   UNL     1      32.687 -25.056 -14.086  0.00  0.00    -0.272 OA
ATOM      3  N   UNL     1      31.168 -23.800 -15.288  0.00  0.00    -0.196 N 
ATOM      4  C   UNL     1      32.406 -24.062 -14.754  0.00  0.00    +0.260 C 
ATOM      5  H   UNL     1      30.988 -22.989 -15.818  0.00  0.00    +0.182 HD
BRANCH   3   6
ATOM      6  O   UNL     1      30.176 -24.757 -15.033  0.00  0.00    -0.295 OA
ATOM      7  H   UNL     1      29.501 -24.375 -14.452  0.00  0.00    +0.241 HD
ENDBRANCH   3   6
ENDBRANCH   1   4
BRANCH   1   8
ATOM      8  N   UNL     1      34.126 -23.458 -16.301  0.00  0.00    -0.172 NA
ATOM      9  H   UNL     1      35.028 -22.984 -16.325  0.00  0.00    +0.149 HD
BRANCH   8  10
ATOM     10  S   UNL     1      33.416 -23.242 -17.829  0.00  0.00    +0.061 S 
ATOM     11  O   UNL     1      32.136 -22.577 -17.676  0.00  0.00    -0.153 OA
ATOM     12  O   UNL     1      33.509 -24.487 -18.567  0.00  0.00    -0.153 OA
BRANCH  10  13
ATOM     13  C   UNL     1      34.533 -22.105 -18.592  0.00  0.00    +0.122 C 
ATOM     14  C   UNL     1      34.085 -21.318 -19.640  0.00  0.00    +0.020 C 
ATOM     15  C   UNL     1      34.960 -20.410 -20.258  0.00  0.00    +0.001 C 
ATOM     16  C   UNL     1      35.831 -22.022 -18.130  0.00  0.00    +0.020 C 
ATOM     17  C   UNL     1      36.295 -20.312 -19.796  0.00  0.00    +0.000 C 
ATOM     18  C   UNL     1      36.715 -21.125 -18.732  0.00  0.00    +0.001 C 
ATOM     19  C   UNL     1      34.540 -19.597 -21.323  0.00  0.00    +0.000 C 
ATOM     20  C   UNL     1      37.171 -19.405 -20.415  0.00  0.00    +0.000 C 
ATOM     21  C   UNL     1      35.424 -18.700 -21.925  0.00  0.00    +0.000 C 
ATOM     22  C   UNL     1      36.735 -18.604 -21.472  0.00  0.00    +0.000 C 
ENDBRANCH  10  13
ENDBRANCH   8  10
ENDBRANCH   1   8
BRANCH   1  23
ATOM     23  C   UNL     1      34.430 -22.795 -13.940  0.00  0.00    +0.053 C 
BRANCH  23  24
ATOM     24  C   UNL     1      35.790 -23.322 -14.256  0.00  0.00    -0.020 C 
ATOM     25  C   UNL     1      36.133 -24.627 -13.901  0.00  0.00    -0.004 C 
ATOM     26  C   UNL     1      37.409 -25.137 -14.191  0.00  0.00    -0.000 C 
ATOM     27  C   UNL     1      36.716 -22.511 -14.905  0.00  0.00    -0.004 C 
ATOM     28  C   UNL     1      38.350 -24.312 -14.851  0.00  0.00    -0.000 C 
ATOM     29  C   UNL     1      37.987 -23.001 -15.202  0.00  0.00    -0.000 C 
ATOM     30  C   UNL     1      37.770 -26.448 -13.840  0.00  0.00    -0.000 C 
ATOM     31  C   UNL     1      39.626 -24.822 -15.142  0.00  0.00    -0.000 C 
ATOM     32  C   UNL     1      39.042 -26.939 -14.137  0.00  0.00    -0.000 C 
ATOM     33  C   UNL     1      39.968 -26.127 -14.785  0.00  0.00    -0.000 C 
ENDBRANCH  23  24
ENDBRANCH   1  23
TORSDOF 7
ENDMDL
MODEL 8
REMARK VINA RESULT:      -9.8      5.214      8.076
REMARK  Name = 9823454
REMARK  7 active torsions:
REMARK  status: ('A' for Active; 'I' for Inactive)
REMARK    1  A    between atoms: C_1  and  C_4
REMARK    2  A    between atoms: C_1  and  N_8
REMARK    3  A    between atoms: C_1  and  C_23
REMARK    4  A    between atoms: N_3  and  O_6
REMARK    5  A    between atoms: N_8  and  S_10
REMARK    6  A    between atoms: S_10  and  C_13
REMARK    7  A    between atoms: C_23  and  C_24
REMARK                            x       y       z     vdW  Elec       q    Type
REMARK                         _______ _______ _______ _____ _____    ______ ____
ROOT
ATOM      1  C   UNL     1      34.927 -20.464 -19.738  0.00  0.00    +0.158 C 
ENDROOT
BRANCH   1   4
ATOM      2  O   UNL     1      32.766 -21.241 -18.985  0.00  0.00    -0.272 OA
ATOM      3  N   UNL     1      32.920 -20.195 -21.037  0.00  0.00    -0.196 N 
ATOM      4  C   UNL     1      33.427 -20.681 -19.857  0.00  0.00    +0.260 C 
ATOM      5  H   UNL     1      33.489 -19.753 -21.709  0.00  0.00    +0.182 HD
BRANCH   3   6
ATOM      6  O   UNL     1      31.542 -20.367 -21.227  0.00  0.00    -0.295 OA
ATOM      7  H   UNL     1      31.120 -19.501 -21.337  0.00  0.00    +0.241 HD
ENDBRANCH   3   6
ENDBRANCH   1   4
BRANCH   1   8
ATOM      8  N   UNL     1      35.354 -19.902 -21.042  0.00  0.00    -0.172 NA
ATOM      9  H   UNL     1      35.815 -20.656 -21.551  0.00  0.00    +0.149 HD
BRANCH   8  10
ATOM     10  S   UNL     1      36.402 -18.567 -21.084  0.00  0.00    +0.061 S 
ATOM     11  O   UNL     1      37.654 -18.956 -21.706  0.00  0.00    -0.153 OA
ATOM     12  O   UNL     1      36.401 -17.931 -19.780  0.00  0.00    -0.153 OA
BRANCH  10  13
ATOM     13  C   UNL     1      35.560 -17.477 -22.191  0.00  0.00    +0.122 C 
ATOM     14  C   UNL     1      35.285 -16.182 -21.786  0.00  0.00    +0.020 C 
ATOM     15  C   UNL     1      34.616 -15.304 -22.653  0.00  0.00    +0.001 C 
ATOM     16  C   UNL     1      35.190 -17.937 -23.439  0.00  0.00    +0.020 C 
ATOM     17  C   UNL     1      34.230 -15.759 -23.937  0.00  0.00    +0.000 C 
ATOM     18  C   UNL     1      34.525 -17.078 -24.314  0.00  0.00    +0.001 C 
ATOM     19  C   UNL     1      34.321 -13.984 -22.275  0.00  0.00    +0.000 C 
ATOM     20  C   UNL     1      33.560 -14.880 -24.804  0.00  0.00    +0.000 C 
ATOM     21  C   UNL     1      33.654 -13.124 -23.149  0.00  0.00    +0.000 C 
ATOM     22  C   UNL     1      33.275 -13.572 -24.411  0.00  0.00    +0.000 C 
ENDBRANCH  10  13
ENDBRANCH   8  10
ENDBRANCH   1   8
BRANCH   1  23
ATOM     23  C   UNL     1      35.662 -21.789 -19.476  0.00  0.00    +0.053 C 
BRANCH  23  24
ATOM     24  C   UNL     1      35.882 -22.068 -18.027  0.00  0.00    -0.020 C 
ATOM     25  C   UNL     1      34.932 -22.789 -17.302  0.00  0.00    -0.004 C 
ATOM     26  C   UNL     1      35.125 -23.059 -15.937  0.00  0.00    -0.000 C 
ATOM     27  C   UNL     1      37.035 -21.608 -17.398  0.00  0.00    -0.004 C 
ATOM     28  C   UNL     1      36.299 -22.591 -15.299  0.00  0.00    -0.000 C 
ATOM     29  C   UNL     1      37.243 -21.867 -16.044  0.00  0.00    -0.000 C 
ATOM     30  C   UNL     1      34.180 -23.782 -15.193  0.00  0.00    -0.000 C 
ATOM     31  C   UNL     1      36.492 -22.861 -13.934  0.00  0.00    -0.000 C 
ATOM     32  C   UNL     1      34.388 -24.042 -13.838  0.00  0.00    -0.000 C 
ATOM     33  C   UNL     1      35.541 -23.581 -13.210  0.00  0.00    -0.000 C 
ENDBRANCH  23  24
ENDBRANCH   1  23
TORSDOF 7
ENDMDL
MODEL 9
REMARK VINA RESULT:      -9.5      8.513     11.768
REMARK  Name = 9823454
REMARK  7 active torsions:
REMARK  status: ('A' for Active; 'I' for Inactive)
REMARK    1  A    between atoms: C_1  and  C_4
REMARK    2  A    between atoms: C_1  and  N_8
REMARK    3  A    between atoms: C_1  and  C_23
REMARK    4  A    between atoms: N_3  and  O_6
REMARK    5  A    between atoms: N_8  and  S_10
REMARK    6  A    between atoms: S_10  and  C_13
REMARK    7  A    between atoms: C_23  and  C_24
REMARK                            x       y       z     vdW  Elec       q    Type
REMARK                         _______ _______ _______ _____ _____    ______ ____
ROOT
ATOM      1  C   UNL     1      34.470 -16.195 -22.870  0.00  0.00    +0.158 C 
ENDROOT
BRANCH   1   4
ATOM      2  O   UNL     1      33.883 -16.674 -25.165  0.00  0.00    -0.272 OA
ATOM      3  N   UNL     1      33.398 -14.587 -24.304  0.00  0.00    -0.196 N 
ATOM      4  C   UNL     1      33.890 -15.867 -24.236  0.00  0.00    +0.260 C 
ATOM      5  H   UNL     1      33.424 -13.975 -23.533  0.00  0.00    +0.182 HD
BRANCH   3   6
ATOM      6  O   UNL     1      32.854 -14.206 -25.538  0.00  0.00    -0.295 OA
ATOM      7  H   UNL     1      33.484 -13.636 -26.006  0.00  0.00    +0.241 HD
ENDBRANCH   3   6
ENDBRANCH   1   4
BRANCH   1   8
ATOM      8  N   UNL     1      34.841 -14.890 -22.271  0.00  0.00    -0.172 NA
ATOM      9  H   UNL     1      35.855 -14.889 -22.170  0.00  0.00    +0.149 HD
BRANCH   8  10
ATOM     10  S   UNL     1      34.197 -14.436 -20.767  0.00  0.00    +0.061 S 
ATOM     11  O   UNL     1      35.276 -14.053 -19.876  0.00  0.00    -0.153 OA
ATOM     12  O   UNL     1      33.228 -15.434 -20.354  0.00  0.00    -0.153 OA
BRANCH  10  13
ATOM     13  C   UNL     1      33.291 -12.978 -21.183  0.00  0.00    +0.122 C 
ATOM     14  C   UNL     1      33.736 -12.178 -22.222  0.00  0.00    +0.020 C 
ATOM     15  C   UNL     1      33.027 -11.015 -22.565  0.00  0.00    +0.001 C 
ATOM     16  C   UNL     1      32.154 -12.663 -20.465  0.00  0.00    +0.020 C 
ATOM     17  C   UNL     1      31.860 -10.677 -21.839  0.00  0.00    +0.000 C 
ATOM     18  C   UNL     1      31.437 -11.511 -20.793  0.00  0.00    +0.001 C 
ATOM     19  C   UNL     1      33.451 -10.181 -23.612  0.00  0.00    +0.000 C 
ATOM     20  C   UNL     1      31.152  -9.514 -22.181  0.00  0.00    +0.000 C 
ATOM     21  C   UNL     1      32.735  -9.029 -23.939  0.00  0.00    +0.000 C 
ATOM     22  C   UNL     1      31.588  -8.697 -23.225  0.00  0.00    +0.000 C 
ENDBRANCH  10  13
ENDBRANCH   8  10
ENDBRANCH   1   8
BRANCH   1  23
ATOM     23  C   UNL     1      35.718 -17.085 -22.993  0.00  0.00    +0.053 C 
BRANCH  23  24
ATOM     24  C   UNL     1      35.769 -18.177 -21.979  0.00  0.00    -0.020 C 
ATOM     25  C   UNL     1      34.595 -18.823 -21.589  0.00  0.00    -0.004 C 
ATOM     26  C   UNL     1      34.626 -19.853 -20.635  0.00  0.00    -0.000 C 
ATOM     27  C   UNL     1      36.987 -18.552 -21.422  0.00  0.00    -0.004 C 
ATOM     28  C   UNL     1      35.866 -20.234 -20.069  0.00  0.00    -0.000 C 
ATOM     29  C   UNL     1      37.037 -19.574 -20.473  0.00  0.00    -0.000 C 
ATOM     30  C   UNL     1      33.454 -20.513 -20.231  0.00  0.00    -0.000 C 
ATOM     31  C   UNL     1      35.898 -21.264 -19.115  0.00  0.00    -0.000 C 
ATOM     32  C   UNL     1      33.504 -21.535 -19.282  0.00  0.00    -0.000 C 
ATOM     33  C   UNL     1      34.723 -21.909 -18.725  0.00  0.00    -0.000 C 
ENDBRANCH  23  24
ENDBRANCH   1  23
TORSDOF 7
ENDMDL
