MODEL 1
REMARK VINA RESULT:     -11.7      0.000      0.000
REMARK  Name = 15602701
REMARK  5 active torsions:
REMARK  status: ('A' for Active; 'I' for Inactive)
REMARK    1  A    between atoms: N_5  and  C_12
REMARK    2  A    between atoms: C_6  and  C_22
REMARK    3  A    between atoms: C_13  and  C_21
REMARK    4  A    between atoms: C_22  and  C_23
REMARK    5  A    between atoms: C_23  and  N_24
REMARK                            x       y       z     vdW  Elec       q    Type
REMARK                         _______ _______ _______ _____ _____    ______ ____
ROOT
ATOM      1  S   UNL     1      36.674 -20.596 -19.397  0.00  0.00    -0.056 S 
ATOM      2  O   UNL     1      35.328 -23.440 -15.982  0.00  0.00    -0.252 OA
ATOM      3  N   UNL     1      34.670 -21.888 -18.398  0.00  0.00    -0.223 NA
ATOM      4  N   UNL     1      36.782 -22.109 -17.259  0.00  0.00    -0.248 N 
ATOM      5  N   UNL     1      37.579 -23.225 -15.395  0.00  0.00    -0.268 N 
ATOM      6  C   UNL     1      35.161 -20.480 -20.157  0.00  0.00    +0.031 C 
ATOM      7  C   UNL     1      34.217 -21.211 -19.513  0.00  0.00    +0.103 C 
ATOM      8  C   UNL     1      35.951 -21.638 -18.240  0.00  0.00    +0.166 C 
ATOM      9  C   UNL     1      36.445 -22.977 -16.186  0.00  0.00    +0.310 C 
ATOM     10  H   UNL     1      37.721 -21.811 -17.301  0.00  0.00    +0.158 HD
ATOM     11  H   UNL     1      38.411 -22.782 -15.682  0.00  0.00    +0.156 HD
ENDROOT
BRANCH   5  12
ATOM     12  C   UNL     1      37.674 -24.032 -14.237  0.00  0.00    +0.052 C 
ATOM     13  C   UNL     1      36.935 -24.570 -12.018  0.00  0.00    +0.073 C 
ATOM     14  C   UNL     1      36.841 -23.774 -13.160  0.00  0.00    +0.019 C 
ATOM     15  C   UNL     1      38.596 -25.065 -14.204  0.00  0.00    +0.015 C 
ATOM     16  C   UNL     1      37.858 -25.615 -11.970  0.00  0.00    +0.004 C 
ATOM     17  C   UNL     1      38.690 -25.861 -13.062  0.00  0.00    +0.001 C 
BRANCH  13  21
ATOM     18  F   UNL     1      35.562 -25.442 -10.263  0.00  0.00    -0.166 F 
ATOM     19  F   UNL     1      36.658 -23.618  -9.842  0.00  0.00    -0.166 F 
ATOM     20  F   UNL     1      34.946 -23.570 -11.182  0.00  0.00    -0.166 F 
ATOM     21  C   UNL     1      36.046 -24.307 -10.850  0.00  0.00    +0.419 C 
ENDBRANCH  13  21
ENDBRANCH   5  12
BRANCH   6  22
ATOM     22  C   UNL     1      35.012 -19.627 -21.395  0.00  0.00    +0.056 C 
BRANCH  22  23
ATOM     23  C   UNL     1      36.077 -18.535 -21.489  0.00  0.00    +0.093 C 
BRANCH  23  24
ATOM     24  N   UNL     1      35.477 -17.234 -21.542  0.00  0.00    -0.320 N 
ATOM     25  N   UNL     1      34.161 -14.462 -21.801  0.00  0.00    -0.220 N 
ATOM     26  N   UNL     1      33.550 -13.360 -22.277  0.00  0.00    -0.178 NA
ATOM     27  N   UNL     1      34.978 -17.385 -23.875  0.00  0.00    -0.232 NA
ATOM     28  N   UNL     1      33.871 -15.586 -25.093  0.00  0.00    -0.245 NA
ATOM     29  C   UNL     1      34.369 -15.427 -22.742  0.00  0.00    +0.185 C 
ATOM     30  C   UNL     1      34.942 -16.685 -22.719  0.00  0.00    +0.128 C 
ATOM     31  C   UNL     1      33.850 -14.912 -23.919  0.00  0.00    +0.103 C 
ATOM     32  C   UNL     1      33.362 -13.641 -23.572  0.00  0.00    +0.134 C 
ATOM     33  C   UNL     1      34.521 -14.506 -20.403  0.00  0.00    +0.135 C 
ATOM     34  C   UNL     1      34.447 -16.801 -24.975  0.00  0.00    +0.251 C 
ATOM     35  H   UNL     1      35.438 -16.702 -20.715  0.00  0.00    +0.148 HD
ENDBRANCH  23  24
ENDBRANCH  22  23
ENDBRANCH   6  22
TORSDOF 5
ENDMDL
MODEL 2
REMARK VINA RESULT:     -11.6      7.937     13.696
REMARK  Name = 15602701
REMARK  5 active torsions:
REMARK  status: ('A' for Active; 'I' for Inactive)
REMARK    1  A    between atoms: N_5  and  C_12
REMARK    2  A    between atoms: C_6  and  C_22
REMARK    3  A    between atoms: C_13  and  C_21
REMARK    4  A    between atoms: C_22  and  C_23
REMARK    5  A    between atoms: C_23  and  N_24
REMARK                            x       y       z     vdW  Elec       q    Type
REMARK                         _______ _______ _______ _____ _____    ______ ____
ROOT
ATOM      1  S   UNL     1      34.933 -15.890 -22.090  0.00  0.00    -0.056 S 
ATOM      2  O   UNL     1      33.280 -12.333 -24.574  0.00  0.00    -0.252 OA
ATOM      3  N   UNL     1      34.141 -15.147 -24.436  0.00  0.00    -0.223 NA
ATOM      4  N   UNL     1      34.078 -13.487 -22.690  0.00  0.00    -0.248 N 
ATOM      5  N   UNL     1      33.468 -11.262 -22.506  0.00  0.00    -0.268 N 
ATOM      6  C   UNL     1      34.955 -17.017 -23.360  0.00  0.00    +0.031 C 
ATOM      7  C   UNL     1      34.512 -16.474 -24.521  0.00  0.00    +0.103 C 
ATOM      8  C   UNL     1      34.320 -14.734 -23.201  0.00  0.00    +0.166 C 
ATOM      9  C   UNL     1      33.576 -12.353 -23.385  0.00  0.00    +0.310 C 
ATOM     10  H   UNL     1      34.274 -13.360 -21.733  0.00  0.00    +0.158 HD
ATOM     11  H   UNL     1      33.744 -11.428 -21.576  0.00  0.00    +0.156 HD
ENDROOT
BRANCH   5  12
ATOM     12  C   UNL     1      33.013  -9.954 -22.794  0.00  0.00    +0.052 C 
ATOM     13  C   UNL     1      33.479  -7.698 -23.467  0.00  0.00    +0.073 C 
ATOM     14  C   UNL     1      33.928  -8.988 -23.183  0.00  0.00    +0.019 C 
ATOM     15  C   UNL     1      31.663  -9.666 -22.684  0.00  0.00    +0.015 C 
ATOM     16  C   UNL     1      32.122  -7.392 -23.361  0.00  0.00    +0.004 C 
ATOM     17  C   UNL     1      31.214  -8.376 -22.969  0.00  0.00    +0.001 C 
BRANCH  13  21
ATOM     18  F   UNL     1      34.885  -6.784 -25.174  0.00  0.00    -0.166 F 
ATOM     19  F   UNL     1      33.945  -5.378 -23.816  0.00  0.00    -0.166 F 
ATOM     20  F   UNL     1      35.577  -6.634 -23.119  0.00  0.00    -0.166 F 
ATOM     21  C   UNL     1      34.449  -6.645 -23.887  0.00  0.00    +0.419 C 
ENDBRANCH  13  21
ENDBRANCH   5  12
BRANCH   6  22
ATOM     22  C   UNL     1      35.435 -18.426 -23.099  0.00  0.00    +0.056 C 
BRANCH  22  23
ATOM     23  C   UNL     1      35.865 -18.641 -21.648  0.00  0.00    +0.093 C 
BRANCH  23  24
ATOM     24  N   UNL     1      34.939 -19.489 -20.957  0.00  0.00    -0.320 N 
ATOM     25  N   UNL     1      33.063 -21.362 -19.389  0.00  0.00    -0.220 N 
ATOM     26  N   UNL     1      32.570 -22.279 -18.535  0.00  0.00    -0.178 NA
ATOM     27  N   UNL     1      36.624 -20.468 -19.572  0.00  0.00    -0.232 NA
ATOM     28  N   UNL     1      36.115 -22.167 -17.900  0.00  0.00    -0.245 NA
ATOM     29  C   UNL     1      34.412 -21.185 -19.290  0.00  0.00    +0.185 C 
ATOM     30  C   UNL     1      35.326 -20.378 -19.941  0.00  0.00    +0.128 C 
ATOM     31  C   UNL     1      34.825 -22.053 -18.292  0.00  0.00    +0.103 C 
ATOM     32  C   UNL     1      33.650 -22.698 -17.867  0.00  0.00    +0.134 C 
ATOM     33  C   UNL     1      32.153 -20.690 -20.287  0.00  0.00    +0.135 C 
ATOM     34  C   UNL     1      36.934 -21.345 -18.588  0.00  0.00    +0.251 C 
ATOM     35  H   UNL     1      33.987 -19.445 -21.205  0.00  0.00    +0.148 HD
ENDBRANCH  23  24
ENDBRANCH  22  23
ENDBRANCH   6  22
TORSDOF 5
ENDMDL
MODEL 3
REMARK VINA RESULT:     -11.4      4.979      7.953
REMARK  Name = 15602701
REMARK  5 active torsions:
REMARK  status: ('A' for Active; 'I' for Inactive)
REMARK    1  A    between atoms: N_5  and  C_12
REMARK    2  A    between atoms: C_6  and  C_22
REMARK    3  A    between atoms: C_13  and  C_21
REMARK    4  A    between atoms: C_22  and  C_23
REMARK    5  A    between atoms: C_23  and  N_24
REMARK                            x       y       z     vdW  Elec       q    Type
REMARK                         _______ _______ _______ _____ _____    ______ ____
ROOT
ATOM      1  S   UNL     1      33.859 -15.166 -24.661  0.00  0.00    -0.056 S 
ATOM      2  O   UNL     1      35.302 -16.733 -20.535  0.00  0.00    -0.252 OA
ATOM      3  N   UNL     1      34.541 -14.474 -22.266  0.00  0.00    -0.223 NA
ATOM      4  N   UNL     1      34.607 -16.828 -22.777  0.00  0.00    -0.248 N 
ATOM      5  N   UNL     1      35.146 -18.778 -21.655  0.00  0.00    -0.268 N 
ATOM      6  C   UNL     1      33.832 -13.522 -24.243  0.00  0.00    +0.031 C 
ATOM      7  C   UNL     1      34.216 -13.323 -22.957  0.00  0.00    +0.103 C 
ATOM      8  C   UNL     1      34.390 -15.506 -23.065  0.00  0.00    +0.166 C 
ATOM      9  C   UNL     1      35.047 -17.381 -21.545  0.00  0.00    +0.310 C 
ATOM     10  H   UNL     1      34.440 -17.468 -23.508  0.00  0.00    +0.158 HD
ATOM     11  H   UNL     1      34.908 -19.160 -22.531  0.00  0.00    +0.156 HD
ENDROOT
BRANCH   5  12
ATOM     12  C   UNL     1      35.546 -19.704 -20.662  0.00  0.00    +0.052 C 
ATOM     13  C   UNL     1      34.991 -21.442 -19.104  0.00  0.00    +0.073 C 
ATOM     14  C   UNL     1      34.596 -20.529 -20.082  0.00  0.00    +0.019 C 
ATOM     15  C   UNL     1      36.879 -19.767 -20.292  0.00  0.00    +0.015 C 
ATOM     16  C   UNL     1      36.330 -21.519 -18.721  0.00  0.00    +0.004 C 
ATOM     17  C   UNL     1      37.274 -20.681 -19.314  0.00  0.00    +0.001 C 
BRANCH  13  21
ATOM     18  F   UNL     1      33.809 -23.523 -19.130  0.00  0.00    -0.166 F 
ATOM     19  F   UNL     1      34.293 -22.689 -17.187  0.00  0.00    -0.166 F 
ATOM     20  F   UNL     1      32.742 -21.772 -18.405  0.00  0.00    -0.166 F 
ATOM     21  C   UNL     1      33.982 -22.339 -18.470  0.00  0.00    +0.419 C 
ENDBRANCH  13  21
ENDBRANCH   5  12
BRANCH   6  22
ATOM     22  C   UNL     1      33.413 -12.497 -25.272  0.00  0.00    +0.056 C 
BRANCH  22  23
ATOM     23  C   UNL     1      33.986 -11.109 -24.987  0.00  0.00    +0.093 C 
BRANCH  23  24
ATOM     24  N   UNL     1      33.368 -10.524 -23.834  0.00  0.00    -0.320 N 
ATOM     25  N   UNL     1      32.120  -9.141 -21.381  0.00  0.00    -0.220 N 
ATOM     26  N   UNL     1      31.806  -8.255 -20.417  0.00  0.00    -0.178 NA
ATOM     27  N   UNL     1      34.570  -8.468 -24.037  0.00  0.00    -0.232 NA
ATOM     28  N   UNL     1      34.270  -6.619 -22.476  0.00  0.00    -0.245 NA
ATOM     29  C   UNL     1      33.053  -8.686 -22.265  0.00  0.00    +0.185 C 
ATOM     30  C   UNL     1      33.664  -9.227 -23.381  0.00  0.00    +0.128 C 
ATOM     31  C   UNL     1      33.368  -7.405 -21.843  0.00  0.00    +0.103 C 
ATOM     32  C   UNL     1      32.571  -7.196 -20.704  0.00  0.00    +0.134 C 
ATOM     33  C   UNL     1      31.466 -10.429 -21.379  0.00  0.00    +0.135 C 
ATOM     34  C   UNL     1      34.814  -7.228 -23.551  0.00  0.00    +0.251 C 
ATOM     35  H   UNL     1      32.704 -11.055 -23.337  0.00  0.00    +0.148 HD
ENDBRANCH  23  24
ENDBRANCH  22  23
ENDBRANCH   6  22
TORSDOF 5
ENDMDL
MODEL 4
REMARK VINA RESULT:     -11.2      7.758     13.569
REMARK  Name = 15602701
REMARK  5 active torsions:
REMARK  status: ('A' for Active; 'I' for Inactive)
REMARK    1  A    between atoms: N_5  and  C_12
REMARK    2  A    between atoms: C_6  and  C_22
REMARK    3  A    between atoms: C_13  and  C_21
REMARK    4  A    between atoms: C_22  and  C_23
REMARK    5  A    between atoms: C_23  and  N_24
REMARK                            x       y       z     vdW  Elec       q    Type
REMARK                         _______ _______ _______ _____ _____    ______ ____
ROOT
ATOM      1  S   UNL     1      35.044 -16.022 -22.477  0.00  0.00    -0.056 S 
ATOM      2  O   UNL     1      33.523 -12.382 -24.926  0.00  0.00    -0.252 OA
ATOM      3  N   UNL     1      33.923 -15.292 -24.689  0.00  0.00    -0.223 NA
ATOM      4  N   UNL     1      34.488 -13.545 -23.128  0.00  0.00    -0.248 N 
ATOM      5  N   UNL     1      34.300 -11.240 -23.042  0.00  0.00    -0.268 N 
ATOM      6  C   UNL     1      34.622 -17.209 -23.615  0.00  0.00    +0.031 C 
ATOM      7  C   UNL     1      34.048 -16.667 -24.718  0.00  0.00    +0.103 C 
ATOM      8  C   UNL     1      34.415 -14.844 -23.556  0.00  0.00    +0.166 C 
ATOM      9  C   UNL     1      34.047 -12.384 -23.818  0.00  0.00    +0.310 C 
ATOM     10  H   UNL     1      34.893 -13.398 -22.242  0.00  0.00    +0.158 HD
ATOM     11  H   UNL     1      34.729 -11.397 -22.170  0.00  0.00    +0.156 HD
ENDROOT
BRANCH   5  12
ATOM     12  C   UNL     1      34.016  -9.891 -23.361  0.00  0.00    +0.052 C 
ATOM     13  C   UNL     1      32.511  -8.023 -23.314  0.00  0.00    +0.073 C 
ATOM     14  C   UNL     1      32.791  -9.353 -23.001  0.00  0.00    +0.019 C 
ATOM     15  C   UNL     1      34.969  -9.136 -24.024  0.00  0.00    +0.015 C 
ATOM     16  C   UNL     1      33.460  -7.249 -23.982  0.00  0.00    +0.004 C 
ATOM     17  C   UNL     1      34.689  -7.806 -24.337  0.00  0.00    +0.001 C 
BRANCH  13  21
ATOM     18  F   UNL     1      30.884  -6.298 -23.637  0.00  0.00    -0.166 F 
ATOM     19  F   UNL     1      30.140  -8.270 -23.124  0.00  0.00    -0.166 F 
ATOM     20  F   UNL     1      31.146  -7.065 -21.619  0.00  0.00    -0.166 F 
ATOM     21  C   UNL     1      31.198  -7.427 -22.934  0.00  0.00    +0.419 C 
ENDBRANCH  13  21
ENDBRANCH   5  12
BRANCH   6  22
ATOM     22  C   UNL     1      34.909 -18.663 -23.319  0.00  0.00    +0.056 C 
BRANCH  22  23
ATOM     23  C   UNL     1      35.552 -18.868 -21.947  0.00  0.00    +0.093 C 
BRANCH  23  24
ATOM     24  N   UNL     1      34.732 -19.696 -21.113  0.00  0.00    -0.320 N 
ATOM     25  N   UNL     1      33.095 -21.517 -19.245  0.00  0.00    -0.220 N 
ATOM     26  N   UNL     1      32.723 -22.380 -18.280  0.00  0.00    -0.178 NA
ATOM     27  N   UNL     1      36.574 -20.471 -19.801  0.00  0.00    -0.232 NA
ATOM     28  N   UNL     1      36.296 -22.043 -17.959  0.00  0.00    -0.245 NA
ATOM     29  C   UNL     1      34.435 -21.267 -19.275  0.00  0.00    +0.185 C 
ATOM     30  C   UNL     1      35.248 -20.476 -20.064  0.00  0.00    +0.128 C 
ATOM     31  C   UNL     1      34.974 -22.026 -18.248  0.00  0.00    +0.103 C 
ATOM     32  C   UNL     1      33.875 -22.688 -17.674  0.00  0.00    +0.134 C 
ATOM     33  C   UNL     1      32.080 -20.969 -20.115  0.00  0.00    +0.135 C 
ATOM     34  C   UNL     1      37.011 -21.244 -18.779  0.00  0.00    +0.251 C 
ATOM     35  H   UNL     1      33.763 -19.720 -21.283  0.00  0.00    +0.148 HD
ENDBRANCH  23  24
ENDBRANCH  22  23
ENDBRANCH   6  22
TORSDOF 5
ENDMDL
MODEL 5
REMARK VINA RESULT:     -11.2      5.735     11.853
REMARK  Name = 15602701
REMARK  5 active torsions:
REMARK  status: ('A' for Active; 'I' for Inactive)
REMARK    1  A    between atoms: N_5  and  C_12
REMARK    2  A    between atoms: C_6  and  C_22
REMARK    3  A    between atoms: C_13  and  C_21
REMARK    4  A    between atoms: C_22  and  C_23
REMARK    5  A    between atoms: C_23  and  N_24
REMARK                            x       y       z     vdW  Elec       q    Type
REMARK                         _______ _______ _______ _____ _____    ______ ____
ROOT
ATOM      1  S   UNL     1      33.821 -23.603 -15.849  0.00  0.00    -0.056 S 
ATOM      2  O   UNL     1      33.047 -20.833 -19.494  0.00  0.00    -0.252 OA
ATOM      3  N   UNL     1      31.992 -22.481 -17.291  0.00  0.00    -0.223 NA
ATOM      4  N   UNL     1      34.281 -22.049 -17.909  0.00  0.00    -0.248 N 
ATOM      5  N   UNL     1      35.383 -20.833 -19.540  0.00  0.00    -0.268 N 
ATOM      6  C   UNL     1      32.190 -23.870 -15.461  0.00  0.00    +0.031 C 
ATOM      7  C   UNL     1      31.358 -23.216 -16.309  0.00  0.00    +0.103 C 
ATOM      8  C   UNL     1      33.292 -22.611 -17.146  0.00  0.00    +0.166 C 
ATOM      9  C   UNL     1      34.124 -21.196 -19.034  0.00  0.00    +0.310 C 
ATOM     10  H   UNL     1      35.208 -22.261 -17.648  0.00  0.00    +0.158 HD
ATOM     11  H   UNL     1      36.162 -21.203 -19.066  0.00  0.00    +0.156 HD
ENDROOT
BRANCH   5  12
ATOM     12  C   UNL     1      35.669 -20.000 -20.648  0.00  0.00    +0.052 C 
ATOM     13  C   UNL     1      35.090 -19.174 -22.825  0.00  0.00    +0.073 C 
ATOM     14  C   UNL     1      34.808 -19.996 -21.734  0.00  0.00    +0.019 C 
ATOM     15  C   UNL     1      36.802 -19.205 -20.623  0.00  0.00    +0.015 C 
ATOM     16  C   UNL     1      36.228 -18.367 -22.816  0.00  0.00    +0.004 C 
ATOM     17  C   UNL     1      37.084 -18.383 -21.714  0.00  0.00    +0.001 C 
BRANCH  13  21
ATOM     18  F   UNL     1      32.857 -19.314 -23.674  0.00  0.00    -0.166 F 
ATOM     19  F   UNL     1      34.226 -17.994 -24.717  0.00  0.00    -0.166 F 
ATOM     20  F   UNL     1      34.449 -20.149 -24.897  0.00  0.00    -0.166 F 
ATOM     21  C   UNL     1      34.174 -19.156 -24.002  0.00  0.00    +0.419 C 
ENDBRANCH  13  21
ENDBRANCH   5  12
BRANCH   6  22
ATOM     22  C   UNL     1      31.837 -24.754 -14.288  0.00  0.00    +0.056 C 
BRANCH  22  23
ATOM     23  C   UNL     1      32.738 -24.513 -13.077  0.00  0.00    +0.093 C 
BRANCH  23  24
ATOM     24  N   UNL     1      34.055 -25.030 -13.304  0.00  0.00    -0.320 N 
ATOM     25  N   UNL     1      36.925 -26.092 -13.656  0.00  0.00    -0.220 N 
ATOM     26  N   UNL     1      38.221 -26.402 -13.464  0.00  0.00    -0.178 NA
ATOM     27  N   UNL     1      34.886 -24.281 -11.192  0.00  0.00    -0.232 NA
ATOM     28  N   UNL     1      37.188 -24.659 -10.485  0.00  0.00    -0.245 NA
ATOM     29  C   UNL     1      36.359 -25.418 -12.614  0.00  0.00    +0.185 C 
ATOM     30  C   UNL     1      35.097 -24.910 -12.370  0.00  0.00    +0.128 C 
ATOM     31  C   UNL     1      37.367 -25.282 -11.672  0.00  0.00    +0.103 C 
ATOM     32  C   UNL     1      38.486 -25.905 -12.251  0.00  0.00    +0.134 C 
ATOM     33  C   UNL     1      36.293 -26.486 -14.893  0.00  0.00    +0.135 C 
ATOM     34  C   UNL     1      35.930 -24.196 -10.333  0.00  0.00    +0.251 C 
ATOM     35  H   UNL     1      34.238 -25.493 -14.154  0.00  0.00    +0.148 HD
ENDBRANCH  23  24
ENDBRANCH  22  23
ENDBRANCH   6  22
TORSDOF 5
ENDMDL
MODEL 6
REMARK VINA RESULT:     -10.9      2.126      2.619
REMARK  Name = 15602701
REMARK  5 active torsions:
REMARK  status: ('A' for Active; 'I' for Inactive)
REMARK    1  A    between atoms: N_5  and  C_12
REMARK    2  A    between atoms: C_6  and  C_22
REMARK    3  A    between atoms: C_13  and  C_21
REMARK    4  A    between atoms: C_22  and  C_23
REMARK    5  A    between atoms: C_23  and  N_24
REMARK                            x       y       z     vdW  Elec       q    Type
REMARK                         _______ _______ _______ _____ _____    ______ ____
ROOT
ATOM      1  S   UNL     1      34.470 -20.866 -20.211  0.00  0.00    -0.056 S 
ATOM      2  O   UNL     1      37.545 -21.591 -16.809  0.00  0.00    -0.252 OA
ATOM      3  N   UNL     1      36.815 -20.239 -19.323  0.00  0.00    -0.223 NA
ATOM      4  N   UNL     1      35.542 -21.813 -18.015  0.00  0.00    -0.248 N 
ATOM      5  N   UNL     1      35.846 -23.006 -16.056  0.00  0.00    -0.268 N 
ATOM      6  C   UNL     1      35.413 -19.761 -21.090  0.00  0.00    +0.031 C 
ATOM      7  C   UNL     1      36.612 -19.539 -20.496  0.00  0.00    +0.103 C 
ATOM      8  C   UNL     1      35.752 -20.971 -19.075  0.00  0.00    +0.166 C 
ATOM      9  C   UNL     1      36.432 -22.086 -16.942  0.00  0.00    +0.310 C 
ATOM     10  H   UNL     1      34.677 -22.284 -17.996  0.00  0.00    +0.158 HD
ATOM     11  H   UNL     1      34.943 -23.319 -16.293  0.00  0.00    +0.156 HD
ENDROOT
BRANCH   5  12
ATOM     12  C   UNL     1      36.394 -23.539 -14.865  0.00  0.00    +0.052 C 
ATOM     13  C   UNL     1      38.031 -24.908 -13.768  0.00  0.00    +0.073 C 
ATOM     14  C   UNL     1      37.490 -24.383 -14.942  0.00  0.00    +0.019 C 
ATOM     15  C   UNL     1      35.824 -23.206 -13.648  0.00  0.00    +0.015 C 
ATOM     16  C   UNL     1      37.468 -24.581 -12.534  0.00  0.00    +0.004 C 
ATOM     17  C   UNL     1      36.364 -23.731 -12.474  0.00  0.00    +0.001 C 
BRANCH  13  21
ATOM     18  F   UNL     1      40.343 -25.213 -14.301  0.00  0.00    -0.166 F 
ATOM     19  F   UNL     1      39.564 -26.339 -12.620  0.00  0.00    -0.166 F 
ATOM     20  F   UNL     1      39.004 -26.891 -14.647  0.00  0.00    -0.166 F 
ATOM     21  C   UNL     1      39.212 -25.817 -13.831  0.00  0.00    +0.419 C 
ENDBRANCH  13  21
ENDBRANCH   5  12
BRANCH   6  22
ATOM     22  C   UNL     1      34.869 -19.168 -22.369  0.00  0.00    +0.056 C 
BRANCH  22  23
ATOM     23  C   UNL     1      35.687 -17.973 -22.857  0.00  0.00    +0.093 C 
BRANCH  23  24
ATOM     24  N   UNL     1      35.120 -16.739 -22.399  0.00  0.00    -0.320 N 
ATOM     25  N   UNL     1      33.861 -14.058 -21.554  0.00  0.00    -0.220 N 
ATOM     26  N   UNL     1      33.238 -12.864 -21.558  0.00  0.00    -0.178 NA
ATOM     27  N   UNL     1      34.400 -16.075 -24.579  0.00  0.00    -0.232 NA
ATOM     28  N   UNL     1      33.232 -13.974 -24.986  0.00  0.00    -0.245 NA
ATOM     29  C   UNL     1      33.954 -14.636 -22.786  0.00  0.00    +0.185 C 
ATOM     30  C   UNL     1      34.492 -15.820 -23.255  0.00  0.00    +0.128 C 
ATOM     31  C   UNL     1      33.341 -13.748 -23.656  0.00  0.00    +0.103 C 
ATOM     32  C   UNL     1      32.922 -12.680 -22.845  0.00  0.00    +0.134 C 
ATOM     33  C   UNL     1      34.350 -14.582 -20.300  0.00  0.00    +0.135 C 
ATOM     34  C   UNL     1      33.784 -15.150 -25.353  0.00  0.00    +0.251 C 
ATOM     35  H   UNL     1      35.173 -16.526 -21.439  0.00  0.00    +0.148 HD
ENDBRANCH  23  24
ENDBRANCH  22  23
ENDBRANCH   6  22
TORSDOF 5
ENDMDL
MODEL 7
REMARK VINA RESULT:     -10.9      3.655      4.847
REMARK  Name = 15602701
REMARK  5 active torsions:
REMARK  status: ('A' for Active; 'I' for Inactive)
REMARK    1  A    between atoms: N_5  and  C_12
REMARK    2  A    between atoms: C_6  and  C_22
REMARK    3  A    between atoms: C_13  and  C_21
REMARK    4  A    between atoms: C_22  and  C_23
REMARK    5  A    between atoms: C_23  and  N_24
REMARK                            x       y       z     vdW  Elec       q    Type
REMARK                         _______ _______ _______ _____ _____    ______ ____
ROOT
ATOM      1  S   UNL     1      33.839 -20.156 -20.367  0.00  0.00    -0.056 S 
ATOM      2  O   UNL     1      33.314 -23.138 -16.847  0.00  0.00    -0.252 OA
ATOM      3  N   UNL     1      35.081 -21.744 -18.748  0.00  0.00    -0.223 NA
ATOM      4  N   UNL     1      32.687 -21.600 -18.508  0.00  0.00    -0.248 N 
ATOM      5  N   UNL     1      31.074 -22.548 -17.146  0.00  0.00    -0.268 N 
ATOM      6  C   UNL     1      35.527 -20.297 -20.488  0.00  0.00    +0.031 C 
ATOM      7  C   UNL     1      36.025 -21.166 -19.574  0.00  0.00    +0.103 C 
ATOM      8  C   UNL     1      33.894 -21.285 -19.075  0.00  0.00    +0.166 C 
ATOM      9  C   UNL     1      32.448 -22.500 -17.434  0.00  0.00    +0.310 C 
ATOM     10  H   UNL     1      31.895 -21.154 -18.888  0.00  0.00    +0.158 HD
ATOM     11  H   UNL     1      30.496 -21.978 -17.704  0.00  0.00    +0.156 HD
ENDROOT
BRANCH   5  12
ATOM     12  C   UNL     1      30.418 -23.314 -16.154  0.00  0.00    +0.052 C 
ATOM     13  C   UNL     1      30.379 -24.247 -13.944  0.00  0.00    +0.073 C 
ATOM     14  C   UNL     1      31.026 -23.492 -14.922  0.00  0.00    +0.019 C 
ATOM     15  C   UNL     1      29.181 -23.870 -16.435  0.00  0.00    +0.015 C 
ATOM     16  C   UNL     1      29.132 -24.813 -14.210  0.00  0.00    +0.004 C 
ATOM     17  C   UNL     1      28.534 -24.625 -15.457  0.00  0.00    +0.001 C 
BRANCH  13  21
ATOM     18  F   UNL     1      31.761 -23.380 -12.193  0.00  0.00    -0.166 F 
ATOM     19  F   UNL     1      30.124 -24.676 -11.605  0.00  0.00    -0.166 F 
ATOM     20  F   UNL     1      31.870 -25.515 -12.593  0.00  0.00    -0.166 F 
ATOM     21  C   UNL     1      31.019 -24.448 -12.611  0.00  0.00    +0.419 C 
ENDBRANCH  13  21
ENDBRANCH   5  12
BRANCH   6  22
ATOM     22  C   UNL     1      36.269 -19.499 -21.534  0.00  0.00    +0.056 C 
BRANCH  22  23
ATOM     23  C   UNL     1      36.351 -18.012 -21.191  0.00  0.00    +0.093 C 
BRANCH  23  24
ATOM     24  N   UNL     1      35.652 -17.220 -22.159  0.00  0.00    -0.320 N 
ATOM     25  N   UNL     1      34.112 -15.422 -24.130  0.00  0.00    -0.220 N 
ATOM     26  N   UNL     1      33.376 -14.435 -24.675  0.00  0.00    -0.178 NA
ATOM     27  N   UNL     1      34.957 -15.588 -20.557  0.00  0.00    -0.232 NA
ATOM     28  N   UNL     1      33.610 -13.650 -21.166  0.00  0.00    -0.245 NA
ATOM     29  C   UNL     1      34.306 -15.289 -22.787  0.00  0.00    +0.185 C 
ATOM     30  C   UNL     1      34.974 -16.034 -21.833  0.00  0.00    +0.128 C 
ATOM     31  C   UNL     1      33.646 -14.123 -22.433  0.00  0.00    +0.103 C 
ATOM     32  C   UNL     1      33.093 -13.644 -23.634  0.00  0.00    +0.134 C 
ATOM     33  C   UNL     1      34.599 -16.478 -24.987  0.00  0.00    +0.135 C 
ATOM     34  C   UNL     1      34.286 -14.439 -20.305  0.00  0.00    +0.251 C 
ATOM     35  H   UNL     1      35.646 -17.521 -23.096  0.00  0.00    +0.148 HD
ENDBRANCH  23  24
ENDBRANCH  22  23
ENDBRANCH   6  22
TORSDOF 5
ENDMDL
MODEL 8
REMARK VINA RESULT:     -10.8      8.111     14.035
REMARK  Name = 15602701
REMARK  5 active torsions:
REMARK  status: ('A' for Active; 'I' for Inactive)
REMARK    1  A    between atoms: N_5  and  C_12
REMARK    2  A    between atoms: C_6  and  C_22
REMARK    3  A    between atoms: C_13  and  C_21
REMARK    4  A    between atoms: C_22  and  C_23
REMARK    5  A    between atoms: C_23  and  N_24
REMARK                            x       y       z     vdW  Elec       q    Type
REMARK                         _______ _______ _______ _____ _____    ______ ____
ROOT
ATOM      1  S   UNL     1      34.470 -14.710 -22.826  0.00  0.00    -0.056 S 
ATOM      2  O   UNL     1      33.330 -10.726 -24.921  0.00  0.00    -0.252 OA
ATOM      3  N   UNL     1      33.499 -13.667 -24.983  0.00  0.00    -0.223 NA
ATOM      4  N   UNL     1      34.130 -12.142 -23.226  0.00  0.00    -0.248 N 
ATOM      5  N   UNL     1      34.113  -9.852 -22.901  0.00  0.00    -0.268 N 
ATOM      6  C   UNL     1      34.007 -15.735 -24.098  0.00  0.00    +0.031 C 
ATOM      7  C   UNL     1      33.520 -15.037 -25.154  0.00  0.00    +0.103 C 
ATOM      8  C   UNL     1      33.976 -13.380 -23.793  0.00  0.00    +0.166 C 
ATOM      9  C   UNL     1      33.807 -10.885 -23.803  0.00  0.00    +0.310 C 
ATOM     10  H   UNL     1      34.508 -12.121 -22.317  0.00  0.00    +0.158 HD
ATOM     11  H   UNL     1      34.493 -10.131 -22.037  0.00  0.00    +0.156 HD
ENDROOT
BRANCH   5  12
ATOM     12  C   UNL     1      33.945  -8.458 -23.083  0.00  0.00    +0.052 C 
ATOM     13  C   UNL     1      32.877  -6.401 -22.464  0.00  0.00    +0.073 C 
ATOM     14  C   UNL     1      33.042  -7.775 -22.285  0.00  0.00    +0.019 C 
ATOM     15  C   UNL     1      34.688  -7.807 -24.053  0.00  0.00    +0.015 C 
ATOM     16  C   UNL     1      33.618  -5.730 -23.437  0.00  0.00    +0.004 C 
ATOM     17  C   UNL     1      34.523  -6.433 -24.232  0.00  0.00    +0.001 C 
BRANCH  13  21
ATOM     18  F   UNL     1      32.125  -5.800 -20.274  0.00  0.00    -0.166 F 
ATOM     19  F   UNL     1      31.929  -4.300 -21.827  0.00  0.00    -0.166 F 
ATOM     20  F   UNL     1      30.617  -6.034 -21.822  0.00  0.00    -0.166 F 
ATOM     21  C   UNL     1      31.909  -5.648 -21.614  0.00  0.00    +0.419 C 
ENDBRANCH  13  21
ENDBRANCH   5  12
BRANCH   6  22
ATOM     22  C   UNL     1      34.171 -17.230 -23.949  0.00  0.00    +0.056 C 
BRANCH  22  23
ATOM     23  C   UNL     1      35.160 -17.606 -22.846  0.00  0.00    +0.093 C 
BRANCH  23  24
ATOM     24  N   UNL     1      34.612 -18.610 -21.983  0.00  0.00    -0.320 N 
ATOM     25  N   UNL     1      33.570 -20.784 -20.066  0.00  0.00    -0.220 N 
ATOM     26  N   UNL     1      33.480 -21.738 -19.120  0.00  0.00    -0.178 NA
ATOM     27  N   UNL     1      36.702 -19.054 -20.910  0.00  0.00    -0.232 NA
ATOM     28  N   UNL     1      36.935 -20.716 -19.142  0.00  0.00    -0.245 NA
ATOM     29  C   UNL     1      34.826 -20.274 -20.217  0.00  0.00    +0.185 C 
ATOM     30  C   UNL     1      35.380 -19.310 -21.038  0.00  0.00    +0.128 C 
ATOM     31  C   UNL     1      35.611 -20.949 -19.295  0.00  0.00    +0.103 C 
ATOM     32  C   UNL     1      34.729 -21.835 -18.652  0.00  0.00    +0.134 C 
ATOM     33  C   UNL     1      32.380 -20.415 -20.796  0.00  0.00    +0.135 C 
ATOM     34  C   UNL     1      37.388 -19.762 -19.983  0.00  0.00    +0.251 C 
ATOM     35  H   UNL     1      33.653 -18.818 -22.055  0.00  0.00    +0.148 HD
ENDBRANCH  23  24
ENDBRANCH  22  23
ENDBRANCH   6  22
TORSDOF 5
ENDMDL
MODEL 9
REMARK VINA RESULT:     -10.8      5.658      9.233
REMARK  Name = 15602701
REMARK  5 active torsions:
REMARK  status: ('A' for Active; 'I' for Inactive)
REMARK    1  A    between atoms: N_5  and  C_12
REMARK    2  A    between atoms: C_6  and  C_22
REMARK    3  A    between atoms: C_13  and  C_21
REMARK    4  A    between atoms: C_22  and  C_23
REMARK    5  A    between atoms: C_23  and  N_24
REMARK                            x       y       z     vdW  Elec       q    Type
REMARK                         _______ _______ _______ _____ _____    ______ ____
ROOT
ATOM      1  S   UNL     1      33.854 -13.473 -24.018  0.00  0.00    -0.056 S 
ATOM      2  O   UNL     1      34.816 -15.966 -20.221  0.00  0.00    -0.252 OA
ATOM      3  N   UNL     1      33.980 -13.416 -21.437  0.00  0.00    -0.223 NA
ATOM      4  N   UNL     1      34.546 -15.500 -22.507  0.00  0.00    -0.248 N 
ATOM      5  N   UNL     1      35.218 -17.609 -21.832  0.00  0.00    -0.268 N 
ATOM      6  C   UNL     1      33.466 -12.033 -23.209  0.00  0.00    +0.031 C 
ATOM      7  C   UNL     1      33.582 -12.165 -21.864  0.00  0.00    +0.103 C 
ATOM      8  C   UNL     1      34.153 -14.188 -22.486  0.00  0.00    +0.166 C 
ATOM      9  C   UNL     1      34.857 -16.324 -21.392  0.00  0.00    +0.310 C 
ATOM     10  H   UNL     1      34.622 -15.920 -23.395  0.00  0.00    +0.158 HD
ATOM     11  H   UNL     1      35.206 -17.751 -22.807  0.00  0.00    +0.156 HD
ENDROOT
BRANCH   5  12
ATOM     12  C   UNL     1      35.598 -18.724 -21.048  0.00  0.00    +0.052 C 
ATOM     13  C   UNL     1      35.001 -20.715 -19.850  0.00  0.00    +0.073 C 
ATOM     14  C   UNL     1      34.626 -19.616 -20.623  0.00  0.00    +0.019 C 
ATOM     15  C   UNL     1      36.932 -18.901 -20.723  0.00  0.00    +0.015 C 
ATOM     16  C   UNL     1      36.341 -20.909 -19.515  0.00  0.00    +0.004 C 
ATOM     17  C   UNL     1      37.307 -20.001 -19.951  0.00  0.00    +0.001 C 
BRANCH  13  21
ATOM     18  F   UNL     1      33.668 -21.571 -18.057  0.00  0.00    -0.166 F 
ATOM     19  F   UNL     1      32.773 -21.566 -20.033  0.00  0.00    -0.166 F 
ATOM     20  F   UNL     1      34.352 -22.985 -19.561  0.00  0.00    -0.166 F 
ATOM     21  C   UNL     1      33.969 -21.686 -19.385  0.00  0.00    +0.419 C 
ENDBRANCH  13  21
ENDBRANCH   5  12
BRANCH   6  22
ATOM     22  C   UNL     1      33.057 -10.816 -24.006  0.00  0.00    +0.056 C 
BRANCH  22  23
ATOM     23  C   UNL     1      33.919  -9.593 -23.696  0.00  0.00    +0.093 C 
BRANCH  23  24
ATOM     24  N   UNL     1      33.115  -8.412 -23.578  0.00  0.00    -0.320 N 
ATOM     25  N   UNL     1      31.396  -5.888 -23.177  0.00  0.00    -0.220 N 
ATOM     26  N   UNL     1      30.696  -4.873 -22.634  0.00  0.00    -0.178 NA
ATOM     27  N   UNL     1      33.114  -8.458 -21.188  0.00  0.00    -0.232 NA
ATOM     28  N   UNL     1      31.955  -6.782 -19.850  0.00  0.00    -0.245 NA
ATOM     29  C   UNL     1      31.952  -6.728 -22.257  0.00  0.00    +0.185 C 
ATOM     30  C   UNL     1      32.729  -7.868 -22.342  0.00  0.00    +0.128 C 
ATOM     31  C   UNL     1      31.588  -6.216 -21.022  0.00  0.00    +0.103 C 
ATOM     32  C   UNL     1      30.817  -5.078 -21.318  0.00  0.00    +0.134 C 
ATOM     33  C   UNL     1      31.479  -5.983 -24.616  0.00  0.00    +0.135 C 
ATOM     34  C   UNL     1      32.709  -7.887 -20.029  0.00  0.00    +0.251 C 
ATOM     35  H   UNL     1      32.820  -7.962 -24.402  0.00  0.00    +0.148 HD
ENDBRANCH  23  24
ENDBRANCH  22  23
ENDBRANCH   6  22
TORSDOF 5
ENDMDL
