MODEL 1
REMARK VINA RESULT:     -11.7      0.000      0.000
REMARK  Name = 24743471
REMARK  3 active torsions:
REMARK  status: ('A' for Active; 'I' for Inactive)
REMARK    1  A    between atoms: C_1  and  N_7
REMARK    2  A    between atoms: C_6  and  C_17
REMARK    3  A    between atoms: C_22  and  N_24
REMARK                            x       y       z     vdW  Elec       q    Type
REMARK                         _______ _______ _______ _____ _____    ______ ____
ROOT
ATOM      1  C   UNL     1      36.127 -23.490 -15.315  0.00  0.00    +0.048 C 
ATOM      2  C   UNL     1      34.876 -23.500 -15.932  0.00  0.00    +0.015 C 
ATOM      3  C   UNL     1      37.161 -22.719 -15.848  0.00  0.00    +0.015 C 
ATOM      4  C   UNL     1      34.659 -22.741 -17.082  0.00  0.00    +0.001 C 
ATOM      5  C   UNL     1      36.943 -21.959 -16.997  0.00  0.00    +0.001 C 
ATOM      6  C   UNL     1      35.692 -21.971 -17.614  0.00  0.00    +0.000 C 
ENDROOT
BRANCH   1   7
ATOM      7  N   UNL     1      36.343 -24.240 -14.176  0.00  0.00    -0.311 N 
ATOM      8  N   UNL     1      38.962 -26.472 -13.586  0.00  0.00    +0.387 N 
ATOM      9  C   UNL     1      36.895 -26.006 -12.682  0.00  0.00    -0.003 C 
ATOM     10  C   UNL     1      36.827 -25.624 -14.170  0.00  0.00    +0.050 C 
ATOM     11  C   UNL     1      36.041 -24.977 -11.962  0.00  0.00    +0.021 C 
ATOM     12  C   UNL     1      38.379 -25.966 -12.344  0.00  0.00    -0.076 C 
ATOM     13  C   UNL     1      38.276 -25.744 -14.658  0.00  0.00    -0.057 C 
ATOM     14  C   UNL     1      36.157 -23.722 -12.822  0.00  0.00    +0.091 C 
ATOM     15  C   UNL     1      40.406 -26.301 -13.633  0.00  0.00    -0.101 C 
ATOM     16  H   UNL     1      38.830 -27.481 -13.676  0.00  0.00    -0.080 HD
ENDBRANCH   1   7
BRANCH   6  17
ATOM     17  C   UNL     1      35.467 -21.183 -18.807  0.00  0.00    +0.000 C 
ATOM     18  C   UNL     1      36.541 -20.554 -19.439  0.00  0.00    +0.001 C 
ATOM     19  C   UNL     1      34.179 -21.052 -19.324  0.00  0.00    +0.001 C 
ATOM     20  C   UNL     1      36.325 -19.795 -20.589  0.00  0.00    +0.017 C 
ATOM     21  C   UNL     1      33.963 -20.292 -20.474  0.00  0.00    +0.017 C 
ATOM     22  C   UNL     1      35.037 -19.663 -21.106  0.00  0.00    +0.077 C 
BRANCH  22  24
ATOM     23  O   UNL     1      35.635 -16.788 -21.581  0.00  0.00    -0.268 OA
ATOM     24  N   UNL     1      34.813 -18.877 -22.296  0.00  0.00    -0.155 N 
ATOM     25  N   UNL     1      34.285 -19.604 -23.337  0.00  0.00    -0.170 NA
ATOM     26  C   UNL     1      35.104 -17.513 -22.421  0.00  0.00    +0.272 C 
ATOM     27  C   UNL     1      34.752 -16.873 -23.714  0.00  0.00    +0.062 C 
ATOM     28  C   UNL     1      34.022 -18.992 -24.440  0.00  0.00    +0.118 C 
ATOM     29  C   UNL     1      34.225 -17.574 -24.711  0.00  0.00    +0.027 C 
ENDBRANCH  22  24
ENDBRANCH   6  17
TORSDOF 3
ENDMDL
MODEL 2
REMARK VINA RESULT:     -11.1      7.777     15.164
REMARK  Name = 24743471
REMARK  3 active torsions:
REMARK  status: ('A' for Active; 'I' for Inactive)
REMARK    1  A    between atoms: C_1  and  N_7
REMARK    2  A    between atoms: C_6  and  C_17
REMARK    3  A    between atoms: C_22  and  N_24
REMARK                            x       y       z     vdW  Elec       q    Type
REMARK                         _______ _______ _______ _____ _____    ______ ____
ROOT
ATOM      1  C   UNL     1      33.351  -8.605 -23.726  0.00  0.00    +0.048 C 
ATOM      2  C   UNL     1      32.499  -9.391 -22.951  0.00  0.00    +0.015 C 
ATOM      3  C   UNL     1      34.390  -9.200 -24.444  0.00  0.00    +0.015 C 
ATOM      4  C   UNL     1      32.686 -10.772 -22.892  0.00  0.00    +0.001 C 
ATOM      5  C   UNL     1      34.575 -10.582 -24.385  0.00  0.00    +0.001 C 
ATOM      6  C   UNL     1      33.722 -11.367 -23.608  0.00  0.00    +0.000 C 
ENDROOT
BRANCH   1   7
ATOM      7  N   UNL     1      33.168  -7.237 -23.787  0.00  0.00    -0.311 N 
ATOM      8  N   UNL     1      30.805  -5.347 -22.045  0.00  0.00    +0.387 N 
ATOM      9  C   UNL     1      32.190  -5.071 -23.865  0.00  0.00    -0.003 C 
ATOM     10  C   UNL     1      31.862  -6.571 -23.778  0.00  0.00    +0.050 C 
ATOM     11  C   UNL     1      33.627  -5.000 -24.352  0.00  0.00    +0.021 C 
ATOM     12  C   UNL     1      31.958  -4.546 -22.455  0.00  0.00    -0.076 C 
ATOM     13  C   UNL     1      31.132  -6.721 -22.438  0.00  0.00    -0.057 C 
ATOM     14  C   UNL     1      34.269  -6.277 -23.819  0.00  0.00    +0.091 C 
ATOM     15  C   UNL     1      30.522  -5.227 -20.623  0.00  0.00    -0.101 C 
ATOM     16  H   UNL     1      29.947  -5.024 -22.495  0.00  0.00    -0.080 HD
ENDBRANCH   1   7
BRANCH   6  17
ATOM     17  C   UNL     1      33.916 -12.800 -23.548  0.00  0.00    +0.000 C 
ATOM     18  C   UNL     1      34.368 -13.392 -22.368  0.00  0.00    +0.001 C 
ATOM     19  C   UNL     1      33.651 -13.588 -24.667  0.00  0.00    +0.001 C 
ATOM     20  C   UNL     1      34.555 -14.774 -22.309  0.00  0.00    +0.017 C 
ATOM     21  C   UNL     1      33.838 -14.969 -24.608  0.00  0.00    +0.017 C 
ATOM     22  C   UNL     1      34.290 -15.561 -23.429  0.00  0.00    +0.077 C 
BRANCH  22  24
ATOM     23  O   UNL     1      33.147 -17.675 -25.184  0.00  0.00    -0.268 OA
ATOM     24  N   UNL     1      34.483 -16.991 -23.367  0.00  0.00    -0.155 N 
ATOM     25  N   UNL     1      35.347 -17.381 -22.371  0.00  0.00    -0.170 NA
ATOM     26  C   UNL     1      33.880 -17.918 -24.225  0.00  0.00    +0.272 C 
ATOM     27  C   UNL     1      34.166 -19.352 -23.965  0.00  0.00    +0.062 C 
ATOM     28  C   UNL     1      35.571 -18.640 -22.211  0.00  0.00    +0.118 C 
ATOM     29  C   UNL     1      34.988 -19.726 -22.991  0.00  0.00    +0.027 C 
ENDBRANCH  22  24
ENDBRANCH   6  17
TORSDOF 3
ENDMDL
MODEL 3
REMARK VINA RESULT:     -11.0      7.727     15.190
REMARK  Name = 24743471
REMARK  3 active torsions:
REMARK  status: ('A' for Active; 'I' for Inactive)
REMARK    1  A    between atoms: C_1  and  N_7
REMARK    2  A    between atoms: C_6  and  C_17
REMARK    3  A    between atoms: C_22  and  N_24
REMARK                            x       y       z     vdW  Elec       q    Type
REMARK                         _______ _______ _______ _____ _____    ______ ____
ROOT
ATOM      1  C   UNL     1      32.858  -8.754 -23.256  0.00  0.00    +0.048 C 
ATOM      2  C   UNL     1      33.907  -9.240 -24.036  0.00  0.00    +0.015 C 
ATOM      3  C   UNL     1      32.092  -9.635 -22.492  0.00  0.00    +0.015 C 
ATOM      4  C   UNL     1      34.189 -10.606 -24.054  0.00  0.00    +0.001 C 
ATOM      5  C   UNL     1      32.375 -11.001 -22.509  0.00  0.00    +0.001 C 
ATOM      6  C   UNL     1      33.423 -11.485 -23.291  0.00  0.00    +0.000 C 
ENDROOT
BRANCH   1   7
ATOM      7  N   UNL     1      32.578  -7.402 -23.237  0.00  0.00    -0.311 N 
ATOM      8  N   UNL     1      34.412  -4.846 -24.752  0.00  0.00    +0.387 N 
ATOM      9  C   UNL     1      32.781  -5.034 -23.136  0.00  0.00    -0.003 C 
ATOM     10  C   UNL     1      33.586  -6.345 -23.111  0.00  0.00    +0.050 C 
ATOM     11  C   UNL     1      31.347  -5.437 -22.839  0.00  0.00    +0.021 C 
ATOM     12  C   UNL     1      33.018  -4.466 -24.529  0.00  0.00    -0.076 C 
ATOM     13  C   UNL     1      34.499  -6.251 -24.340  0.00  0.00    -0.057 C 
ATOM     14  C   UNL     1      31.232  -6.855 -23.388  0.00  0.00    +0.091 C 
ATOM     15  C   UNL     1      34.830  -4.644 -26.131  0.00  0.00    -0.101 C 
ATOM     16  H   UNL     1      35.050  -4.259 -24.213  0.00  0.00    -0.080 HD
ENDBRANCH   1   7
BRANCH   6  17
ATOM     17  C   UNL     1      33.716 -12.903 -23.308  0.00  0.00    +0.000 C 
ATOM     18  C   UNL     1      33.455 -13.653 -24.455  0.00  0.00    +0.001 C 
ATOM     19  C   UNL     1      34.257 -13.518 -22.180  0.00  0.00    +0.001 C 
ATOM     20  C   UNL     1      33.736 -15.020 -24.473  0.00  0.00    +0.017 C 
ATOM     21  C   UNL     1      34.538 -14.884 -22.197  0.00  0.00    +0.017 C 
ATOM     22  C   UNL     1      34.277 -15.635 -23.344  0.00  0.00    +0.077 C 
BRANCH  22  24
ATOM     23  O   UNL     1      33.167 -17.745 -25.124  0.00  0.00    -0.268 OA
ATOM     24  N   UNL     1      34.569 -17.049 -23.362  0.00  0.00    -0.155 N 
ATOM     25  N   UNL     1      35.519 -17.420 -22.440  0.00  0.00    -0.170 NA
ATOM     26  C   UNL     1      33.975 -17.978 -24.224  0.00  0.00    +0.272 C 
ATOM     27  C   UNL     1      34.372 -19.398 -24.051  0.00  0.00    +0.062 C 
ATOM     28  C   UNL     1      35.836 -18.666 -22.355  0.00  0.00    +0.118 C 
ATOM     29  C   UNL     1      35.277 -19.755 -23.147  0.00  0.00    +0.027 C 
ENDBRANCH  22  24
ENDBRANCH   6  17
TORSDOF 3
ENDMDL
MODEL 4
REMARK VINA RESULT:     -10.3      1.143      2.092
REMARK  Name = 24743471
REMARK  3 active torsions:
REMARK  status: ('A' for Active; 'I' for Inactive)
REMARK    1  A    between atoms: C_1  and  N_7
REMARK    2  A    between atoms: C_6  and  C_17
REMARK    3  A    between atoms: C_22  and  N_24
REMARK                            x       y       z     vdW  Elec       q    Type
REMARK                         _______ _______ _______ _____ _____    ______ ____
ROOT
ATOM      1  C   UNL     1      36.690 -23.789 -15.240  0.00  0.00    +0.048 C 
ATOM      2  C   UNL     1      35.403 -23.748 -15.775  0.00  0.00    +0.015 C 
ATOM      3  C   UNL     1      37.705 -23.015 -15.804  0.00  0.00    +0.015 C 
ATOM      4  C   UNL     1      35.130 -22.933 -16.874  0.00  0.00    +0.001 C 
ATOM      5  C   UNL     1      37.431 -22.199 -16.902  0.00  0.00    +0.001 C 
ATOM      6  C   UNL     1      36.144 -22.159 -17.436  0.00  0.00    +0.000 C 
ENDROOT
BRANCH   1   7
ATOM      7  N   UNL     1      36.962 -24.595 -14.152  0.00  0.00    -0.311 N 
ATOM      8  N   UNL     1      37.438 -23.585 -10.844  0.00  0.00    +0.387 N 
ATOM      9  C   UNL     1      37.848 -25.458 -12.120  0.00  0.00    -0.003 C 
ATOM     10  C   UNL     1      37.893 -24.251 -13.073  0.00  0.00    +0.050 C 
ATOM     11  C   UNL     1      37.233 -26.587 -12.929  0.00  0.00    +0.021 C 
ATOM     12  C   UNL     1      37.015 -24.981 -10.938  0.00  0.00    -0.076 C 
ATOM     13  C   UNL     1      37.399 -23.077 -12.219  0.00  0.00    -0.057 C 
ATOM     14  C   UNL     1      36.311 -25.883 -13.920  0.00  0.00    +0.091 C 
ATOM     15  C   UNL     1      36.601 -22.809  -9.941  0.00  0.00    -0.101 C 
ATOM     16  H   UNL     1      38.374 -23.504 -10.443  0.00  0.00    -0.080 HD
ENDBRANCH   1   7
BRANCH   6  17
ATOM     17  C   UNL     1      35.861 -21.313 -18.576  0.00  0.00    +0.000 C 
ATOM     18  C   UNL     1      34.570 -21.263 -19.103  0.00  0.00    +0.001 C 
ATOM     19  C   UNL     1      36.878 -20.549 -19.147  0.00  0.00    +0.001 C 
ATOM     20  C   UNL     1      34.296 -20.447 -20.201  0.00  0.00    +0.017 C 
ATOM     21  C   UNL     1      36.604 -19.733 -20.246  0.00  0.00    +0.017 C 
ATOM     22  C   UNL     1      35.313 -19.683 -20.772  0.00  0.00    +0.077 C 
BRANCH  22  24
ATOM     23  O   UNL     1      35.624 -16.735 -21.030  0.00  0.00    -0.268 OA
ATOM     24  N   UNL     1      35.030 -18.839 -21.910  0.00  0.00    -0.155 N 
ATOM     25  N   UNL     1      34.595 -19.538 -23.011  0.00  0.00    -0.170 NA
ATOM     26  C   UNL     1      35.183 -17.448 -21.932  0.00  0.00    +0.272 C 
ATOM     27  C   UNL     1      34.789 -16.754 -23.184  0.00  0.00    +0.062 C 
ATOM     28  C   UNL     1      34.289 -18.878 -24.074  0.00  0.00    +0.118 C 
ATOM     29  C   UNL     1      34.352 -17.431 -24.240  0.00  0.00    +0.027 C 
ENDBRANCH  22  24
ENDBRANCH   6  17
TORSDOF 3
ENDMDL
MODEL 5
REMARK VINA RESULT:      -9.8      1.340      2.410
REMARK  Name = 24743471
REMARK  3 active torsions:
REMARK  status: ('A' for Active; 'I' for Inactive)
REMARK    1  A    between atoms: C_1  and  N_7
REMARK    2  A    between atoms: C_6  and  C_17
REMARK    3  A    between atoms: C_22  and  N_24
REMARK                            x       y       z     vdW  Elec       q    Type
REMARK                         _______ _______ _______ _____ _____    ______ ____
ROOT
ATOM      1  C   UNL     1      37.161 -23.294 -15.581  0.00  0.00    +0.048 C 
ATOM      2  C   UNL     1      35.861 -23.312 -16.088  0.00  0.00    +0.015 C 
ATOM      3  C   UNL     1      38.124 -22.468 -16.162  0.00  0.00    +0.015 C 
ATOM      4  C   UNL     1      35.525 -22.506 -17.175  0.00  0.00    +0.001 C 
ATOM      5  C   UNL     1      37.786 -21.661 -17.249  0.00  0.00    +0.001 C 
ATOM      6  C   UNL     1      36.487 -21.681 -17.755  0.00  0.00    +0.000 C 
ENDROOT
BRANCH   1   7
ATOM      7  N   UNL     1      37.496 -24.091 -14.505  0.00  0.00    -0.311 N 
ATOM      8  N   UNL     1      35.997 -24.116 -11.351  0.00  0.00    +0.387 N 
ATOM      9  C   UNL     1      37.949 -24.879 -12.307  0.00  0.00    -0.003 C 
ATOM     10  C   UNL     1      37.514 -23.641 -13.110  0.00  0.00    +0.050 C 
ATOM     11  C   UNL     1      38.564 -25.823 -13.325  0.00  0.00    +0.021 C 
ATOM     12  C   UNL     1      36.668 -25.379 -11.652  0.00  0.00    -0.076 C 
ATOM     13  C   UNL     1      36.114 -23.317 -12.575  0.00  0.00    -0.057 C 
ATOM     14  C   UNL     1      37.830 -25.509 -14.624  0.00  0.00    +0.091 C 
ATOM     15  C   UNL     1      34.614 -24.304 -10.940  0.00  0.00    -0.101 C 
ATOM     16  H   UNL     1      36.428 -23.643 -10.555  0.00  0.00    -0.080 HD
ENDBRANCH   1   7
BRANCH   6  17
ATOM     17  C   UNL     1      36.138 -20.844 -18.883  0.00  0.00    +0.000 C 
ATOM     18  C   UNL     1      37.100 -20.012 -19.457  0.00  0.00    +0.001 C 
ATOM     19  C   UNL     1      34.841 -20.867 -19.395  0.00  0.00    +0.001 C 
ATOM     20  C   UNL     1      36.764 -19.205 -20.545  0.00  0.00    +0.017 C 
ATOM     21  C   UNL     1      34.505 -20.060 -20.482  0.00  0.00    +0.017 C 
ATOM     22  C   UNL     1      35.467 -19.229 -21.056  0.00  0.00    +0.077 C 
BRANCH  22  24
ATOM     23  O   UNL     1      34.467 -20.036 -23.740  0.00  0.00    -0.268 OA
ATOM     24  N   UNL     1      35.120 -18.393 -22.182  0.00  0.00    -0.155 N 
ATOM     25  N   UNL     1      35.250 -17.049 -21.922  0.00  0.00    -0.170 NA
ATOM     26  C   UNL     1      34.679 -18.865 -23.424  0.00  0.00    +0.272 C 
ATOM     27  C   UNL     1      34.422 -17.846 -24.471  0.00  0.00    +0.062 C 
ATOM     28  C   UNL     1      34.990 -16.214 -22.868  0.00  0.00    +0.118 C 
ATOM     29  C   UNL     1      34.566 -16.549 -24.222  0.00  0.00    +0.027 C 
ENDBRANCH  22  24
ENDBRANCH   6  17
TORSDOF 3
ENDMDL
MODEL 6
REMARK VINA RESULT:      -9.6      6.780     11.650
REMARK  Name = 24743471
REMARK  3 active torsions:
REMARK  status: ('A' for Active; 'I' for Inactive)
REMARK    1  A    between atoms: C_1  and  N_7
REMARK    2  A    between atoms: C_6  and  C_17
REMARK    3  A    between atoms: C_22  and  N_24
REMARK                            x       y       z     vdW  Elec       q    Type
REMARK                         _______ _______ _______ _____ _____    ______ ____
ROOT
ATOM      1  C   UNL     1      34.198 -15.793 -23.505  0.00  0.00    +0.048 C 
ATOM      2  C   UNL     1      34.504 -15.138 -22.312  0.00  0.00    +0.015 C 
ATOM      3  C   UNL     1      33.603 -15.091 -24.553  0.00  0.00    +0.015 C 
ATOM      4  C   UNL     1      34.215 -13.781 -22.167  0.00  0.00    +0.001 C 
ATOM      5  C   UNL     1      33.315 -13.734 -24.408  0.00  0.00    +0.001 C 
ATOM      6  C   UNL     1      33.621 -13.080 -23.215  0.00  0.00    +0.000 C 
ENDROOT
BRANCH   1   7
ATOM      7  N   UNL     1      34.485 -17.136 -23.650  0.00  0.00    -0.311 N 
ATOM      8  N   UNL     1      35.319 -19.401 -21.126  0.00  0.00    +0.387 N 
ATOM      9  C   UNL     1      35.453 -19.297 -23.424  0.00  0.00    -0.003 C 
ATOM     10  C   UNL     1      35.528 -17.850 -22.907  0.00  0.00    +0.050 C 
ATOM     11  C   UNL     1      34.675 -19.220 -24.726  0.00  0.00    +0.021 C 
ATOM     12  C   UNL     1      34.766 -20.068 -22.304  0.00  0.00    -0.076 C 
ATOM     13  C   UNL     1      35.213 -17.966 -21.411  0.00  0.00    -0.057 C 
ATOM     14  C   UNL     1      33.742 -18.028 -24.538  0.00  0.00    +0.091 C 
ATOM     15  C   UNL     1      34.632 -19.777 -19.900  0.00  0.00    -0.101 C 
ATOM     16  H   UNL     1      36.288 -19.678 -20.961  0.00  0.00    -0.080 HD
ENDBRANCH   1   7
BRANCH   6  17
ATOM     17  C   UNL     1      33.320 -11.672 -23.065  0.00  0.00    +0.000 C 
ATOM     18  C   UNL     1      32.290 -11.266 -22.216  0.00  0.00    +0.001 C 
ATOM     19  C   UNL     1      34.060 -10.722 -23.769  0.00  0.00    +0.001 C 
ATOM     20  C   UNL     1      32.000  -9.909 -22.072  0.00  0.00    +0.017 C 
ATOM     21  C   UNL     1      33.770  -9.365 -23.624  0.00  0.00    +0.017 C 
ATOM     22  C   UNL     1      32.739  -8.959 -22.776  0.00  0.00    +0.077 C 
BRANCH  22  24
ATOM     23  O   UNL     1      33.260  -7.178 -20.450  0.00  0.00    -0.268 OA
ATOM     24  N   UNL     1      32.439  -7.555 -22.626  0.00  0.00    -0.155 N 
ATOM     25  N   UNL     1      31.869  -6.998 -23.747  0.00  0.00    -0.170 NA
ATOM     26  C   UNL     1      32.699  -6.799 -21.477  0.00  0.00    +0.272 C 
ATOM     27  C   UNL     1      32.267  -5.378 -21.502  0.00  0.00    +0.062 C 
ATOM     28  C   UNL     1      31.537  -5.753 -23.711  0.00  0.00    +0.118 C 
ATOM     29  C   UNL     1      31.701  -4.848 -22.580  0.00  0.00    +0.027 C 
ENDBRANCH  22  24
ENDBRANCH   6  17
TORSDOF 3
ENDMDL
MODEL 7
REMARK VINA RESULT:      -9.5      6.849     11.690
REMARK  Name = 24743471
REMARK  3 active torsions:
REMARK  status: ('A' for Active; 'I' for Inactive)
REMARK    1  A    between atoms: C_1  and  N_7
REMARK    2  A    between atoms: C_6  and  C_17
REMARK    3  A    between atoms: C_22  and  N_24
REMARK                            x       y       z     vdW  Elec       q    Type
REMARK                         _______ _______ _______ _____ _____    ______ ____
ROOT
ATOM      1  C   UNL     1      34.211 -15.759 -23.418  0.00  0.00    +0.048 C 
ATOM      2  C   UNL     1      34.494 -15.106 -22.219  0.00  0.00    +0.015 C 
ATOM      3  C   UNL     1      33.601 -15.064 -24.464  0.00  0.00    +0.015 C 
ATOM      4  C   UNL     1      34.168 -13.758 -22.064  0.00  0.00    +0.001 C 
ATOM      5  C   UNL     1      33.275 -13.716 -24.308  0.00  0.00    +0.001 C 
ATOM      6  C   UNL     1      33.559 -13.064 -23.108  0.00  0.00    +0.000 C 
ENDROOT
BRANCH   1   7
ATOM      7  N   UNL     1      34.535 -17.092 -23.574  0.00  0.00    -0.311 N 
ATOM      8  N   UNL     1      35.261 -19.395 -21.051  0.00  0.00    +0.387 N 
ATOM      9  C   UNL     1      35.533 -19.237 -23.333  0.00  0.00    -0.003 C 
ATOM     10  C   UNL     1      35.546 -17.801 -22.783  0.00  0.00    +0.050 C 
ATOM     11  C   UNL     1      34.834 -19.147 -24.679  0.00  0.00    +0.021 C 
ATOM     12  C   UNL     1      34.796 -20.046 -22.274  0.00  0.00    -0.076 C 
ATOM     13  C   UNL     1      35.141 -17.956 -21.312  0.00  0.00    -0.057 C 
ATOM     14  C   UNL     1      33.867 -17.978 -24.525  0.00  0.00    +0.091 C 
ATOM     15  C   UNL     1      34.508 -19.811 -19.878  0.00  0.00    -0.101 C 
ATOM     16  H   UNL     1      36.223 -19.655 -20.832  0.00  0.00    -0.080 HD
ENDBRANCH   1   7
BRANCH   6  17
ATOM     17  C   UNL     1      33.219 -11.666 -22.948  0.00  0.00    +0.000 C 
ATOM     18  C   UNL     1      32.200 -11.293 -22.072  0.00  0.00    +0.001 C 
ATOM     19  C   UNL     1      33.910 -10.694 -23.670  0.00  0.00    +0.001 C 
ATOM     20  C   UNL     1      31.873  -9.946 -21.917  0.00  0.00    +0.017 C 
ATOM     21  C   UNL     1      33.583  -9.347 -23.516  0.00  0.00    +0.017 C 
ATOM     22  C   UNL     1      32.564  -8.973 -22.639  0.00  0.00    +0.077 C 
BRANCH  22  24
ATOM     23  O   UNL     1      31.025  -7.205 -24.471  0.00  0.00    -0.268 OA
ATOM     24  N   UNL     1      32.225  -7.578 -22.479  0.00  0.00    -0.155 N 
ATOM     25  N   UNL     1      32.662  -7.046 -21.288  0.00  0.00    -0.170 NA
ATOM     26  C   UNL     1      31.515  -6.815 -23.412  0.00  0.00    +0.272 C 
ATOM     27  C   UNL     1      31.311  -5.381 -23.084  0.00  0.00    +0.062 C 
ATOM     28  C   UNL     1      32.434  -5.800 -21.054  0.00  0.00    +0.118 C 
ATOM     29  C   UNL     1      31.750  -4.866 -21.941  0.00  0.00    +0.027 C 
ENDBRANCH  22  24
ENDBRANCH   6  17
TORSDOF 3
ENDMDL
MODEL 8
REMARK VINA RESULT:      -9.1      2.499     10.418
REMARK  Name = 24743471
REMARK  3 active torsions:
REMARK  status: ('A' for Active; 'I' for Inactive)
REMARK    1  A    between atoms: C_1  and  N_7
REMARK    2  A    between atoms: C_6  and  C_17
REMARK    3  A    between atoms: C_22  and  N_24
REMARK                            x       y       z     vdW  Elec       q    Type
REMARK                         _______ _______ _______ _____ _____    ______ ____
ROOT
ATOM      1  C   UNL     1      35.546 -19.110 -20.928  0.00  0.00    +0.048 C 
ATOM      2  C   UNL     1      34.523 -19.935 -20.463  0.00  0.00    +0.015 C 
ATOM      3  C   UNL     1      36.805 -19.154 -20.328  0.00  0.00    +0.015 C 
ATOM      4  C   UNL     1      34.758 -20.804 -19.396  0.00  0.00    +0.001 C 
ATOM      5  C   UNL     1      37.040 -20.023 -19.262  0.00  0.00    +0.001 C 
ATOM      6  C   UNL     1      36.015 -20.847 -18.797  0.00  0.00    +0.000 C 
ENDROOT
BRANCH   1   7
ATOM      7  N   UNL     1      35.316 -18.250 -21.984  0.00  0.00    -0.311 N 
ATOM      8  N   UNL     1      33.415 -18.883 -24.844  0.00  0.00    +0.387 N 
ATOM      9  C   UNL     1      34.996 -17.352 -24.163  0.00  0.00    -0.003 C 
ATOM     10  C   UNL     1      35.276 -18.654 -23.393  0.00  0.00    +0.050 C 
ATOM     11  C   UNL     1      35.323 -16.231 -23.192  0.00  0.00    +0.021 C 
ATOM     12  C   UNL     1      33.531 -17.453 -24.565  0.00  0.00    -0.076 C 
ATOM     13  C   UNL     1      34.074 -19.550 -23.716  0.00  0.00    -0.057 C 
ATOM     14  C   UNL     1      35.034 -16.826 -21.818  0.00  0.00    +0.091 C 
ATOM     15  C   UNL     1      32.033 -19.308 -25.011  0.00  0.00    -0.101 C 
ATOM     16  H   UNL     1      33.857 -19.127 -25.732  0.00  0.00    -0.080 HD
ENDBRANCH   1   7
BRANCH   6  17
ATOM     17  C   UNL     1      36.259 -21.748 -17.691  0.00  0.00    +0.000 C 
ATOM     18  C   UNL     1      35.218 -22.526 -17.183  0.00  0.00    +0.001 C 
ATOM     19  C   UNL     1      37.534 -21.839 -17.133  0.00  0.00    +0.001 C 
ATOM     20  C   UNL     1      35.453 -23.394 -16.117  0.00  0.00    +0.017 C 
ATOM     21  C   UNL     1      37.769 -22.707 -16.067  0.00  0.00    +0.017 C 
ATOM     22  C   UNL     1      36.728 -23.485 -15.559  0.00  0.00    +0.077 C 
BRANCH  22  24
ATOM     23  O   UNL     1      36.124 -26.391 -15.354  0.00  0.00    -0.268 OA
ATOM     24  N   UNL     1      36.970 -24.384 -14.455  0.00  0.00    -0.155 N 
ATOM     25  N   UNL     1      37.600 -23.781 -13.391  0.00  0.00    -0.170 NA
ATOM     26  C   UNL     1      36.627 -25.740 -14.438  0.00  0.00    +0.272 C 
ATOM     27  C   UNL     1      36.915 -26.485 -13.186  0.00  0.00    +0.062 C 
ATOM     28  C   UNL     1      37.841 -24.489 -12.342  0.00  0.00    +0.118 C 
ATOM     29  C   UNL     1      37.506 -25.895 -12.153  0.00  0.00    +0.027 C 
ENDBRANCH  22  24
ENDBRANCH   6  17
TORSDOF 3
ENDMDL
MODEL 9
REMARK VINA RESULT:      -8.8      6.639     13.762
REMARK  Name = 24743471
REMARK  3 active torsions:
REMARK  status: ('A' for Active; 'I' for Inactive)
REMARK    1  A    between atoms: C_1  and  N_7
REMARK    2  A    between atoms: C_6  and  C_17
REMARK    3  A    between atoms: C_22  and  N_24
REMARK                            x       y       z     vdW  Elec       q    Type
REMARK                         _______ _______ _______ _____ _____    ______ ____
ROOT
ATOM      1  C   UNL     1      32.629 -10.578 -22.718  0.00  0.00    +0.048 C 
ATOM      2  C   UNL     1      32.060 -11.296 -21.667  0.00  0.00    +0.015 C 
ATOM      3  C   UNL     1      33.683 -11.129 -23.448  0.00  0.00    +0.015 C 
ATOM      4  C   UNL     1      32.544 -12.564 -21.344  0.00  0.00    +0.001 C 
ATOM      5  C   UNL     1      34.167 -12.397 -23.126  0.00  0.00    +0.001 C 
ATOM      6  C   UNL     1      33.597 -13.114 -22.074  0.00  0.00    +0.000 C 
ENDROOT
BRANCH   1   7
ATOM      7  N   UNL     1      32.150  -9.323 -23.039  0.00  0.00    -0.311 N 
ATOM      8  N   UNL     1      31.692  -6.623 -20.874  0.00  0.00    +0.387 N 
ATOM      9  C   UNL     1      31.007  -7.238 -22.985  0.00  0.00    -0.003 C 
ATOM     10  C   UNL     1      31.243  -8.538 -22.197  0.00  0.00    +0.050 C 
ATOM     11  C   UNL     1      31.441  -7.546 -24.407  0.00  0.00    +0.021 C 
ATOM     12  C   UNL     1      31.848  -6.195 -22.263  0.00  0.00    -0.076 C 
ATOM     13  C   UNL     1      31.903  -8.074 -20.892  0.00  0.00    -0.057 C 
ATOM     14  C   UNL     1      32.532  -8.600 -24.250  0.00  0.00    +0.091 C 
ATOM     15  C   UNL     1      32.610  -5.939 -19.975  0.00  0.00    -0.101 C 
ATOM     16  H   UNL     1      30.768  -6.385 -20.511  0.00  0.00    -0.080 HD
ENDBRANCH   1   7
BRANCH   6  17
ATOM     17  C   UNL     1      34.099 -14.429 -21.740  0.00  0.00    +0.000 C 
ATOM     18  C   UNL     1      34.168 -14.831 -20.406  0.00  0.00    +0.001 C 
ATOM     19  C   UNL     1      34.516 -15.294 -22.752  0.00  0.00    +0.001 C 
ATOM     20  C   UNL     1      34.652 -16.099 -20.083  0.00  0.00    +0.017 C 
ATOM     21  C   UNL     1      35.001 -16.562 -22.429  0.00  0.00    +0.017 C 
ATOM     22  C   UNL     1      35.069 -16.964 -21.095  0.00  0.00    +0.077 C 
BRANCH  22  24
ATOM     23  O   UNL     1      33.762 -19.611 -21.468  0.00  0.00    -0.268 OA
ATOM     24  N   UNL     1      35.571 -18.276 -20.761  0.00  0.00    -0.155 N 
ATOM     25  N   UNL     1      36.842 -18.255 -20.235  0.00  0.00    -0.170 NA
ATOM     26  C   UNL     1      34.870 -19.473 -20.950  0.00  0.00    +0.272 C 
ATOM     27  C   UNL     1      35.540 -20.717 -20.493  0.00  0.00    +0.062 C 
ATOM     28  C   UNL     1      37.375 -19.372 -19.879  0.00  0.00    +0.118 C 
ATOM     29  C   UNL     1      36.760 -20.691 -19.970  0.00  0.00    +0.027 C 
ENDBRANCH  22  24
ENDBRANCH   6  17
TORSDOF 3
ENDMDL
