MODEL 1
REMARK VINA RESULT:     -11.4      0.000      0.000
REMARK  Name = 44129624
REMARK  6 active torsions:
REMARK  status: ('A' for Active; 'I' for Inactive)
REMARK    1  A    between atoms: C_1  and  O_20
REMARK    2  A    between atoms: C_4  and  C_8
REMARK    3  A    between atoms: C_8  and  C_9
REMARK    4  A    between atoms: C_10  and  C_16
REMARK    5  A    between atoms: O_20  and  C_21
REMARK    6  A    between atoms: C_21  and  C_23
REMARK                            x       y       z     vdW  Elec       q    Type
REMARK                         _______ _______ _______ _____ _____    ______ ____
ROOT
ATOM      1  C   UNL     1      33.556 -21.924 -18.885  0.00  0.00    +0.138 C 
ATOM      2  C   UNL     1      33.019 -20.955 -19.732  0.00  0.00    +0.037 C 
ATOM      3  C   UNL     1      34.936 -21.997 -18.694  0.00  0.00    +0.037 C 
ATOM      4  C   UNL     1      35.241 -20.129 -20.196  0.00  0.00    +0.039 C 
ATOM      5  C   UNL     1      33.861 -20.058 -20.387  0.00  0.00    +0.006 C 
ATOM      6  C   UNL     1      35.778 -21.098 -19.349  0.00  0.00    +0.006 C 
ENDROOT
BRANCH   4   8
ATOM      7  O   UNL     1      37.344 -19.386 -20.900  0.00  0.00    -0.287 OA
ATOM      8  C   UNL     1      36.119 -19.192 -20.877  0.00  0.00    +0.196 C 
BRANCH   8   9
ATOM      9  C   UNL     1      35.605 -17.972 -21.572  0.00  0.00    +0.039 C 
ATOM     10  C   UNL     1      34.647 -15.696 -22.869  0.00  0.00    +0.001 C 
ATOM     11  C   UNL     1      35.285 -16.833 -20.834  0.00  0.00    +0.003 C 
ATOM     12  C   UNL     1      35.445 -17.974 -22.958  0.00  0.00    +0.003 C 
ATOM     13  C   UNL     1      34.806 -15.695 -21.483  0.00  0.00    +0.000 C 
ATOM     14  C   UNL     1      34.966 -16.836 -23.606  0.00  0.00    +0.000 C 
BRANCH  10  16
ATOM     15  S   UNL     1      33.537 -12.056 -23.904  0.00  0.00    -0.086 S 
ATOM     16  C   UNL     1      34.154 -14.523 -23.535  0.00  0.00    +0.007 C 
ATOM     17  C   UNL     1      33.606 -14.446 -24.847  0.00  0.00    +0.007 C 
ATOM     18  C   UNL     1      34.176 -13.296 -22.909  0.00  0.00    +0.035 C 
ATOM     19  C   UNL     1      33.229 -13.161 -25.175  0.00  0.00    +0.035 C 
ENDBRANCH  10  16
ENDBRANCH   8   9
ENDBRANCH   4   8
BRANCH   1  20
ATOM     20  O   UNL     1      32.727 -22.808 -18.240  0.00  0.00    -0.478 OA
BRANCH  20  21
ATOM     21  C   UNL     1      33.073 -23.158 -16.910  0.00  0.00    +0.184 C 
BRANCH  21  23
ATOM     22  N   UNL     1      30.638 -22.767 -16.650  0.00  0.00    +0.388 N 
ATOM     23  C   UNL     1      31.804 -23.509 -16.150  0.00  0.00    -0.017 C 
ATOM     24  C   UNL     1      31.862 -23.114 -14.682  0.00  0.00    -0.020 C 
ATOM     25  C   UNL     1      30.401 -22.973 -14.281  0.00  0.00    -0.025 C 
ATOM     26  C   UNL     1      29.631 -22.902 -15.592  0.00  0.00    -0.082 C 
ATOM     27  H   UNL     1      30.300 -23.175 -17.522  0.00  0.00    -0.084 HD
ATOM     28  H   UNL     1      30.858 -21.792 -16.852  0.00  0.00    -0.084 HD
ENDBRANCH  21  23
ENDBRANCH  20  21
ENDBRANCH   1  20
TORSDOF 6
ENDMDL
MODEL 2
REMARK VINA RESULT:     -10.6      2.123      3.604
REMARK  Name = 44129624
REMARK  6 active torsions:
REMARK  status: ('A' for Active; 'I' for Inactive)
REMARK    1  A    between atoms: C_1  and  O_20
REMARK    2  A    between atoms: C_4  and  C_8
REMARK    3  A    between atoms: C_8  and  C_9
REMARK    4  A    between atoms: C_10  and  C_16
REMARK    5  A    between atoms: O_20  and  C_21
REMARK    6  A    between atoms: C_21  and  C_23
REMARK                            x       y       z     vdW  Elec       q    Type
REMARK                         _______ _______ _______ _____ _____    ______ ____
ROOT
ATOM      1  C   UNL     1      36.031 -19.841 -20.283  0.00  0.00    +0.138 C 
ATOM      2  C   UNL     1      34.750 -20.022 -20.803  0.00  0.00    +0.037 C 
ATOM      3  C   UNL     1      36.897 -18.918 -20.868  0.00  0.00    +0.037 C 
ATOM      4  C   UNL     1      35.201 -18.358 -22.495  0.00  0.00    +0.039 C 
ATOM      5  C   UNL     1      34.334 -19.282 -21.908  0.00  0.00    +0.006 C 
ATOM      6  C   UNL     1      36.481 -18.176 -21.974  0.00  0.00    +0.006 C 
ENDROOT
BRANCH   4   8
ATOM      7  O   UNL     1      34.685 -18.117 -24.763  0.00  0.00    -0.287 OA
ATOM      8  C   UNL     1      34.766 -17.584 -23.646  0.00  0.00    +0.196 C 
BRANCH   8   9
ATOM      9  C   UNL     1      34.402 -16.138 -23.549  0.00  0.00    +0.039 C 
ATOM     10  C   UNL     1      33.721 -13.439 -23.366  0.00  0.00    +0.001 C 
ATOM     11  C   UNL     1      33.801 -15.496 -24.631  0.00  0.00    +0.003 C 
ATOM     12  C   UNL     1      34.663 -15.430 -22.375  0.00  0.00    +0.003 C 
ATOM     13  C   UNL     1      33.460 -14.146 -24.539  0.00  0.00    +0.000 C 
ATOM     14  C   UNL     1      34.322 -14.081 -22.284  0.00  0.00    +0.000 C 
BRANCH  10  16
ATOM     15  S   UNL     1      32.242  -9.915 -22.392  0.00  0.00    -0.086 S 
ATOM     16  C   UNL     1      33.369 -12.050 -23.273  0.00  0.00    +0.007 C 
ATOM     17  C   UNL     1      33.820 -10.991 -24.111  0.00  0.00    +0.007 C 
ATOM     18  C   UNL     1      32.505 -11.605 -22.296  0.00  0.00    +0.035 C 
ATOM     19  C   UNL     1      33.284  -9.775 -23.743  0.00  0.00    +0.035 C 
ENDBRANCH  10  16
ENDBRANCH   8   9
ENDBRANCH   4   8
BRANCH   1  20
ATOM     20  O   UNL     1      36.441 -20.570 -19.194  0.00  0.00    -0.478 OA
BRANCH  20  21
ATOM     21  C   UNL     1      35.976 -21.907 -19.106  0.00  0.00    +0.184 C 
BRANCH  21  23
ATOM     22  N   UNL     1      35.466 -22.776 -16.840  0.00  0.00    +0.388 N 
ATOM     23  C   UNL     1      34.958 -21.999 -17.981  0.00  0.00    -0.017 C 
ATOM     24  C   UNL     1      33.698 -22.752 -18.379  0.00  0.00    -0.020 C 
ATOM     25  C   UNL     1      33.133 -23.251 -17.058  0.00  0.00    -0.025 C 
ATOM     26  C   UNL     1      34.270 -23.106 -16.056  0.00  0.00    -0.082 C 
ATOM     27  H   UNL     1      36.116 -22.219 -16.287  0.00  0.00    -0.084 HD
ATOM     28  H   UNL     1      35.976 -23.608 -17.136  0.00  0.00    -0.084 HD
ENDBRANCH  21  23
ENDBRANCH  20  21
ENDBRANCH   1  20
TORSDOF 6
ENDMDL
MODEL 3
REMARK VINA RESULT:     -10.5      5.097     10.482
REMARK  Name = 44129624
REMARK  6 active torsions:
REMARK  status: ('A' for Active; 'I' for Inactive)
REMARK    1  A    between atoms: C_1  and  O_20
REMARK    2  A    between atoms: C_4  and  C_8
REMARK    3  A    between atoms: C_8  and  C_9
REMARK    4  A    between atoms: C_10  and  C_16
REMARK    5  A    between atoms: O_20  and  C_21
REMARK    6  A    between atoms: C_21  and  C_23
REMARK                            x       y       z     vdW  Elec       q    Type
REMARK                         _______ _______ _______ _____ _____    ______ ____
ROOT
ATOM      1  C   UNL     1      33.298 -12.605 -23.182  0.00  0.00    +0.138 C 
ATOM      2  C   UNL     1      33.850 -13.381 -22.164  0.00  0.00    +0.037 C 
ATOM      3  C   UNL     1      33.215 -13.111 -24.479  0.00  0.00    +0.037 C 
ATOM      4  C   UNL     1      34.235 -15.172 -23.738  0.00  0.00    +0.039 C 
ATOM      5  C   UNL     1      34.319 -14.665 -22.441  0.00  0.00    +0.006 C 
ATOM      6  C   UNL     1      33.683 -14.396 -24.756  0.00  0.00    +0.006 C 
ENDROOT
BRANCH   4   8
ATOM      7  O   UNL     1      35.042 -16.824 -25.183  0.00  0.00    -0.287 OA
ATOM      8  C   UNL     1      34.722 -16.512 -24.027  0.00  0.00    +0.196 C 
BRANCH   8   9
ATOM      9  C   UNL     1      34.859 -17.560 -22.970  0.00  0.00    +0.039 C 
ATOM     10  C   UNL     1      35.115 -19.516 -20.998  0.00  0.00    +0.001 C 
ATOM     11  C   UNL     1      35.596 -17.294 -21.817  0.00  0.00    +0.003 C 
ATOM     12  C   UNL     1      34.251 -18.804 -23.138  0.00  0.00    +0.003 C 
ATOM     13  C   UNL     1      35.724 -18.272 -20.831  0.00  0.00    +0.000 C 
ATOM     14  C   UNL     1      34.379 -19.782 -22.152  0.00  0.00    +0.000 C 
BRANCH  10  16
ATOM     15  S   UNL     1      34.561 -22.365 -18.328  0.00  0.00    -0.086 S 
ATOM     16  C   UNL     1      35.247 -20.521 -19.981  0.00  0.00    +0.007 C 
ATOM     17  C   UNL     1      36.442 -20.920 -19.316  0.00  0.00    +0.007 C 
ATOM     18  C   UNL     1      34.149 -21.226 -19.540  0.00  0.00    +0.035 C 
ATOM     19  C   UNL     1      36.212 -21.916 -18.392  0.00  0.00    +0.035 C 
ENDBRANCH  10  16
ENDBRANCH   8   9
ENDBRANCH   4   8
BRANCH   1  20
ATOM     20  O   UNL     1      32.837 -11.341 -22.909  0.00  0.00    -0.478 OA
BRANCH  20  21
ATOM     21  C   UNL     1      33.184 -10.320 -23.830  0.00  0.00    +0.184 C 
BRANCH  21  23
ATOM     22  N   UNL     1      32.945  -8.217 -22.536  0.00  0.00    +0.388 N 
ATOM     23  C   UNL     1      33.892  -9.202 -23.080  0.00  0.00    -0.017 C 
ATOM     24  C   UNL     1      34.790  -8.362 -23.975  0.00  0.00    -0.020 C 
ATOM     25  C   UNL     1      34.895  -7.031 -23.245  0.00  0.00    -0.025 C 
ATOM     26  C   UNL     1      33.770  -7.046 -22.220  0.00  0.00    -0.082 C 
ATOM     27  H   UNL     1      32.495  -8.578 -21.696  0.00  0.00    -0.084 HD
ATOM     28  H   UNL     1      32.197  -7.997 -23.194  0.00  0.00    -0.084 HD
ENDBRANCH  21  23
ENDBRANCH  20  21
ENDBRANCH   1  20
TORSDOF 6
ENDMDL
MODEL 4
REMARK VINA RESULT:     -10.4      5.033      9.827
REMARK  Name = 44129624
REMARK  6 active torsions:
REMARK  status: ('A' for Active; 'I' for Inactive)
REMARK    1  A    between atoms: C_1  and  O_20
REMARK    2  A    between atoms: C_4  and  C_8
REMARK    3  A    between atoms: C_8  and  C_9
REMARK    4  A    between atoms: C_10  and  C_16
REMARK    5  A    between atoms: O_20  and  C_21
REMARK    6  A    between atoms: C_21  and  C_23
REMARK                            x       y       z     vdW  Elec       q    Type
REMARK                         _______ _______ _______ _____ _____    ______ ____
ROOT
ATOM      1  C   UNL     1      33.283 -12.494 -23.078  0.00  0.00    +0.138 C 
ATOM      2  C   UNL     1      33.252 -12.950 -24.396  0.00  0.00    +0.037 C 
ATOM      3  C   UNL     1      33.771 -13.319 -22.065  0.00  0.00    +0.037 C 
ATOM      4  C   UNL     1      34.198 -15.057 -23.688  0.00  0.00    +0.039 C 
ATOM      5  C   UNL     1      33.709 -14.231 -24.701  0.00  0.00    +0.006 C 
ATOM      6  C   UNL     1      34.228 -14.601 -22.371  0.00  0.00    +0.006 C 
ENDROOT
BRANCH   4   8
ATOM      7  O   UNL     1      34.965 -16.689 -25.177  0.00  0.00    -0.287 OA
ATOM      8  C   UNL     1      34.677 -16.392 -24.008  0.00  0.00    +0.196 C 
BRANCH   8   9
ATOM      9  C   UNL     1      34.845 -17.453 -22.969  0.00  0.00    +0.039 C 
ATOM     10  C   UNL     1      35.159 -19.434 -21.030  0.00  0.00    +0.001 C 
ATOM     11  C   UNL     1      34.304 -18.722 -23.175  0.00  0.00    +0.003 C 
ATOM     12  C   UNL     1      35.541 -17.175 -21.793  0.00  0.00    +0.003 C 
ATOM     13  C   UNL     1      34.461 -19.713 -22.206  0.00  0.00    +0.000 C 
ATOM     14  C   UNL     1      35.698 -18.165 -20.824  0.00  0.00    +0.000 C 
BRANCH  10  16
ATOM     15  S   UNL     1      34.687 -22.348 -18.415  0.00  0.00    -0.086 S 
ATOM     16  C   UNL     1      35.320 -20.455 -20.034  0.00  0.00    +0.007 C 
ATOM     17  C   UNL     1      36.527 -20.837 -19.381  0.00  0.00    +0.007 C 
ATOM     18  C   UNL     1      34.242 -21.197 -19.602  0.00  0.00    +0.035 C 
ATOM     19  C   UNL     1      36.326 -21.856 -18.475  0.00  0.00    +0.035 C 
ENDBRANCH  10  16
ENDBRANCH   8   9
ENDBRANCH   4   8
BRANCH   1  20
ATOM     20  O   UNL     1      32.832 -11.233 -22.776  0.00  0.00    -0.478 OA
BRANCH  20  21
ATOM     21  C   UNL     1      31.727 -11.141 -21.893  0.00  0.00    +0.184 C 
BRANCH  21  23
ATOM     22  N   UNL     1      32.643  -8.838 -21.983  0.00  0.00    +0.388 N 
ATOM     23  C   UNL     1      31.618  -9.710 -21.391  0.00  0.00    -0.017 C 
ATOM     24  C   UNL     1      31.877  -9.583 -19.897  0.00  0.00    -0.020 C 
ATOM     25  C   UNL     1      32.318  -8.138 -19.721  0.00  0.00    -0.025 C 
ATOM     26  C   UNL     1      32.662  -7.651 -21.121  0.00  0.00    -0.082 C 
ATOM     27  H   UNL     1      32.392  -8.585 -22.938  0.00  0.00    -0.084 HD
ATOM     28  H   UNL     1      33.554  -9.293 -22.034  0.00  0.00    -0.084 HD
ENDBRANCH  21  23
ENDBRANCH  20  21
ENDBRANCH   1  20
TORSDOF 6
ENDMDL
MODEL 5
REMARK VINA RESULT:     -10.4      4.414      9.334
REMARK  Name = 44129624
REMARK  6 active torsions:
REMARK  status: ('A' for Active; 'I' for Inactive)
REMARK    1  A    between atoms: C_1  and  O_20
REMARK    2  A    between atoms: C_4  and  C_8
REMARK    3  A    between atoms: C_8  and  C_9
REMARK    4  A    between atoms: C_10  and  C_16
REMARK    5  A    between atoms: O_20  and  C_21
REMARK    6  A    between atoms: C_21  and  C_23
REMARK                            x       y       z     vdW  Elec       q    Type
REMARK                         _______ _______ _______ _____ _____    ______ ____
ROOT
ATOM      1  C   UNL     1      34.070 -15.183 -23.315  0.00  0.00    +0.138 C 
ATOM      2  C   UNL     1      34.583 -15.236 -22.019  0.00  0.00    +0.037 C 
ATOM      3  C   UNL     1      34.267 -16.253 -24.188  0.00  0.00    +0.037 C 
ATOM      4  C   UNL     1      35.492 -17.429 -22.468  0.00  0.00    +0.039 C 
ATOM      5  C   UNL     1      35.294 -16.358 -21.596  0.00  0.00    +0.006 C 
ATOM      6  C   UNL     1      34.978 -17.376 -23.763  0.00  0.00    +0.006 C 
ENDROOT
BRANCH   4   8
ATOM      7  O   UNL     1      37.340 -18.860 -22.515  0.00  0.00    -0.287 OA
ATOM      8  C   UNL     1      36.231 -18.600 -22.025  0.00  0.00    +0.196 C 
BRANCH   8   9
ATOM      9  C   UNL     1      35.706 -19.531 -20.981  0.00  0.00    +0.039 C 
ATOM     10  C   UNL     1      34.727 -21.269 -19.030  0.00  0.00    +0.001 C 
ATOM     11  C   UNL     1      36.584 -20.134 -20.080  0.00  0.00    +0.003 C 
ATOM     12  C   UNL     1      34.339 -19.798 -20.907  0.00  0.00    +0.003 C 
ATOM     13  C   UNL     1      36.094 -21.002 -19.105  0.00  0.00    +0.000 C 
ATOM     14  C   UNL     1      33.849 -20.667 -19.932  0.00  0.00    +0.000 C 
BRANCH  10  16
ATOM     15  S   UNL     1      34.227 -23.707 -15.972  0.00  0.00    -0.086 S 
ATOM     16  C   UNL     1      34.224 -22.162 -18.026  0.00  0.00    +0.007 C 
ATOM     17  C   UNL     1      32.888 -22.635 -17.885  0.00  0.00    +0.007 C 
ATOM     18  C   UNL     1      35.057 -22.668 -17.051  0.00  0.00    +0.035 C 
ATOM     19  C   UNL     1      32.749 -23.483 -16.808  0.00  0.00    +0.035 C 
ENDBRANCH  10  16
ENDBRANCH   8   9
ENDBRANCH   4   8
BRANCH   1  20
ATOM     20  O   UNL     1      33.370 -14.079 -23.733  0.00  0.00    -0.478 OA
BRANCH  20  21
ATOM     21  C   UNL     1      33.796 -12.822 -23.231  0.00  0.00    +0.184 C 
BRANCH  21  23
ATOM     22  N   UNL     1      32.876 -10.563 -22.782  0.00  0.00    +0.388 N 
ATOM     23  C   UNL     1      32.570 -11.999 -22.867  0.00  0.00    -0.017 C 
ATOM     24  C   UNL     1      32.029 -12.320 -21.483  0.00  0.00    -0.020 C 
ATOM     25  C   UNL     1      31.271 -11.063 -21.083  0.00  0.00    -0.025 C 
ATOM     26  C   UNL     1      31.743  -9.986 -22.050  0.00  0.00    -0.082 C 
ATOM     27  H   UNL     1      32.948 -10.155 -23.714  0.00  0.00    -0.084 HD
ATOM     28  H   UNL     1      33.767 -10.385 -22.318  0.00  0.00    -0.084 HD
ENDBRANCH  21  23
ENDBRANCH  20  21
ENDBRANCH   1  20
TORSDOF 6
ENDMDL
MODEL 6
REMARK VINA RESULT:     -10.3      1.381      2.310
REMARK  Name = 44129624
REMARK  6 active torsions:
REMARK  status: ('A' for Active; 'I' for Inactive)
REMARK    1  A    between atoms: C_1  and  O_20
REMARK    2  A    between atoms: C_4  and  C_8
REMARK    3  A    between atoms: C_8  and  C_9
REMARK    4  A    between atoms: C_10  and  C_16
REMARK    5  A    between atoms: O_20  and  C_21
REMARK    6  A    between atoms: C_21  and  C_23
REMARK                            x       y       z     vdW  Elec       q    Type
REMARK                         _______ _______ _______ _____ _____    ______ ____
ROOT
ATOM      1  C   UNL     1      35.037 -21.681 -18.913  0.00  0.00    +0.138 C 
ATOM      2  C   UNL     1      36.383 -21.327 -18.992  0.00  0.00    +0.037 C 
ATOM      3  C   UNL     1      34.094 -21.016 -19.696  0.00  0.00    +0.037 C 
ATOM      4  C   UNL     1      35.844 -19.642 -20.637  0.00  0.00    +0.039 C 
ATOM      5  C   UNL     1      36.787 -20.308 -19.853  0.00  0.00    +0.006 C 
ATOM      6  C   UNL     1      34.498 -19.997 -20.558  0.00  0.00    +0.006 C 
ENDROOT
BRANCH   4   8
ATOM      7  O   UNL     1      37.265 -18.733 -22.257  0.00  0.00    -0.287 OA
ATOM      8  C   UNL     1      36.266 -18.581 -21.538  0.00  0.00    +0.196 C 
BRANCH   8   9
ATOM      9  C   UNL     1      35.536 -17.282 -21.643  0.00  0.00    +0.039 C 
ATOM     10  C   UNL     1      34.172 -14.856 -21.839  0.00  0.00    +0.001 C 
ATOM     11  C   UNL     1      35.221 -16.759 -22.897  0.00  0.00    +0.003 C 
ATOM     12  C   UNL     1      35.170 -16.591 -20.487  0.00  0.00    +0.003 C 
ATOM     13  C   UNL     1      34.539 -15.546 -22.995  0.00  0.00    +0.000 C 
ATOM     14  C   UNL     1      34.488 -15.379 -20.586  0.00  0.00    +0.000 C 
BRANCH  10  16
ATOM     15  S   UNL     1      32.800 -11.302 -22.855  0.00  0.00    -0.086 S 
ATOM     16  C   UNL     1      33.470 -13.608 -21.942  0.00  0.00    +0.007 C 
ATOM     17  C   UNL     1      32.430 -13.134 -21.092  0.00  0.00    +0.007 C 
ATOM     18  C   UNL     1      33.770 -12.710 -22.943  0.00  0.00    +0.035 C 
ATOM     19  C   UNL     1      31.974 -11.891 -21.476  0.00  0.00    +0.035 C 
ENDBRANCH  10  16
ENDBRANCH   8   9
ENDBRANCH   4   8
BRANCH   1  20
ATOM     20  O   UNL     1      34.639 -22.684 -18.064  0.00  0.00    -0.478 OA
BRANCH  20  21
ATOM     21  C   UNL     1      33.242 -22.863 -17.895  0.00  0.00    +0.184 C 
BRANCH  21  23
ATOM     22  N   UNL     1      33.682 -23.730 -15.613  0.00  0.00    +0.388 N 
ATOM     23  C   UNL     1      32.912 -22.766 -16.413  0.00  0.00    -0.017 C 
ATOM     24  C   UNL     1      31.469 -23.131 -16.101  0.00  0.00    -0.020 C 
ATOM     25  C   UNL     1      31.504 -23.559 -14.642  0.00  0.00    -0.025 C 
ATOM     26  C   UNL     1      32.976 -23.792 -14.328  0.00  0.00    -0.082 C 
ATOM     27  H   UNL     1      34.639 -23.405 -15.482  0.00  0.00    -0.084 HD
ATOM     28  H   UNL     1      33.744 -24.643 -16.063  0.00  0.00    -0.084 HD
ENDBRANCH  21  23
ENDBRANCH  20  21
ENDBRANCH   1  20
TORSDOF 6
ENDMDL
MODEL 7
REMARK VINA RESULT:     -10.2      4.907     10.247
REMARK  Name = 44129624
REMARK  6 active torsions:
REMARK  status: ('A' for Active; 'I' for Inactive)
REMARK    1  A    between atoms: C_1  and  O_20
REMARK    2  A    between atoms: C_4  and  C_8
REMARK    3  A    between atoms: C_8  and  C_9
REMARK    4  A    between atoms: C_10  and  C_16
REMARK    5  A    between atoms: O_20  and  C_21
REMARK    6  A    between atoms: C_21  and  C_23
REMARK                            x       y       z     vdW  Elec       q    Type
REMARK                         _______ _______ _______ _____ _____    ______ ____
ROOT
ATOM      1  C   UNL     1      35.688 -19.461 -20.649  0.00  0.00    +0.138 C 
ATOM      2  C   UNL     1      36.602 -20.256 -19.958  0.00  0.00    +0.037 C 
ATOM      3  C   UNL     1      34.324 -19.742 -20.577  0.00  0.00    +0.037 C 
ATOM      4  C   UNL     1      34.787 -21.613 -19.121  0.00  0.00    +0.039 C 
ATOM      5  C   UNL     1      36.152 -21.332 -19.194  0.00  0.00    +0.006 C 
ATOM      6  C   UNL     1      33.874 -20.818 -19.812  0.00  0.00    +0.006 C 
ENDROOT
BRANCH   4   8
ATOM      7  O   UNL     1      33.534 -23.563 -18.809  0.00  0.00    -0.287 OA
ATOM      8  C   UNL     1      34.318 -22.734 -18.322  0.00  0.00    +0.196 C 
BRANCH   8   9
ATOM      9  C   UNL     1      34.744 -22.943 -16.905  0.00  0.00    +0.039 C 
ATOM     10  C   UNL     1      35.541 -23.333 -14.261  0.00  0.00    +0.001 C 
ATOM     11  C   UNL     1      33.860 -23.508 -15.987  0.00  0.00    +0.003 C 
ATOM     12  C   UNL     1      36.027 -22.571 -16.501  0.00  0.00    +0.003 C 
ATOM     13  C   UNL     1      34.259 -23.703 -14.665  0.00  0.00    +0.000 C 
ATOM     14  C   UNL     1      36.425 -22.766 -15.179  0.00  0.00    +0.000 C 
BRANCH  10  16
ATOM     15  S   UNL     1      35.899 -24.416 -10.486  0.00  0.00    -0.086 S 
ATOM     16  C   UNL     1      35.950 -23.535 -12.899  0.00  0.00    +0.007 C 
ATOM     17  C   UNL     1      37.096 -22.987 -12.255  0.00  0.00    +0.007 C 
ATOM     18  C   UNL     1      35.211 -24.331 -12.052  0.00  0.00    +0.035 C 
ATOM     19  C   UNL     1      37.190 -23.386 -10.939  0.00  0.00    +0.035 C 
ENDBRANCH  10  16
ENDBRANCH   8   9
ENDBRANCH   4   8
BRANCH   1  20
ATOM     20  O   UNL     1      36.131 -18.402 -21.402  0.00  0.00    -0.478 OA
BRANCH  20  21
ATOM     21  C   UNL     1      35.831 -18.430 -22.787  0.00  0.00    +0.184 C 
BRANCH  21  23
ATOM     22  N   UNL     1      34.946 -16.835 -24.469  0.00  0.00    +0.388 N 
ATOM     23  C   UNL     1      34.819 -17.337 -23.093  0.00  0.00    -0.017 C 
ATOM     24  C   UNL     1      35.021 -16.088 -22.249  0.00  0.00    -0.020 C 
ATOM     25  C   UNL     1      34.382 -14.980 -23.073  0.00  0.00    -0.025 C 
ATOM     26  C   UNL     1      34.216 -15.563 -24.469  0.00  0.00    -0.082 C 
ATOM     27  H   UNL     1      34.529 -17.490 -25.130  0.00  0.00    -0.084 HD
ATOM     28  H   UNL     1      35.920 -16.722 -24.750  0.00  0.00    -0.084 HD
ENDBRANCH  21  23
ENDBRANCH  20  21
ENDBRANCH   1  20
TORSDOF 6
ENDMDL
MODEL 8
REMARK VINA RESULT:     -10.2      4.406      9.753
REMARK  Name = 44129624
REMARK  6 active torsions:
REMARK  status: ('A' for Active; 'I' for Inactive)
REMARK    1  A    between atoms: C_1  and  O_20
REMARK    2  A    between atoms: C_4  and  C_8
REMARK    3  A    between atoms: C_8  and  C_9
REMARK    4  A    between atoms: C_10  and  C_16
REMARK    5  A    between atoms: O_20  and  C_21
REMARK    6  A    between atoms: C_21  and  C_23
REMARK                            x       y       z     vdW  Elec       q    Type
REMARK                         _______ _______ _______ _____ _____    ______ ____
ROOT
ATOM      1  C   UNL     1      34.088 -15.148 -23.380  0.00  0.00    +0.138 C 
ATOM      2  C   UNL     1      34.247 -16.227 -24.249  0.00  0.00    +0.037 C 
ATOM      3  C   UNL     1      34.604 -15.212 -22.086  0.00  0.00    +0.037 C 
ATOM      4  C   UNL     1      35.439 -17.436 -22.530  0.00  0.00    +0.039 C 
ATOM      5  C   UNL     1      34.922 -17.371 -23.825  0.00  0.00    +0.006 C 
ATOM      6  C   UNL     1      35.280 -16.357 -21.662  0.00  0.00    +0.006 C 
ENDROOT
BRANCH   4   8
ATOM      7  O   UNL     1      37.240 -18.926 -22.589  0.00  0.00    -0.287 OA
ATOM      8  C   UNL     1      36.146 -18.627 -22.089  0.00  0.00    +0.196 C 
BRANCH   8   9
ATOM      9  C   UNL     1      35.604 -19.535 -21.032  0.00  0.00    +0.039 C 
ATOM     10  C   UNL     1      34.594 -21.231 -19.061  0.00  0.00    +0.001 C 
ATOM     11  C   UNL     1      34.229 -19.741 -20.928  0.00  0.00    +0.003 C 
ATOM     12  C   UNL     1      36.475 -20.177 -20.151  0.00  0.00    +0.003 C 
ATOM     13  C   UNL     1      33.724 -20.589 -19.942  0.00  0.00    +0.000 C 
ATOM     14  C   UNL     1      35.969 -21.024 -19.165  0.00  0.00    +0.000 C 
BRANCH  10  16
ATOM     15  S   UNL     1      32.347 -23.425 -16.677  0.00  0.00    -0.086 S 
ATOM     16  C   UNL     1      34.072 -22.104 -18.048  0.00  0.00    +0.007 C 
ATOM     17  C   UNL     1      34.811 -22.794 -17.044  0.00  0.00    +0.007 C 
ATOM     18  C   UNL     1      32.721 -22.358 -17.963  0.00  0.00    +0.035 C 
ATOM     19  C   UNL     1      33.995 -23.550 -16.230  0.00  0.00    +0.035 C 
ENDBRANCH  10  16
ENDBRANCH   8   9
ENDBRANCH   4   8
BRANCH   1  20
ATOM     20  O   UNL     1      33.422 -14.022 -23.797  0.00  0.00    -0.478 OA
BRANCH  20  21
ATOM     21  C   UNL     1      33.161 -13.032 -22.817  0.00  0.00    +0.184 C 
BRANCH  21  23
ATOM     22  N   UNL     1      34.488 -11.165 -23.769  0.00  0.00    +0.388 N 
ATOM     23  C   UNL     1      33.135 -11.669 -23.491  0.00  0.00    -0.017 C 
ATOM     24  C   UNL     1      32.534 -10.583 -22.613  0.00  0.00    -0.020 C 
ATOM     25  C   UNL     1      33.130  -9.295 -23.160  0.00  0.00    -0.025 C 
ATOM     26  C   UNL     1      34.304  -9.732 -24.025  0.00  0.00    -0.082 C 
ATOM     27  H   UNL     1      34.884 -11.629 -24.586  0.00  0.00    -0.084 HD
ATOM     28  H   UNL     1      35.131 -11.340 -22.997  0.00  0.00    -0.084 HD
ENDBRANCH  21  23
ENDBRANCH  20  21
ENDBRANCH   1  20
TORSDOF 6
ENDMDL
MODEL 9
REMARK VINA RESULT:     -10.2      3.643      6.486
REMARK  Name = 44129624
REMARK  6 active torsions:
REMARK  status: ('A' for Active; 'I' for Inactive)
REMARK    1  A    between atoms: C_1  and  O_20
REMARK    2  A    between atoms: C_4  and  C_8
REMARK    3  A    between atoms: C_8  and  C_9
REMARK    4  A    between atoms: C_10  and  C_16
REMARK    5  A    between atoms: O_20  and  C_21
REMARK    6  A    between atoms: C_21  and  C_23
REMARK                            x       y       z     vdW  Elec       q    Type
REMARK                         _______ _______ _______ _____ _____    ______ ____
ROOT
ATOM      1  C   UNL     1      35.227 -17.075 -22.108  0.00  0.00    +0.138 C 
ATOM      2  C   UNL     1      34.958 -15.871 -21.459  0.00  0.00    +0.037 C 
ATOM      3  C   UNL     1      34.919 -17.223 -23.460  0.00  0.00    +0.037 C 
ATOM      4  C   UNL     1      34.073 -14.960 -23.514  0.00  0.00    +0.039 C 
ATOM      5  C   UNL     1      34.381 -14.813 -22.161  0.00  0.00    +0.006 C 
ATOM      6  C   UNL     1      34.342 -16.165 -24.163  0.00  0.00    +0.006 C 
ENDROOT
BRANCH   4   8
ATOM      7  O   UNL     1      33.192 -13.984 -25.448  0.00  0.00    -0.287 OA
ATOM      8  C   UNL     1      33.475 -13.856 -24.247  0.00  0.00    +0.196 C 
BRANCH   8   9
ATOM      9  C   UNL     1      33.175 -12.539 -23.608  0.00  0.00    +0.039 C 
ATOM     10  C   UNL     1      32.613 -10.080 -22.416  0.00  0.00    +0.001 C 
ATOM     11  C   UNL     1      33.742 -11.372 -24.119  0.00  0.00    +0.003 C 
ATOM     12  C   UNL     1      32.327 -12.477 -22.502  0.00  0.00    +0.003 C 
ATOM     13  C   UNL     1      33.461 -10.142 -23.523  0.00  0.00    +0.000 C 
ATOM     14  C   UNL     1      32.047 -11.248 -21.906  0.00  0.00    +0.000 C 
BRANCH  10  16
ATOM     15  S   UNL     1      31.627  -6.349 -21.610  0.00  0.00    -0.086 S 
ATOM     16  C   UNL     1      32.325  -8.814 -21.805  0.00  0.00    +0.007 C 
ATOM     17  C   UNL     1      32.419  -8.485 -20.422  0.00  0.00    +0.007 C 
ATOM     18  C   UNL     1      31.905  -7.743 -22.564  0.00  0.00    +0.035 C 
ATOM     19  C   UNL     1      32.067  -7.175 -20.176  0.00  0.00    +0.035 C 
ENDBRANCH  10  16
ENDBRANCH   8   9
ENDBRANCH   4   8
BRANCH   1  20
ATOM     20  O   UNL     1      35.793 -18.117 -21.417  0.00  0.00    -0.478 OA
BRANCH  20  21
ATOM     21  C   UNL     1      35.227 -19.401 -21.615  0.00  0.00    +0.184 C 
BRANCH  21  23
ATOM     22  N   UNL     1      35.607 -21.163 -19.910  0.00  0.00    +0.388 N 
ATOM     23  C   UNL     1      34.821 -19.972 -20.265  0.00  0.00    -0.017 C 
ATOM     24  C   UNL     1      33.389 -20.484 -20.242  0.00  0.00    -0.020 C 
ATOM     25  C   UNL     1      33.380 -21.504 -19.113  0.00  0.00    -0.025 C 
ATOM     26  C   UNL     1      34.846 -21.802 -18.831  0.00  0.00    -0.082 C 
ATOM     27  H   UNL     1      36.537 -20.896 -19.585  0.00  0.00    -0.084 HD
ATOM     28  H   UNL     1      35.746 -21.785 -20.706  0.00  0.00    -0.084 HD
ENDBRANCH  21  23
ENDBRANCH  20  21
ENDBRANCH   1  20
TORSDOF 6
ENDMDL
