MODEL 1
REMARK VINA RESULT:     -11.9      0.000      0.000
REMARK  Name = 24883488
REMARK  8 active torsions:
REMARK  status: ('A' for Active; 'I' for Inactive)
REMARK    1  A    between atoms: N_2  and  C_11
REMARK    2  A    between atoms: C_3  and  C_19
REMARK    3  A    between atoms: C_19  and  C_20
REMARK    4  A    between atoms: C_20  and  C_23
REMARK    5  A    between atoms: N_22  and  C_25
REMARK    6  A    between atoms: C_27  and  O_31
REMARK    7  A    between atoms: O_31  and  C_32
REMARK    8  A    between atoms: C_32  and  C_34
REMARK                            x       y       z     vdW  Elec       q    Type
REMARK                         _______ _______ _______ _____ _____    ______ ____
ROOT
ATOM      1  O   UNL     1      34.019 -18.276 -24.059  0.00  0.00    -0.275 OA
ATOM      2  N   UNL     1      35.582 -17.454 -22.502  0.00  0.00    -0.284 N 
ATOM      3  C   UNL     1      34.780 -17.405 -23.649  0.00  0.00    +0.227 C 
ATOM      4  H   UNL     1      36.152 -16.667 -22.343  0.00  0.00    +0.155 HD
ENDROOT
BRANCH   2  11
ATOM      5  O   UNL     1      32.322 -20.691 -20.267  0.00  0.00    -0.282 OA
ATOM      6  O   UNL     1      37.084 -21.890 -18.176  0.00  0.00    -0.270 OA
ATOM      7  O   UNL     1      32.531 -22.630 -18.469  0.00  0.00    -0.266 OA
ATOM      8  N   UNL     1      34.818 -22.263 -18.316  0.00  0.00    -0.246 N 
ATOM      9  C   UNL     1      34.635 -20.199 -20.220  0.00  0.00    +0.049 C 
ATOM     10  C   UNL     1      35.872 -20.526 -19.664  0.00  0.00    +0.057 C 
ATOM     11  C   UNL     1      35.677 -18.475 -21.556  0.00  0.00    +0.050 C 
ATOM     12  C   UNL     1      34.534 -19.173 -21.167  0.00  0.00    +0.018 C 
ATOM     13  C   UNL     1      37.015 -19.821 -20.059  0.00  0.00    +0.006 C 
ATOM     14  C   UNL     1      36.916 -18.799 -21.004  0.00  0.00    +0.015 C 
ATOM     15  C   UNL     1      33.430 -20.932 -19.812  0.00  0.00    +0.249 C 
ATOM     16  C   UNL     1      35.993 -21.605 -18.663  0.00  0.00    +0.252 C 
ATOM     17  C   UNL     1      33.543 -22.029 -18.797  0.00  0.00    +0.291 C 
ATOM     18  H   UNL     1      34.905 -22.981 -17.648  0.00  0.00    +0.158 HD
ENDBRANCH   2  11
BRANCH   3  19
ATOM     19  C   UNL     1      34.963 -16.112 -24.427  0.00  0.00    +0.095 C 
BRANCH  19  20
ATOM     20  C   UNL     1      33.718 -15.233 -24.340  0.00  0.00    +0.095 C 
BRANCH  20  23
ATOM     21  O   UNL     1      34.626 -13.938 -22.548  0.00  0.00    -0.275 OA
ATOM     22  N   UNL     1      33.529 -12.831 -24.307  0.00  0.00    -0.284 N 
ATOM     23  C   UNL     1      34.009 -13.933 -23.609  0.00  0.00    +0.227 C 
ATOM     24  H   UNL     1      33.074 -13.023 -25.160  0.00  0.00    +0.155 HD
BRANCH  22  25
ATOM     25  C   UNL     1      33.614 -11.470 -23.938  0.00  0.00    +0.053 C 
ATOM     26  C   UNL     1      32.703 -10.935 -23.027  0.00  0.00    +0.052 C 
ATOM     27  C   UNL     1      32.786  -9.590 -22.664  0.00  0.00    +0.140 C 
ATOM     28  C   UNL     1      34.609 -10.660 -24.486  0.00  0.00    +0.015 C 
ATOM     29  C   UNL     1      33.783  -8.781 -23.213  0.00  0.00    +0.037 C 
ATOM     30  C   UNL     1      34.694  -9.316 -24.123  0.00  0.00    +0.004 C 
BRANCH  27  31
ATOM     31  O   UNL     1      31.898  -9.068 -21.776  0.00  0.00    -0.472 OA
BRANCH  31  32
ATOM     32  C   UNL     1      32.436  -8.361 -20.660  0.00  0.00    +0.243 C 
BRANCH  32  34
ATOM     33  F   UNL     1      31.301 -10.174 -19.723  0.00  0.00    -0.230 F 
ATOM     34  C   UNL     1      32.027  -9.072 -19.389  0.00  0.00    +0.240 C 
ENDBRANCH  32  34
ENDBRANCH  31  32
ENDBRANCH  27  31
ENDBRANCH  22  25
ENDBRANCH  20  23
ENDBRANCH  19  20
ENDBRANCH   3  19
TORSDOF 8
ENDMDL
MODEL 2
REMARK VINA RESULT:     -11.8      1.677      2.218
REMARK  Name = 24883488
REMARK  8 active torsions:
REMARK  status: ('A' for Active; 'I' for Inactive)
REMARK    1  A    between atoms: N_2  and  C_11
REMARK    2  A    between atoms: C_3  and  C_19
REMARK    3  A    between atoms: C_19  and  C_20
REMARK    4  A    between atoms: C_20  and  C_23
REMARK    5  A    between atoms: N_22  and  C_25
REMARK    6  A    between atoms: C_27  and  O_31
REMARK    7  A    between atoms: O_31  and  C_32
REMARK    8  A    between atoms: C_32  and  C_34
REMARK                            x       y       z     vdW  Elec       q    Type
REMARK                         _______ _______ _______ _____ _____    ______ ____
ROOT
ATOM      1  O   UNL     1      34.056 -19.055 -24.138  0.00  0.00    -0.275 OA
ATOM      2  N   UNL     1      35.250 -17.885 -22.481  0.00  0.00    -0.284 N 
ATOM      3  C   UNL     1      34.586 -18.037 -23.704  0.00  0.00    +0.227 C 
ATOM      4  H   UNL     1      35.638 -16.996 -22.310  0.00  0.00    +0.155 HD
ENDROOT
BRANCH   2  11
ATOM      5  O   UNL     1      32.243 -21.091 -19.877  0.00  0.00    -0.282 OA
ATOM      6  O   UNL     1      37.142 -21.939 -17.938  0.00  0.00    -0.270 OA
ATOM      7  O   UNL     1      32.618 -22.888 -17.963  0.00  0.00    -0.266 OA
ATOM      8  N   UNL     1      34.891 -22.415 -17.944  0.00  0.00    -0.246 N 
ATOM      9  C   UNL     1      34.530 -20.500 -19.974  0.00  0.00    +0.049 C 
ATOM     10  C   UNL     1      35.804 -20.735 -19.456  0.00  0.00    +0.057 C 
ATOM     11  C   UNL     1      35.433 -18.832 -21.473  0.00  0.00    +0.050 C 
ATOM     12  C   UNL     1      34.341 -19.549 -20.983  0.00  0.00    +0.018 C 
ATOM     13  C   UNL     1      36.896 -20.012 -19.951  0.00  0.00    +0.006 C 
ATOM     14  C   UNL     1      36.708 -19.064 -20.959  0.00  0.00    +0.015 C 
ATOM     15  C   UNL     1      33.379 -21.253 -19.460  0.00  0.00    +0.249 C 
ATOM     16  C   UNL     1      36.019 -21.735 -18.390  0.00  0.00    +0.252 C 
ATOM     17  C   UNL     1      33.587 -22.270 -18.379  0.00  0.00    +0.291 C 
ATOM     18  H   UNL     1      35.040 -23.081 -17.233  0.00  0.00    +0.158 HD
ENDBRANCH   2  11
BRANCH   3  19
ATOM     19  C   UNL     1      34.603 -16.763 -24.533  0.00  0.00    +0.095 C 
BRANCH  19  20
ATOM     20  C   UNL     1      34.967 -15.551 -23.679  0.00  0.00    +0.095 C 
BRANCH  20  23
ATOM     21  O   UNL     1      33.163 -14.431 -24.774  0.00  0.00    -0.275 OA
ATOM     22  N   UNL     1      33.996 -13.546 -22.763  0.00  0.00    -0.284 N 
ATOM     23  C   UNL     1      33.937 -14.444 -23.822  0.00  0.00    +0.227 C 
ATOM     24  H   UNL     1      34.674 -13.733 -22.074  0.00  0.00    +0.155 HD
BRANCH  22  25
ATOM     25  C   UNL     1      33.198 -12.398 -22.557  0.00  0.00    +0.053 C 
ATOM     26  C   UNL     1      33.515 -11.203 -23.202  0.00  0.00    +0.052 C 
ATOM     27  C   UNL     1      32.727 -10.069 -22.998  0.00  0.00    +0.140 C 
ATOM     28  C   UNL     1      32.093 -12.460 -21.708  0.00  0.00    +0.015 C 
ATOM     29  C   UNL     1      31.622 -10.132 -22.149  0.00  0.00    +0.037 C 
ATOM     30  C   UNL     1      31.305 -11.327 -21.503  0.00  0.00    +0.004 C 
BRANCH  27  31
ATOM     31  O   UNL     1      33.036  -8.903 -23.628  0.00  0.00    -0.472 OA
BRANCH  31  32
ATOM     32  C   UNL     1      34.404  -8.499 -23.611  0.00  0.00    +0.243 C 
BRANCH  32  34
ATOM     33  F   UNL     1      35.259  -6.326 -23.555  0.00  0.00    -0.230 F 
ATOM     34  C   UNL     1      34.523  -7.212 -22.827  0.00  0.00    +0.240 C 
ENDBRANCH  32  34
ENDBRANCH  31  32
ENDBRANCH  27  31
ENDBRANCH  22  25
ENDBRANCH  20  23
ENDBRANCH  19  20
ENDBRANCH   3  19
TORSDOF 8
ENDMDL
MODEL 3
REMARK VINA RESULT:     -11.7      4.405      7.717
REMARK  Name = 24883488
REMARK  8 active torsions:
REMARK  status: ('A' for Active; 'I' for Inactive)
REMARK    1  A    between atoms: N_2  and  C_11
REMARK    2  A    between atoms: C_3  and  C_19
REMARK    3  A    between atoms: C_19  and  C_20
REMARK    4  A    between atoms: C_20  and  C_23
REMARK    5  A    between atoms: N_22  and  C_25
REMARK    6  A    between atoms: C_27  and  O_31
REMARK    7  A    between atoms: O_31  and  C_32
REMARK    8  A    between atoms: C_32  and  C_34
REMARK                            x       y       z     vdW  Elec       q    Type
REMARK                         _______ _______ _______ _____ _____    ______ ____
ROOT
ATOM      1  O   UNL     1      33.642 -24.182 -17.412  0.00  0.00    -0.275 OA
ATOM      2  N   UNL     1      34.980 -22.377 -16.711  0.00  0.00    -0.284 N 
ATOM      3  C   UNL     1      34.014 -23.016 -17.497  0.00  0.00    +0.227 C 
ATOM      4  H   UNL     1      35.168 -21.438 -16.941  0.00  0.00    +0.155 HD
ENDROOT
BRANCH   2  11
ATOM      5  O   UNL     1      33.889 -24.195 -12.063  0.00  0.00    -0.282 OA
ATOM      6  O   UNL     1      39.193 -24.609 -12.478  0.00  0.00    -0.270 OA
ATOM      7  O   UNL     1      35.302 -25.189 -10.051  0.00  0.00    -0.266 OA
ATOM      8  N   UNL     1      37.261 -24.899 -11.264  0.00  0.00    -0.246 N 
ATOM      9  C   UNL     1      35.793 -23.838 -13.419  0.00  0.00    +0.049 C 
ATOM     10  C   UNL     1      37.180 -23.954 -13.510  0.00  0.00    +0.057 C 
ATOM     11  C   UNL     1      35.712 -22.900 -15.645  0.00  0.00    +0.050 C 
ATOM     12  C   UNL     1      35.056 -23.311 -14.485  0.00  0.00    +0.018 C 
ATOM     13  C   UNL     1      37.833 -23.540 -14.677  0.00  0.00    +0.006 C 
ATOM     14  C   UNL     1      37.098 -23.015 -15.742  0.00  0.00    +0.015 C 
ATOM     15  C   UNL     1      35.100 -24.271 -12.199  0.00  0.00    +0.249 C 
ATOM     16  C   UNL     1      37.972 -24.508 -12.393  0.00  0.00    +0.252 C 
ATOM     17  C   UNL     1      35.895 -24.833 -11.059  0.00  0.00    +0.291 C 
ATOM     18  H   UNL     1      37.793 -25.267 -10.522  0.00  0.00    +0.158 HD
ENDBRANCH   2  11
BRANCH   3  19
ATOM     19  C   UNL     1      33.442 -22.101 -18.568  0.00  0.00    +0.095 C 
BRANCH  19  20
ATOM     20  C   UNL     1      34.549 -21.354 -19.307  0.00  0.00    +0.095 C 
BRANCH  20  23
ATOM     21  O   UNL     1      32.767 -20.350 -20.544  0.00  0.00    -0.275 OA
ATOM     22  N   UNL     1      34.984 -19.788 -21.085  0.00  0.00    -0.284 N 
ATOM     23  C   UNL     1      33.981 -20.450 -20.388  0.00  0.00    +0.227 C 
ATOM     24  H   UNL     1      35.908 -19.979 -20.802  0.00  0.00    +0.155 HD
BRANCH  22  25
ATOM     25  C   UNL     1      34.837 -18.872 -22.152  0.00  0.00    +0.053 C 
ATOM     26  C   UNL     1      35.153 -17.526 -21.965  0.00  0.00    +0.052 C 
ATOM     27  C   UNL     1      35.007 -16.622 -23.017  0.00  0.00    +0.140 C 
ATOM     28  C   UNL     1      34.374 -19.314 -23.391  0.00  0.00    +0.015 C 
ATOM     29  C   UNL     1      34.545 -17.065 -24.258  0.00  0.00    +0.037 C 
ATOM     30  C   UNL     1      34.228 -18.411 -24.444  0.00  0.00    +0.004 C 
BRANCH  27  31
ATOM     31  O   UNL     1      35.315 -15.310 -22.836  0.00  0.00    -0.472 OA
BRANCH  31  32
ATOM     32  C   UNL     1      34.265 -14.364 -23.031  0.00  0.00    +0.243 C 
BRANCH  32  34
ATOM     33  F   UNL     1      34.632 -14.326 -20.724  0.00  0.00    -0.230 F 
ATOM     34  C   UNL     1      33.749 -13.922 -21.680  0.00  0.00    +0.240 C 
ENDBRANCH  32  34
ENDBRANCH  31  32
ENDBRANCH  27  31
ENDBRANCH  22  25
ENDBRANCH  20  23
ENDBRANCH  19  20
ENDBRANCH   3  19
TORSDOF 8
ENDMDL
MODEL 4
REMARK VINA RESULT:     -11.7      3.462      6.877
REMARK  Name = 24883488
REMARK  8 active torsions:
REMARK  status: ('A' for Active; 'I' for Inactive)
REMARK    1  A    between atoms: N_2  and  C_11
REMARK    2  A    between atoms: C_3  and  C_19
REMARK    3  A    between atoms: C_19  and  C_20
REMARK    4  A    between atoms: C_20  and  C_23
REMARK    5  A    between atoms: N_22  and  C_25
REMARK    6  A    between atoms: C_27  and  O_31
REMARK    7  A    between atoms: O_31  and  C_32
REMARK    8  A    between atoms: C_32  and  C_34
REMARK                            x       y       z     vdW  Elec       q    Type
REMARK                         _______ _______ _______ _____ _____    ______ ____
ROOT
ATOM      1  O   UNL     1      36.485 -21.730 -17.276  0.00  0.00    -0.275 OA
ATOM      2  N   UNL     1      34.389 -22.311 -18.177  0.00  0.00    -0.284 N 
ATOM      3  C   UNL     1      35.703 -21.828 -18.216  0.00  0.00    +0.227 C 
ATOM      4  H   UNL     1      33.899 -22.292 -19.031  0.00  0.00    +0.155 HD
ENDROOT
BRANCH   2  11
ATOM      5  O   UNL     1      29.473 -22.669 -16.832  0.00  0.00    -0.282 OA
ATOM      6  O   UNL     1      32.158 -24.886 -12.788  0.00  0.00    -0.270 OA
ATOM      7  O   UNL     1      28.160 -23.637 -14.741  0.00  0.00    -0.266 OA
ATOM      8  N   UNL     1      30.165 -24.265 -13.753  0.00  0.00    -0.246 N 
ATOM      9  C   UNL     1      31.592 -23.248 -15.955  0.00  0.00    +0.049 C 
ATOM     10  C   UNL     1      32.278 -23.831 -14.890  0.00  0.00    +0.057 C 
ATOM     11  C   UNL     1      33.686 -22.816 -17.083  0.00  0.00    +0.050 C 
ATOM     12  C   UNL     1      32.293 -22.739 -17.054  0.00  0.00    +0.018 C 
ATOM     13  C   UNL     1      33.675 -23.905 -14.924  0.00  0.00    +0.006 C 
ATOM     14  C   UNL     1      34.376 -23.398 -16.021  0.00  0.00    +0.015 C 
ATOM     15  C   UNL     1      30.126 -23.166 -15.928  0.00  0.00    +0.249 C 
ATOM     16  C   UNL     1      31.551 -24.373 -13.723  0.00  0.00    +0.252 C 
ATOM     17  C   UNL     1      29.379 -23.712 -14.748  0.00  0.00    +0.291 C 
ATOM     18  H   UNL     1      29.685 -24.628 -12.974  0.00  0.00    +0.158 HD
ENDBRANCH   2  11
BRANCH   3  19
ATOM     19  C   UNL     1      36.106 -21.364 -19.606  0.00  0.00    +0.095 C 
BRANCH  19  20
ATOM     20  C   UNL     1      37.140 -20.243 -19.538  0.00  0.00    +0.095 C 
BRANCH  20  23
ATOM     21  O   UNL     1      38.023 -18.803 -21.229  0.00  0.00    -0.275 OA
ATOM     22  N   UNL     1      35.703 -19.166 -21.144  0.00  0.00    -0.284 N 
ATOM     23  C   UNL     1      37.022 -19.308 -20.730  0.00  0.00    +0.227 C 
ATOM     24  H   UNL     1      35.030 -19.671 -20.631  0.00  0.00    +0.155 HD
BRANCH  22  25
ATOM     25  C   UNL     1      35.211 -18.383 -22.213  0.00  0.00    +0.053 C 
ATOM     26  C   UNL     1      35.327 -16.994 -22.172  0.00  0.00    +0.052 C 
ATOM     27  C   UNL     1      34.841 -16.221 -23.227  0.00  0.00    +0.140 C 
ATOM     28  C   UNL     1      34.609 -19.000 -23.309  0.00  0.00    +0.015 C 
ATOM     29  C   UNL     1      34.240 -16.839 -24.324  0.00  0.00    +0.037 C 
ATOM     30  C   UNL     1      34.123 -18.228 -24.365  0.00  0.00    +0.004 C 
BRANCH  27  31
ATOM     31  O   UNL     1      34.954 -14.865 -23.187  0.00  0.00    -0.472 OA
BRANCH  31  32
ATOM     32  C   UNL     1      33.742 -14.114 -23.146  0.00  0.00    +0.243 C 
BRANCH  32  34
ATOM     33  F   UNL     1      34.557 -13.959 -20.963  0.00  0.00    -0.230 F 
ATOM     34  C   UNL     1      33.434 -13.763 -21.709  0.00  0.00    +0.240 C 
ENDBRANCH  32  34
ENDBRANCH  31  32
ENDBRANCH  27  31
ENDBRANCH  22  25
ENDBRANCH  20  23
ENDBRANCH  19  20
ENDBRANCH   3  19
TORSDOF 8
ENDMDL
MODEL 5
REMARK VINA RESULT:     -11.7      2.454      3.616
REMARK  Name = 24883488
REMARK  8 active torsions:
REMARK  status: ('A' for Active; 'I' for Inactive)
REMARK    1  A    between atoms: N_2  and  C_11
REMARK    2  A    between atoms: C_3  and  C_19
REMARK    3  A    between atoms: C_19  and  C_20
REMARK    4  A    between atoms: C_20  and  C_23
REMARK    5  A    between atoms: N_22  and  C_25
REMARK    6  A    between atoms: C_27  and  O_31
REMARK    7  A    between atoms: O_31  and  C_32
REMARK    8  A    between atoms: C_32  and  C_34
REMARK                            x       y       z     vdW  Elec       q    Type
REMARK                         _______ _______ _______ _____ _____    ______ ____
ROOT
ATOM      1  O   UNL     1      35.365 -17.907 -20.569  0.00  0.00    -0.275 OA
ATOM      2  N   UNL     1      34.911 -20.153 -21.109  0.00  0.00    -0.284 N 
ATOM      3  C   UNL     1      35.059 -18.785 -21.370  0.00  0.00    +0.227 C 
ATOM      4  H   UNL     1      34.635 -20.709 -21.873  0.00  0.00    +0.155 HD
ENDROOT
BRANCH   2  11
ATOM      5  O   UNL     1      31.925 -22.580 -17.749  0.00  0.00    -0.282 OA
ATOM      6  O   UNL     1      36.854 -23.009 -15.750  0.00  0.00    -0.270 OA
ATOM      7  O   UNL     1      32.321 -23.863 -15.461  0.00  0.00    -0.266 OA
ATOM      8  N   UNL     1      34.599 -23.436 -15.599  0.00  0.00    -0.246 N 
ATOM      9  C   UNL     1      34.216 -22.067 -18.028  0.00  0.00    +0.049 C 
ATOM     10  C   UNL     1      35.498 -22.189 -17.492  0.00  0.00    +0.057 C 
ATOM     11  C   UNL     1      35.105 -20.830 -19.904  0.00  0.00    +0.050 C 
ATOM     12  C   UNL     1      34.016 -21.387 -19.235  0.00  0.00    +0.018 C 
ATOM     13  C   UNL     1      36.587 -21.627 -18.168  0.00  0.00    +0.006 C 
ATOM     14  C   UNL     1      36.388 -20.949 -19.373  0.00  0.00    +0.015 C 
ATOM     15  C   UNL     1      33.067 -22.654 -17.326  0.00  0.00    +0.249 C 
ATOM     16  C   UNL     1      35.724 -22.903 -16.218  0.00  0.00    +0.252 C 
ATOM     17  C   UNL     1      33.287 -23.380 -16.033  0.00  0.00    +0.291 C 
ATOM     18  H   UNL     1      34.755 -23.911 -14.751  0.00  0.00    +0.158 HD
ENDBRANCH   2  11
BRANCH   3  19
ATOM     19  C   UNL     1      34.753 -18.437 -22.817  0.00  0.00    +0.095 C 
BRANCH  19  20
ATOM     20  C   UNL     1      35.481 -17.166 -23.247  0.00  0.00    +0.095 C 
BRANCH  20  23
ATOM     21  O   UNL     1      33.815 -15.951 -24.456  0.00  0.00    -0.275 OA
ATOM     22  N   UNL     1      34.521 -15.139 -22.367  0.00  0.00    -0.284 N 
ATOM     23  C   UNL     1      34.511 -16.013 -23.447  0.00  0.00    +0.227 C 
ATOM     24  H   UNL     1      35.135 -15.366 -21.631  0.00  0.00    +0.155 HD
BRANCH  22  25
ATOM     25  C   UNL     1      33.756 -13.962 -22.199  0.00  0.00    +0.053 C 
ATOM     26  C   UNL     1      33.826 -12.943 -23.149  0.00  0.00    +0.052 C 
ATOM     27  C   UNL     1      33.071 -11.782 -22.983  0.00  0.00    +0.140 C 
ATOM     28  C   UNL     1      32.932 -13.820 -21.083  0.00  0.00    +0.015 C 
ATOM     29  C   UNL     1      32.246 -11.640 -21.867  0.00  0.00    +0.037 C 
ATOM     30  C   UNL     1      32.177 -12.659 -20.916  0.00  0.00    +0.004 C 
BRANCH  27  31
ATOM     31  O   UNL     1      33.138 -10.787 -23.910  0.00  0.00    -0.472 OA
BRANCH  31  32
ATOM     32  C   UNL     1      34.021 -10.986 -25.012  0.00  0.00    +0.243 C 
BRANCH  32  34
ATOM     33  F   UNL     1      35.747  -9.904 -26.157  0.00  0.00    -0.230 F 
ATOM     34  C   UNL     1      35.124  -9.954 -24.946  0.00  0.00    +0.240 C 
ENDBRANCH  32  34
ENDBRANCH  31  32
ENDBRANCH  27  31
ENDBRANCH  22  25
ENDBRANCH  20  23
ENDBRANCH  19  20
ENDBRANCH   3  19
TORSDOF 8
ENDMDL
MODEL 6
REMARK VINA RESULT:     -11.4      2.280      3.801
REMARK  Name = 24883488
REMARK  8 active torsions:
REMARK  status: ('A' for Active; 'I' for Inactive)
REMARK    1  A    between atoms: N_2  and  C_11
REMARK    2  A    between atoms: C_3  and  C_19
REMARK    3  A    between atoms: C_19  and  C_20
REMARK    4  A    between atoms: C_20  and  C_23
REMARK    5  A    between atoms: N_22  and  C_25
REMARK    6  A    between atoms: C_27  and  O_31
REMARK    7  A    between atoms: O_31  and  C_32
REMARK    8  A    between atoms: C_32  and  C_34
REMARK                            x       y       z     vdW  Elec       q    Type
REMARK                         _______ _______ _______ _____ _____    ______ ____
ROOT
ATOM      1  O   UNL     1      35.371 -17.133 -20.416  0.00  0.00    -0.275 OA
ATOM      2  N   UNL     1      35.091 -19.182 -21.540  0.00  0.00    -0.284 N 
ATOM      3  C   UNL     1      35.456 -17.836 -21.418  0.00  0.00    +0.227 C 
ATOM      4  H   UNL     1      35.208 -19.579 -22.434  0.00  0.00    +0.155 HD
ENDROOT
BRANCH   2  11
ATOM      5  O   UNL     1      37.046 -21.904 -17.685  0.00  0.00    -0.282 OA
ATOM      6  O   UNL     1      31.798 -22.855 -17.501  0.00  0.00    -0.270 OA
ATOM      7  O   UNL     1      36.055 -23.516 -15.826  0.00  0.00    -0.266 OA
ATOM      8  N   UNL     1      33.914 -23.190 -16.663  0.00  0.00    -0.246 N 
ATOM      9  C   UNL     1      34.931 -21.475 -18.650  0.00  0.00    +0.049 C 
ATOM     10  C   UNL     1      33.561 -21.734 -18.587  0.00  0.00    +0.057 C 
ATOM     11  C   UNL     1      34.583 -20.033 -20.558  0.00  0.00    +0.050 C 
ATOM     12  C   UNL     1      35.445 -20.625 -19.635  0.00  0.00    +0.018 C 
ATOM     13  C   UNL     1      32.701 -21.137 -19.517  0.00  0.00    +0.006 C 
ATOM     14  C   UNL     1      33.214 -20.288 -20.499  0.00  0.00    +0.015 C 
ATOM     15  C   UNL     1      35.840 -22.096 -17.679  0.00  0.00    +0.249 C 
ATOM     16  C   UNL     1      33.004 -22.630 -17.553  0.00  0.00    +0.252 C 
ATOM     17  C   UNL     1      35.284 -23.008 -16.627  0.00  0.00    +0.291 C 
ATOM     18  H   UNL     1      33.537 -23.786 -15.977  0.00  0.00    +0.158 HD
ENDBRANCH   2  11
BRANCH   3  19
ATOM     19  C   UNL     1      35.970 -17.255 -22.726  0.00  0.00    +0.095 C 
BRANCH  19  20
ATOM     20  C   UNL     1      34.910 -17.336 -23.821  0.00  0.00    +0.095 C 
BRANCH  20  23
ATOM     21  O   UNL     1      33.798 -15.679 -25.138  0.00  0.00    -0.275 OA
ATOM     22  N   UNL     1      34.153 -15.264 -22.852  0.00  0.00    -0.284 N 
ATOM     23  C   UNL     1      34.229 -15.994 -24.032  0.00  0.00    +0.227 C 
ATOM     24  H   UNL     1      34.537 -15.692 -22.052  0.00  0.00    +0.155 HD
BRANCH  22  25
ATOM     25  C   UNL     1      33.591 -13.982 -22.663  0.00  0.00    +0.053 C 
ATOM     26  C   UNL     1      33.875 -12.955 -23.564  0.00  0.00    +0.052 C 
ATOM     27  C   UNL     1      33.321 -11.689 -23.377  0.00  0.00    +0.140 C 
ATOM     28  C   UNL     1      32.753 -13.741 -21.575  0.00  0.00    +0.015 C 
ATOM     29  C   UNL     1      32.482 -11.449 -22.288  0.00  0.00    +0.037 C 
ATOM     30  C   UNL     1      32.198 -12.476 -21.387  0.00  0.00    +0.004 C 
BRANCH  27  31
ATOM     31  O   UNL     1      33.598 -10.687 -24.255  0.00  0.00    -0.472 OA
BRANCH  31  32
ATOM     32  C   UNL     1      34.365 -11.029 -25.408  0.00  0.00    +0.243 C 
BRANCH  32  34
ATOM     33  F   UNL     1      35.764  -9.452 -24.402  0.00  0.00    -0.230 F 
ATOM     34  C   UNL     1      35.431  -9.977 -25.614  0.00  0.00    +0.240 C 
ENDBRANCH  32  34
ENDBRANCH  31  32
ENDBRANCH  27  31
ENDBRANCH  22  25
ENDBRANCH  20  23
ENDBRANCH  19  20
ENDBRANCH   3  19
TORSDOF 8
ENDMDL
MODEL 7
REMARK VINA RESULT:     -11.4      3.094     10.379
REMARK  Name = 24883488
REMARK  8 active torsions:
REMARK  status: ('A' for Active; 'I' for Inactive)
REMARK    1  A    between atoms: N_2  and  C_11
REMARK    2  A    between atoms: C_3  and  C_19
REMARK    3  A    between atoms: C_19  and  C_20
REMARK    4  A    between atoms: C_20  and  C_23
REMARK    5  A    between atoms: N_22  and  C_25
REMARK    6  A    between atoms: C_27  and  O_31
REMARK    7  A    between atoms: O_31  and  C_32
REMARK    8  A    between atoms: C_32  and  C_34
REMARK                            x       y       z     vdW  Elec       q    Type
REMARK                         _______ _______ _______ _____ _____    ______ ____
ROOT
ATOM      1  O   UNL     1      33.455 -15.411 -24.840  0.00  0.00    -0.275 OA
ATOM      2  N   UNL     1      34.311 -15.032 -22.680  0.00  0.00    -0.284 N 
ATOM      3  C   UNL     1      34.199 -15.697 -23.907  0.00  0.00    +0.227 C 
ATOM      4  H   UNL     1      34.947 -15.421 -22.037  0.00  0.00    +0.155 HD
ENDROOT
BRANCH   2  11
ATOM      5  O   UNL     1      33.512 -10.341 -24.539  0.00  0.00    -0.282 OA
ATOM      6  O   UNL     1      30.969 -10.399 -19.847  0.00  0.00    -0.270 OA
ATOM      7  O   UNL     1      32.221  -8.179 -23.704  0.00  0.00    -0.266 OA
ATOM      8  N   UNL     1      31.590  -9.288 -21.763  0.00  0.00    -0.246 N 
ATOM      9  C   UNL     1      32.950 -11.599 -22.617  0.00  0.00    +0.049 C 
ATOM     10  C   UNL     1      32.280 -11.597 -21.394  0.00  0.00    +0.057 C 
ATOM     11  C   UNL     1      33.637 -13.888 -22.252  0.00  0.00    +0.050 C 
ATOM     12  C   UNL     1      33.631 -12.743 -23.049  0.00  0.00    +0.018 C 
ATOM     13  C   UNL     1      32.290 -12.749 -20.598  0.00  0.00    +0.006 C 
ATOM     14  C   UNL     1      32.968 -13.891 -21.029  0.00  0.00    +0.015 C 
ATOM     15  C   UNL     1      32.945 -10.396 -23.459  0.00  0.00    +0.249 C 
ATOM     16  C   UNL     1      31.559 -10.396 -20.925  0.00  0.00    +0.252 C 
ATOM     17  C   UNL     1      32.216  -9.172 -22.991  0.00  0.00    +0.291 C 
ATOM     18  H   UNL     1      31.108  -8.491 -21.446  0.00  0.00    +0.158 HD
ENDBRANCH   2  11
BRANCH   3  19
ATOM     19  C   UNL     1      35.107 -16.913 -23.990  0.00  0.00    +0.095 C 
BRANCH  19  20
ATOM     20  C   UNL     1      34.352 -18.194 -23.645  0.00  0.00    +0.095 C 
BRANCH  20  23
ATOM     21  O   UNL     1      36.222 -18.855 -22.312  0.00  0.00    -0.275 OA
ATOM     22  N   UNL     1      34.079 -19.617 -21.721  0.00  0.00    -0.284 N 
ATOM     23  C   UNL     1      35.010 -18.931 -22.491  0.00  0.00    +0.227 C 
ATOM     24  H   UNL     1      33.140 -19.543 -22.008  0.00  0.00    +0.155 HD
BRANCH  22  25
ATOM     25  C   UNL     1      34.320 -20.409 -20.575  0.00  0.00    +0.053 C 
ATOM     26  C   UNL     1      33.250 -20.965 -19.874  0.00  0.00    +0.052 C 
ATOM     27  C   UNL     1      33.487 -21.746 -18.742  0.00  0.00    +0.140 C 
ATOM     28  C   UNL     1      35.627 -20.633 -20.144  0.00  0.00    +0.015 C 
ATOM     29  C   UNL     1      34.795 -21.970 -18.312  0.00  0.00    +0.037 C 
ATOM     30  C   UNL     1      35.865 -21.413 -19.013  0.00  0.00    +0.004 C 
BRANCH  27  31
ATOM     31  O   UNL     1      32.443 -22.289 -18.058  0.00  0.00    -0.472 OA
BRANCH  31  32
ATOM     32  C   UNL     1      32.761 -23.171 -16.983  0.00  0.00    +0.243 C 
BRANCH  32  34
ATOM     33  F   UNL     1      30.542 -22.573 -16.563  0.00  0.00    -0.230 F 
ATOM     34  C   UNL     1      31.633 -23.140 -15.976  0.00  0.00    +0.240 C 
ENDBRANCH  32  34
ENDBRANCH  31  32
ENDBRANCH  27  31
ENDBRANCH  22  25
ENDBRANCH  20  23
ENDBRANCH  19  20
ENDBRANCH   3  19
TORSDOF 8
ENDMDL
MODEL 8
REMARK VINA RESULT:     -11.2      3.245     10.488
REMARK  Name = 24883488
REMARK  8 active torsions:
REMARK  status: ('A' for Active; 'I' for Inactive)
REMARK    1  A    between atoms: N_2  and  C_11
REMARK    2  A    between atoms: C_3  and  C_19
REMARK    3  A    between atoms: C_19  and  C_20
REMARK    4  A    between atoms: C_20  and  C_23
REMARK    5  A    between atoms: N_22  and  C_25
REMARK    6  A    between atoms: C_27  and  O_31
REMARK    7  A    between atoms: O_31  and  C_32
REMARK    8  A    between atoms: C_32  and  C_34
REMARK                            x       y       z     vdW  Elec       q    Type
REMARK                         _______ _______ _______ _____ _____    ______ ____
ROOT
ATOM      1  O   UNL     1      33.427 -15.303 -25.059  0.00  0.00    -0.275 OA
ATOM      2  N   UNL     1      34.155 -15.118 -22.827  0.00  0.00    -0.284 N 
ATOM      3  C   UNL     1      34.080 -15.700 -24.099  0.00  0.00    +0.227 C 
ATOM      4  H   UNL     1      34.712 -15.593 -22.170  0.00  0.00    +0.155 HD
ENDROOT
BRANCH   2  11
ATOM      5  O   UNL     1      33.576 -10.357 -24.588  0.00  0.00    -0.282 OA
ATOM      6  O   UNL     1      31.055 -10.387 -19.884  0.00  0.00    -0.270 OA
ATOM      7  O   UNL     1      32.395  -8.153 -23.702  0.00  0.00    -0.266 OA
ATOM      8  N   UNL     1      31.720  -9.269 -21.781  0.00  0.00    -0.246 N 
ATOM      9  C   UNL     1      32.962 -11.626 -22.689  0.00  0.00    +0.049 C 
ATOM     10  C   UNL     1      32.299 -11.616 -21.462  0.00  0.00    +0.057 C 
ATOM     11  C   UNL     1      33.539 -13.952 -22.373  0.00  0.00    +0.050 C 
ATOM     12  C   UNL     1      33.584 -12.792 -23.147  0.00  0.00    +0.018 C 
ATOM     13  C   UNL     1      32.257 -12.782 -20.689  0.00  0.00    +0.006 C 
ATOM     14  C   UNL     1      32.876 -13.947 -21.146  0.00  0.00    +0.015 C 
ATOM     15  C   UNL     1      33.012 -10.407 -23.506  0.00  0.00    +0.249 C 
ATOM     16  C   UNL     1      31.639 -10.391 -20.964  0.00  0.00    +0.252 C 
ATOM     17  C   UNL     1      32.345  -9.159 -23.010  0.00  0.00    +0.291 C 
ATOM     18  H   UNL     1      31.279  -8.456 -21.445  0.00  0.00    +0.158 HD
ENDBRANCH   2  11
BRANCH   3  19
ATOM     19  C   UNL     1      34.899 -16.976 -24.199  0.00  0.00    +0.095 C 
BRANCH  19  20
ATOM     20  C   UNL     1      35.541 -17.329 -22.860  0.00  0.00    +0.095 C 
BRANCH  20  23
ATOM     21  O   UNL     1      34.814 -19.579 -23.210  0.00  0.00    -0.275 OA
ATOM     22  N   UNL     1      35.193 -18.836 -21.013  0.00  0.00    -0.284 N 
ATOM     23  C   UNL     1      35.127 -18.716 -22.396  0.00  0.00    +0.227 C 
ATOM     24  H   UNL     1      35.489 -18.036 -20.521  0.00  0.00    +0.155 HD
BRANCH  22  25
ATOM     25  C   UNL     1      34.885 -19.971 -20.228  0.00  0.00    +0.053 C 
ATOM     26  C   UNL     1      35.893 -20.620 -19.515  0.00  0.00    +0.052 C 
ATOM     27  C   UNL     1      35.589 -21.740 -18.741  0.00  0.00    +0.140 C 
ATOM     28  C   UNL     1      33.574 -20.441 -20.167  0.00  0.00    +0.015 C 
ATOM     29  C   UNL     1      34.276 -22.210 -18.680  0.00  0.00    +0.037 C 
ATOM     30  C   UNL     1      33.269 -21.561 -19.393  0.00  0.00    +0.004 C 
BRANCH  27  31
ATOM     31  O   UNL     1      36.571 -22.375 -18.045  0.00  0.00    -0.472 OA
BRANCH  31  32
ATOM     32  C   UNL     1      37.103 -21.696 -16.908  0.00  0.00    +0.243 C 
BRANCH  32  34
ATOM     33  F   UNL     1      35.912 -23.097 -15.467  0.00  0.00    -0.230 F 
ATOM     34  C   UNL     1      37.173 -22.666 -15.750  0.00  0.00    +0.240 C 
ENDBRANCH  32  34
ENDBRANCH  31  32
ENDBRANCH  27  31
ENDBRANCH  22  25
ENDBRANCH  20  23
ENDBRANCH  19  20
ENDBRANCH   3  19
TORSDOF 8
ENDMDL
MODEL 9
REMARK VINA RESULT:     -11.2      3.364     10.174
REMARK  Name = 24883488
REMARK  8 active torsions:
REMARK  status: ('A' for Active; 'I' for Inactive)
REMARK    1  A    between atoms: N_2  and  C_11
REMARK    2  A    between atoms: C_3  and  C_19
REMARK    3  A    between atoms: C_19  and  C_20
REMARK    4  A    between atoms: C_20  and  C_23
REMARK    5  A    between atoms: N_22  and  C_25
REMARK    6  A    between atoms: C_27  and  O_31
REMARK    7  A    between atoms: O_31  and  C_32
REMARK    8  A    between atoms: C_32  and  C_34
REMARK                            x       y       z     vdW  Elec       q    Type
REMARK                         _______ _______ _______ _____ _____    ______ ____
ROOT
ATOM      1  O   UNL     1      33.804 -16.368 -25.146  0.00  0.00    -0.275 OA
ATOM      2  N   UNL     1      34.396 -15.591 -23.004  0.00  0.00    -0.284 N 
ATOM      3  C   UNL     1      34.323 -16.524 -24.045  0.00  0.00    +0.227 C 
ATOM      4  H   UNL     1      34.831 -15.903 -22.177  0.00  0.00    +0.155 HD
ENDROOT
BRANCH   2  11
ATOM      5  O   UNL     1      31.944 -12.616 -19.651  0.00  0.00    -0.282 OA
ATOM      6  O   UNL     1      32.681  -9.522 -23.936  0.00  0.00    -0.270 OA
ATOM      7  O   UNL     1      31.069 -10.112 -19.644  0.00  0.00    -0.266 OA
ATOM      8  N   UNL     1      31.875  -9.809 -21.801  0.00  0.00    -0.246 N 
ATOM      9  C   UNL     1      32.816 -12.461 -21.844  0.00  0.00    +0.049 C 
ATOM     10  C   UNL     1      33.001 -11.638 -22.955  0.00  0.00    +0.057 C 
ATOM     11  C   UNL     1      33.930 -14.276 -22.987  0.00  0.00    +0.050 C 
ATOM     12  C   UNL     1      33.279 -13.782 -21.857  0.00  0.00    +0.018 C 
ATOM     13  C   UNL     1      33.654 -12.141 -24.087  0.00  0.00    +0.006 C 
ATOM     14  C   UNL     1      34.118 -13.458 -24.100  0.00  0.00    +0.015 C 
ATOM     15  C   UNL     1      32.132 -11.943 -20.652  0.00  0.00    +0.249 C 
ATOM     16  C   UNL     1      32.516 -10.243 -22.956  0.00  0.00    +0.252 C 
ATOM     17  C   UNL     1      31.636 -10.528 -20.644  0.00  0.00    +0.291 C 
ATOM     18  H   UNL     1      31.554  -8.878 -21.806  0.00  0.00    +0.158 HD
ENDBRANCH   2  11
BRANCH   3  19
ATOM     19  C   UNL     1      34.949 -17.858 -23.670  0.00  0.00    +0.095 C 
BRANCH  19  20
ATOM     20  C   UNL     1      36.030 -17.683 -22.607  0.00  0.00    +0.095 C 
BRANCH  20  23
ATOM     21  O   UNL     1      35.688 -17.586 -20.243  0.00  0.00    -0.275 OA
ATOM     22  N   UNL     1      35.062 -19.532 -21.403  0.00  0.00    -0.284 N 
ATOM     23  C   UNL     1      35.588 -18.252 -21.269  0.00  0.00    +0.227 C 
ATOM     24  H   UNL     1      35.042 -19.899 -22.317  0.00  0.00    +0.155 HD
BRANCH  22  25
ATOM     25  C   UNL     1      34.553 -20.369 -20.385  0.00  0.00    +0.053 C 
ATOM     26  C   UNL     1      35.428 -21.038 -19.528  0.00  0.00    +0.052 C 
ATOM     27  C   UNL     1      34.925 -21.864 -18.523  0.00  0.00    +0.140 C 
ATOM     28  C   UNL     1      33.175 -20.526 -20.236  0.00  0.00    +0.015 C 
ATOM     29  C   UNL     1      33.546 -22.021 -18.375  0.00  0.00    +0.037 C 
ATOM     30  C   UNL     1      32.671 -21.352 -19.231  0.00  0.00    +0.004 C 
BRANCH  27  31
ATOM     31  O   UNL     1      35.778 -22.517 -17.688  0.00  0.00    -0.472 OA
BRANCH  31  32
ATOM     32  C   UNL     1      36.983 -21.841 -17.333  0.00  0.00    +0.243 C 
BRANCH  32  34
ATOM     33  F   UNL     1      36.709 -23.404 -15.618  0.00  0.00    -0.230 F 
ATOM     34  C   UNL     1      37.391 -22.270 -15.941  0.00  0.00    +0.240 C 
ENDBRANCH  32  34
ENDBRANCH  31  32
ENDBRANCH  27  31
ENDBRANCH  22  25
ENDBRANCH  20  23
ENDBRANCH  19  20
ENDBRANCH   3  19
TORSDOF 8
ENDMDL
