MODEL 1
REMARK VINA RESULT:     -13.3      0.000      0.000
REMARK  Name = 25171648
REMARK  8 active torsions:
REMARK  status: ('A' for Active; 'I' for Inactive)
REMARK    1  A    between atoms: C_1  and  C_12
REMARK    2  A    between atoms: C_2  and  C_23
REMARK    3  A    between atoms: C_9  and  O_13
REMARK    4  A    between atoms: O_13  and  C_14
REMARK    5  A    between atoms: C_14  and  C_16
REMARK    6  A    between atoms: C_23  and  N_25
REMARK    7  A    between atoms: C_27  and  C_31
REMARK    8  A    between atoms: C_34  and  C_38
REMARK                            x       y       z     vdW  Elec       q    Type
REMARK                         _______ _______ _______ _____ _____    ______ ____
ROOT
ATOM      1  C   UNL     1      35.326 -20.417 -19.873  0.00  0.00    +0.062 C 
ATOM      2  C   UNL     1      34.244 -22.173 -18.614  0.00  0.00    +0.000 C 
ATOM      3  C   UNL     1      34.192 -21.179 -19.592  0.00  0.00    +0.007 C 
ATOM      4  C   UNL     1      36.512 -20.649 -19.175  0.00  0.00    +0.010 C 
ATOM      5  C   UNL     1      35.429 -22.404 -17.917  0.00  0.00    -0.003 C 
ATOM      6  C   UNL     1      36.564 -21.643 -18.199  0.00  0.00    +0.000 C 
ENDROOT
BRANCH   1  12
ATOM      7  N   UNL     1      35.766 -18.186 -20.541  0.00  0.00    -0.212 NA
ATOM      8  N   UNL     1      34.735 -19.741 -22.066  0.00  0.00    -0.190 NA
ATOM      9  C   UNL     1      35.173 -17.479 -22.764  0.00  0.00    +0.161 C 
ATOM     10  C   UNL     1      35.700 -17.250 -21.510  0.00  0.00    +0.201 C 
ATOM     11  C   UNL     1      34.701 -18.757 -22.988  0.00  0.00    +0.144 C 
ATOM     12  C   UNL     1      35.273 -19.391 -20.882  0.00  0.00    +0.031 C 
BRANCH   9  13
ATOM     13  O   UNL     1      35.123 -16.501 -23.727  0.00  0.00    -0.476 OA
BRANCH  13  14
ATOM     14  C   UNL     1      33.873 -16.275 -24.350  0.00  0.00    +0.205 C 
BRANCH  14  16
ATOM     15  N   UNL     1      34.164 -11.987 -23.917  0.00  0.00    +0.386 N 
ATOM     16  C   UNL     1      33.460 -14.828 -24.100  0.00  0.00    +0.040 C 
ATOM     17  C   UNL     1      33.714 -13.961 -25.339  0.00  0.00    -0.019 C 
ATOM     18  C   UNL     1      34.205 -14.241 -22.897  0.00  0.00    -0.019 C 
ATOM     19  C   UNL     1      33.396 -12.490 -25.065  0.00  0.00    -0.077 C 
ATOM     20  C   UNL     1      33.870 -12.760 -22.703  0.00  0.00    -0.077 C 
ATOM     21  C   UNL     1      33.888 -10.567 -23.700  0.00  0.00    -0.101 C 
ATOM     22  H   UNL     1      35.155 -12.099 -24.129  0.00  0.00    -0.080 HD
ENDBRANCH  14  16
ENDBRANCH  13  14
ENDBRANCH   9  13
ENDBRANCH   1  12
BRANCH   2  23
ATOM     23  C   UNL     1      33.031 -22.988 -18.314  0.00  0.00    +0.146 C 
BRANCH  23  25
ATOM     24  O   UNL     1      30.568 -22.365 -16.987  0.00  0.00    -0.268 OA
ATOM     25  N   UNL     1      32.774 -23.090 -16.887  0.00  0.00    -0.173 N 
ATOM     26  N   UNL     1      33.837 -23.517 -16.143  0.00  0.00    -0.175 NA
ATOM     27  C   UNL     1      33.684 -23.625 -14.863  0.00  0.00    +0.099 C 
ATOM     28  C   UNL     1      31.540 -22.764 -16.345  0.00  0.00    +0.268 C 
ATOM     29  C   UNL     1      32.428 -23.341 -14.144  0.00  0.00    +0.025 C 
ATOM     30  C   UNL     1      31.401 -22.923 -14.882  0.00  0.00    +0.061 C 
BRANCH  27  31
ATOM     31  C   UNL     1      34.836 -24.085 -14.041  0.00  0.00    +0.020 C 
ATOM     32  C   UNL     1      34.710 -24.182 -12.655  0.00  0.00    +0.012 C 
ATOM     33  C   UNL     1      36.042 -24.420 -14.658  0.00  0.00    +0.002 C 
ATOM     34  C   UNL     1      35.791 -24.613 -11.886  0.00  0.00    +0.068 C 
ATOM     35  C   UNL     1      37.123 -24.852 -13.889  0.00  0.00    +0.001 C 
ATOM     36  C   UNL     1      36.997 -24.949 -12.503  0.00  0.00    +0.010 C 
BRANCH  34  38
ATOM     37  N   UNL     1      35.560 -24.792  -9.313  0.00  0.00    -0.191 NA
ATOM     38  C   UNL     1      35.664 -24.712 -10.466  0.00  0.00    +0.100 C 
ENDBRANCH  34  38
ENDBRANCH  27  31
ENDBRANCH  23  25
ENDBRANCH   2  23
TORSDOF 8
ENDMDL
MODEL 2
REMARK VINA RESULT:     -13.2      1.227      1.816
REMARK  Name = 25171648
REMARK  8 active torsions:
REMARK  status: ('A' for Active; 'I' for Inactive)
REMARK    1  A    between atoms: C_1  and  C_12
REMARK    2  A    between atoms: C_2  and  C_23
REMARK    3  A    between atoms: C_9  and  O_13
REMARK    4  A    between atoms: O_13  and  C_14
REMARK    5  A    between atoms: C_14  and  C_16
REMARK    6  A    between atoms: C_23  and  N_25
REMARK    7  A    between atoms: C_27  and  C_31
REMARK    8  A    between atoms: C_34  and  C_38
REMARK                            x       y       z     vdW  Elec       q    Type
REMARK                         _______ _______ _______ _____ _____    ______ ____
ROOT
ATOM      1  C   UNL     1      35.260 -19.895 -20.279  0.00  0.00    +0.062 C 
ATOM      2  C   UNL     1      34.124 -21.670 -19.097  0.00  0.00    +0.000 C 
ATOM      3  C   UNL     1      34.077 -20.523 -19.891  0.00  0.00    +0.007 C 
ATOM      4  C   UNL     1      36.490 -20.412 -19.873  0.00  0.00    +0.010 C 
ATOM      5  C   UNL     1      35.355 -22.187 -18.691  0.00  0.00    -0.003 C 
ATOM      6  C   UNL     1      36.537 -21.559 -19.080  0.00  0.00    +0.000 C 
ENDROOT
BRANCH   1  12
ATOM      7  N   UNL     1      35.016 -18.901 -22.416  0.00  0.00    -0.212 NA
ATOM      8  N   UNL     1      35.365 -17.534 -20.463  0.00  0.00    -0.190 NA
ATOM      9  C   UNL     1      35.119 -16.505 -22.625  0.00  0.00    +0.161 C 
ATOM     10  C   UNL     1      34.975 -17.772 -23.153  0.00  0.00    +0.201 C 
ATOM     11  C   UNL     1      35.313 -16.447 -21.260  0.00  0.00    +0.144 C 
ATOM     12  C   UNL     1      35.211 -18.712 -21.098  0.00  0.00    +0.031 C 
BRANCH   9  13
ATOM     13  O   UNL     1      35.071 -15.377 -23.407  0.00  0.00    -0.476 OA
BRANCH  13  14
ATOM     14  C   UNL     1      33.793 -14.834 -23.675  0.00  0.00    +0.205 C 
BRANCH  14  16
ATOM     15  N   UNL     1      32.273 -10.936 -22.601  0.00  0.00    +0.386 N 
ATOM     16  C   UNL     1      33.690 -13.473 -22.993  0.00  0.00    +0.040 C 
ATOM     17  C   UNL     1      32.403 -13.368 -22.165  0.00  0.00    -0.019 C 
ATOM     18  C   UNL     1      33.739 -12.336 -24.019  0.00  0.00    -0.019 C 
ATOM     19  C   UNL     1      32.243 -11.972 -21.559  0.00  0.00    -0.077 C 
ATOM     20  C   UNL     1      33.535 -10.974 -23.351  0.00  0.00    -0.077 C 
ATOM     21  C   UNL     1      32.067  -9.612 -22.012  0.00  0.00    -0.101 C 
ATOM     22  H   UNL     1      31.512 -11.125 -23.254  0.00  0.00    -0.080 HD
ENDBRANCH  14  16
ENDBRANCH  13  14
ENDBRANCH   9  13
ENDBRANCH   1  12
BRANCH   2  23
ATOM     23  C   UNL     1      32.860 -22.343 -18.681  0.00  0.00    +0.146 C 
BRANCH  23  25
ATOM     24  O   UNL     1      30.588 -22.452 -16.937  0.00  0.00    -0.268 OA
ATOM     25  N   UNL     1      32.871 -22.722 -17.278  0.00  0.00    -0.173 N 
ATOM     26  N   UNL     1      34.103 -23.038 -16.781  0.00  0.00    -0.175 NA
ATOM     27  C   UNL     1      34.192 -23.379 -15.535  0.00  0.00    +0.099 C 
ATOM     28  C   UNL     1      31.709 -22.744 -16.521  0.00  0.00    +0.268 C 
ATOM     29  C   UNL     1      33.046 -23.474 -14.612  0.00  0.00    +0.025 C 
ATOM     30  C   UNL     1      31.852 -23.160 -15.109  0.00  0.00    +0.061 C 
BRANCH  27  31
ATOM     31  C   UNL     1      35.529 -23.721 -14.981  0.00  0.00    +0.020 C 
ATOM     32  C   UNL     1      35.634 -24.599 -13.902  0.00  0.00    +0.012 C 
ATOM     33  C   UNL     1      36.679 -23.164 -15.542  0.00  0.00    +0.002 C 
ATOM     34  C   UNL     1      36.889 -24.919 -13.384  0.00  0.00    +0.068 C 
ATOM     35  C   UNL     1      37.934 -23.484 -15.023  0.00  0.00    +0.001 C 
ATOM     36  C   UNL     1      38.039 -24.362 -13.945  0.00  0.00    +0.010 C 
BRANCH  34  38
ATOM     37  N   UNL     1      37.085 -26.548 -11.380  0.00  0.00    -0.191 NA
ATOM     38  C   UNL     1      36.997 -25.818 -12.278  0.00  0.00    +0.100 C 
ENDBRANCH  34  38
ENDBRANCH  27  31
ENDBRANCH  23  25
ENDBRANCH   2  23
TORSDOF 8
ENDMDL
MODEL 3
REMARK VINA RESULT:     -12.9      4.247      9.119
REMARK  Name = 25171648
REMARK  8 active torsions:
REMARK  status: ('A' for Active; 'I' for Inactive)
REMARK    1  A    between atoms: C_1  and  C_12
REMARK    2  A    between atoms: C_2  and  C_23
REMARK    3  A    between atoms: C_9  and  O_13
REMARK    4  A    between atoms: O_13  and  C_14
REMARK    5  A    between atoms: C_14  and  C_16
REMARK    6  A    between atoms: C_23  and  N_25
REMARK    7  A    between atoms: C_27  and  C_31
REMARK    8  A    between atoms: C_34  and  C_38
REMARK                            x       y       z     vdW  Elec       q    Type
REMARK                         _______ _______ _______ _____ _____    ______ ____
ROOT
ATOM      1  C   UNL     1      33.082 -12.504 -21.931  0.00  0.00    +0.062 C 
ATOM      2  C   UNL     1      34.364 -14.536 -22.188  0.00  0.00    +0.000 C 
ATOM      3  C   UNL     1      33.997 -13.271 -22.651  0.00  0.00    +0.007 C 
ATOM      4  C   UNL     1      32.533 -13.001 -20.749  0.00  0.00    +0.010 C 
ATOM      5  C   UNL     1      33.815 -15.032 -21.006  0.00  0.00    -0.003 C 
ATOM      6  C   UNL     1      32.900 -14.264 -20.286  0.00  0.00    +0.000 C 
ENDROOT
BRANCH   1  12
ATOM      7  N   UNL     1      33.377 -10.732 -23.476  0.00  0.00    -0.212 NA
ATOM      8  N   UNL     1      31.712 -10.578 -21.741  0.00  0.00    -0.190 NA
ATOM      9  C   UNL     1      31.997  -8.767 -23.300  0.00  0.00    +0.161 C 
ATOM     10  C   UNL     1      32.997  -9.507 -23.897  0.00  0.00    +0.201 C 
ATOM     11  C   UNL     1      31.383  -9.359 -22.215  0.00  0.00    +0.144 C 
ATOM     12  C   UNL     1      32.703 -11.199 -22.409  0.00  0.00    +0.031 C 
BRANCH   9  13
ATOM     13  O   UNL     1      31.636  -7.524 -23.756  0.00  0.00    -0.476 OA
BRANCH  13  14
ATOM     14  C   UNL     1      32.681  -6.613 -24.040  0.00  0.00    +0.205 C 
BRANCH  14  16
ATOM     15  N   UNL     1      30.662  -3.067 -22.624  0.00  0.00    +0.386 N 
ATOM     16  C   UNL     1      32.422  -5.321 -23.271  0.00  0.00    +0.040 C 
ATOM     17  C   UNL     1      31.208  -5.464 -22.347  0.00  0.00    -0.019 C 
ATOM     18  C   UNL     1      32.208  -4.143 -24.227  0.00  0.00    -0.019 C 
ATOM     19  C   UNL     1      30.881  -4.143 -21.647  0.00  0.00    -0.077 C 
ATOM     20  C   UNL     1      31.849  -2.865 -23.465  0.00  0.00    -0.077 C 
ATOM     21  C   UNL     1      30.301  -1.824 -21.942  0.00  0.00    -0.101 C 
ATOM     22  H   UNL     1      29.890  -3.344 -23.229  0.00  0.00    -0.080 HD
ENDBRANCH  14  16
ENDBRANCH  13  14
ENDBRANCH   9  13
ENDBRANCH   1  12
BRANCH   2  23
ATOM     23  C   UNL     1      35.343 -15.357 -22.958  0.00  0.00    +0.146 C 
BRANCH  23  25
ATOM     24  O   UNL     1      33.964 -16.417 -25.235  0.00  0.00    -0.268 OA
ATOM     25  N   UNL     1      34.897 -16.730 -23.130  0.00  0.00    -0.173 N 
ATOM     26  N   UNL     1      35.173 -17.557 -22.079  0.00  0.00    -0.175 NA
ATOM     27  C   UNL     1      34.799 -18.793 -22.158  0.00  0.00    +0.099 C 
ATOM     28  C   UNL     1      34.237 -17.141 -24.278  0.00  0.00    +0.268 C 
ATOM     29  C   UNL     1      34.112 -19.385 -23.322  0.00  0.00    +0.025 C 
ATOM     30  C   UNL     1      33.847 -18.566 -24.338  0.00  0.00    +0.061 C 
BRANCH  27  31
ATOM     31  C   UNL     1      35.089 -19.703 -21.018  0.00  0.00    +0.020 C 
ATOM     32  C   UNL     1      34.044 -20.351 -20.359  0.00  0.00    +0.012 C 
ATOM     33  C   UNL     1      36.406 -19.909 -20.609  0.00  0.00    +0.002 C 
ATOM     34  C   UNL     1      34.318 -21.204 -19.289  0.00  0.00    +0.068 C 
ATOM     35  C   UNL     1      36.680 -20.763 -19.540  0.00  0.00    +0.001 C 
ATOM     36  C   UNL     1      35.635 -21.411 -18.880  0.00  0.00    +0.010 C 
BRANCH  34  38
ATOM     37  N   UNL     1      32.379 -22.406 -18.063  0.00  0.00    -0.191 NA
ATOM     38  C   UNL     1      33.248 -21.868 -18.612  0.00  0.00    +0.100 C 
ENDBRANCH  34  38
ENDBRANCH  27  31
ENDBRANCH  23  25
ENDBRANCH   2  23
TORSDOF 8
ENDMDL
MODEL 4
REMARK VINA RESULT:     -12.9      3.977     14.179
REMARK  Name = 25171648
REMARK  8 active torsions:
REMARK  status: ('A' for Active; 'I' for Inactive)
REMARK    1  A    between atoms: C_1  and  C_12
REMARK    2  A    between atoms: C_2  and  C_23
REMARK    3  A    between atoms: C_9  and  O_13
REMARK    4  A    between atoms: O_13  and  C_14
REMARK    5  A    between atoms: C_14  and  C_16
REMARK    6  A    between atoms: C_23  and  N_25
REMARK    7  A    between atoms: C_27  and  C_31
REMARK    8  A    between atoms: C_34  and  C_38
REMARK                            x       y       z     vdW  Elec       q    Type
REMARK                         _______ _______ _______ _____ _____    ______ ____
ROOT
ATOM      1  C   UNL     1      33.780 -13.542 -22.656  0.00  0.00    +0.062 C 
ATOM      2  C   UNL     1      32.316 -11.682 -22.172  0.00  0.00    +0.000 C 
ATOM      3  C   UNL     1      32.850 -12.922 -21.822  0.00  0.00    +0.007 C 
ATOM      4  C   UNL     1      34.176 -12.921 -23.841  0.00  0.00    +0.010 C 
ATOM      5  C   UNL     1      32.713 -11.061 -23.357  0.00  0.00    -0.003 C 
ATOM      6  C   UNL     1      33.644 -11.681 -24.190  0.00  0.00    +0.000 C 
ENDROOT
BRANCH   1  12
ATOM      7  N   UNL     1      34.466 -15.068 -20.978  0.00  0.00    -0.212 NA
ATOM      8  N   UNL     1      34.655 -15.646 -23.310  0.00  0.00    -0.190 NA
ATOM      9  C   UNL     1      35.357 -17.210 -21.621  0.00  0.00    +0.161 C 
ATOM     10  C   UNL     1      34.984 -16.276 -20.675  0.00  0.00    +0.201 C 
ATOM     11  C   UNL     1      35.167 -16.836 -22.936  0.00  0.00    +0.144 C 
ATOM     12  C   UNL     1      34.331 -14.822 -22.294  0.00  0.00    +0.031 C 
BRANCH   9  13
ATOM     13  O   UNL     1      35.881 -18.431 -21.276  0.00  0.00    -0.476 OA
BRANCH  13  14
ATOM     14  C   UNL     1      35.067 -19.567 -21.497  0.00  0.00    +0.205 C 
BRANCH  14  16
ATOM     15  N   UNL     1      33.885 -22.489 -18.544  0.00  0.00    +0.386 N 
ATOM     16  C   UNL     1      34.696 -20.171 -20.146  0.00  0.00    +0.040 C 
ATOM     17  C   UNL     1      35.675 -21.284 -19.754  0.00  0.00    -0.019 C 
ATOM     18  C   UNL     1      33.267 -20.722 -20.162  0.00  0.00    -0.019 C 
ATOM     19  C   UNL     1      35.254 -21.962 -18.449  0.00  0.00    -0.077 C 
ATOM     20  C   UNL     1      32.924 -21.419 -18.843  0.00  0.00    -0.077 C 
ATOM     21  C   UNL     1      33.515 -23.179 -17.308  0.00  0.00    -0.101 C 
ATOM     22  H   UNL     1      33.859 -23.159 -19.313  0.00  0.00    -0.080 HD
ENDBRANCH  14  16
ENDBRANCH  13  14
ENDBRANCH   9  13
ENDBRANCH   1  12
BRANCH   2  23
ATOM     23  C   UNL     1      31.321 -11.018 -21.281  0.00  0.00    +0.146 C 
BRANCH  23  25
ATOM     24  O   UNL     1      31.534 -10.219 -18.537  0.00  0.00    -0.268 OA
ATOM     25  N   UNL     1      31.786  -9.730 -20.795  0.00  0.00    -0.173 N 
ATOM     26  N   UNL     1      32.136  -8.843 -21.772  0.00  0.00    -0.175 NA
ATOM     27  C   UNL     1      32.554  -7.671 -21.414  0.00  0.00    +0.099 C 
ATOM     28  C   UNL     1      31.853  -9.445 -19.439  0.00  0.00    +0.268 C 
ATOM     29  C   UNL     1      32.704  -7.230 -20.015  0.00  0.00    +0.025 C 
ATOM     30  C   UNL     1      32.357  -8.105 -19.073  0.00  0.00    +0.061 C 
BRANCH  27  31
ATOM     31  C   UNL     1      32.932  -6.694 -22.469  0.00  0.00    +0.020 C 
ATOM     32  C   UNL     1      32.035  -5.698 -22.853  0.00  0.00    +0.012 C 
ATOM     33  C   UNL     1      34.187  -6.773 -23.074  0.00  0.00    +0.002 C 
ATOM     34  C   UNL     1      32.392  -4.781 -23.842  0.00  0.00    +0.068 C 
ATOM     35  C   UNL     1      34.544  -5.857 -24.063  0.00  0.00    +0.001 C 
ATOM     36  C   UNL     1      33.647  -4.860 -24.447  0.00  0.00    +0.010 C 
BRANCH  34  38
ATOM     37  N   UNL     1      30.725  -2.932 -24.558  0.00  0.00    -0.191 NA
ATOM     38  C   UNL     1      31.472  -3.761 -24.237  0.00  0.00    +0.100 C 
ENDBRANCH  34  38
ENDBRANCH  27  31
ENDBRANCH  23  25
ENDBRANCH   2  23
TORSDOF 8
ENDMDL
MODEL 5
REMARK VINA RESULT:     -12.9      4.249      8.841
REMARK  Name = 25171648
REMARK  8 active torsions:
REMARK  status: ('A' for Active; 'I' for Inactive)
REMARK    1  A    between atoms: C_1  and  C_12
REMARK    2  A    between atoms: C_2  and  C_23
REMARK    3  A    between atoms: C_9  and  O_13
REMARK    4  A    between atoms: O_13  and  C_14
REMARK    5  A    between atoms: C_14  and  C_16
REMARK    6  A    between atoms: C_23  and  N_25
REMARK    7  A    between atoms: C_27  and  C_31
REMARK    8  A    between atoms: C_34  and  C_38
REMARK                            x       y       z     vdW  Elec       q    Type
REMARK                         _______ _______ _______ _____ _____    ______ ____
ROOT
ATOM      1  C   UNL     1      33.049 -12.507 -21.875  0.00  0.00    +0.062 C 
ATOM      2  C   UNL     1      34.342 -14.528 -22.166  0.00  0.00    +0.000 C 
ATOM      3  C   UNL     1      33.958 -13.263 -22.615  0.00  0.00    +0.007 C 
ATOM      4  C   UNL     1      32.524 -13.016 -20.687  0.00  0.00    +0.010 C 
ATOM      5  C   UNL     1      33.816 -15.035 -20.978  0.00  0.00    -0.003 C 
ATOM      6  C   UNL     1      32.908 -14.279 -20.238  0.00  0.00    +0.000 C 
ENDROOT
BRANCH   1  12
ATOM      7  N   UNL     1      31.598 -10.640 -21.720  0.00  0.00    -0.212 NA
ATOM      8  N   UNL     1      33.380 -10.676 -23.342  0.00  0.00    -0.190 NA
ATOM      9  C   UNL     1      31.917  -8.769 -23.202  0.00  0.00    +0.161 C 
ATOM     10  C   UNL     1      31.255  -9.418 -22.179  0.00  0.00    +0.201 C 
ATOM     11  C   UNL     1      32.983  -9.453 -23.751  0.00  0.00    +0.144 C 
ATOM     12  C   UNL     1      32.654 -11.203 -22.338  0.00  0.00    +0.031 C 
BRANCH   9  13
ATOM     13  O   UNL     1      31.540  -7.525 -23.642  0.00  0.00    -0.476 OA
BRANCH  13  14
ATOM     14  C   UNL     1      32.010  -6.412 -22.906  0.00  0.00    +0.205 C 
BRANCH  14  16
ATOM     15  N   UNL     1      34.175  -5.062 -26.391  0.00  0.00    +0.386 N 
ATOM     16  C   UNL     1      32.772  -5.489 -23.852  0.00  0.00    +0.040 C 
ATOM     17  C   UNL     1      32.032  -5.334 -25.185  0.00  0.00    -0.019 C 
ATOM     18  C   UNL     1      34.191  -6.009 -24.105  0.00  0.00    -0.019 C 
ATOM     19  C   UNL     1      32.838  -4.491 -26.175  0.00  0.00    -0.077 C 
ATOM     20  C   UNL     1      34.926  -5.143 -25.131  0.00  0.00    -0.077 C 
ATOM     21  C   UNL     1      34.914  -4.274 -27.378  0.00  0.00    -0.101 C 
ATOM     22  H   UNL     1      34.058  -6.009 -26.750  0.00  0.00    -0.080 HD
ENDBRANCH  14  16
ENDBRANCH  13  14
ENDBRANCH   9  13
ENDBRANCH   1  12
BRANCH   2  23
ATOM     23  C   UNL     1      35.314 -15.337 -22.956  0.00  0.00    +0.146 C 
BRANCH  23  25
ATOM     24  O   UNL     1      33.932 -16.404 -25.230  0.00  0.00    -0.268 OA
ATOM     25  N   UNL     1      34.876 -16.712 -23.128  0.00  0.00    -0.173 N 
ATOM     26  N   UNL     1      35.162 -17.539 -22.079  0.00  0.00    -0.175 NA
ATOM     27  C   UNL     1      34.795 -18.778 -22.158  0.00  0.00    +0.099 C 
ATOM     28  C   UNL     1      34.214 -17.127 -24.274  0.00  0.00    +0.268 C 
ATOM     29  C   UNL     1      34.107 -19.372 -23.320  0.00  0.00    +0.025 C 
ATOM     30  C   UNL     1      33.833 -18.554 -24.334  0.00  0.00    +0.061 C 
BRANCH  27  31
ATOM     31  C   UNL     1      35.095 -19.687 -21.020  0.00  0.00    +0.020 C 
ATOM     32  C   UNL     1      34.058 -20.348 -20.362  0.00  0.00    +0.012 C 
ATOM     33  C   UNL     1      36.416 -19.879 -20.612  0.00  0.00    +0.002 C 
ATOM     34  C   UNL     1      34.342 -21.200 -19.295  0.00  0.00    +0.068 C 
ATOM     35  C   UNL     1      36.699 -20.732 -19.545  0.00  0.00    +0.001 C 
ATOM     36  C   UNL     1      35.662 -21.393 -18.887  0.00  0.00    +0.010 C 
BRANCH  34  38
ATOM     37  N   UNL     1      32.417 -22.427 -18.071  0.00  0.00    -0.191 NA
ATOM     38  C   UNL     1      33.280 -21.877 -18.619  0.00  0.00    +0.100 C 
ENDBRANCH  34  38
ENDBRANCH  27  31
ENDBRANCH  23  25
ENDBRANCH   2  23
TORSDOF 8
ENDMDL
MODEL 6
REMARK VINA RESULT:     -12.7      2.093      3.894
REMARK  Name = 25171648
REMARK  8 active torsions:
REMARK  status: ('A' for Active; 'I' for Inactive)
REMARK    1  A    between atoms: C_1  and  C_12
REMARK    2  A    between atoms: C_2  and  C_23
REMARK    3  A    between atoms: C_9  and  O_13
REMARK    4  A    between atoms: O_13  and  C_14
REMARK    5  A    between atoms: C_14  and  C_16
REMARK    6  A    between atoms: C_23  and  N_25
REMARK    7  A    between atoms: C_27  and  C_31
REMARK    8  A    between atoms: C_34  and  C_38
REMARK                            x       y       z     vdW  Elec       q    Type
REMARK                         _______ _______ _______ _____ _____    ______ ____
ROOT
ATOM      1  C   UNL     1      34.530 -20.499 -20.026  0.00  0.00    +0.062 C 
ATOM      2  C   UNL     1      35.455 -21.907 -18.294  0.00  0.00    +0.000 C 
ATOM      3  C   UNL     1      35.631 -20.962 -19.306  0.00  0.00    +0.007 C 
ATOM      4  C   UNL     1      33.254 -20.982 -19.735  0.00  0.00    +0.010 C 
ATOM      5  C   UNL     1      34.179 -22.389 -18.003  0.00  0.00    -0.003 C 
ATOM      6  C   UNL     1      33.078 -21.925 -18.723  0.00  0.00    +0.000 C 
ENDROOT
BRANCH   1  12
ATOM      7  N   UNL     1      34.185 -19.826 -22.271  0.00  0.00    -0.212 NA
ATOM      8  N   UNL     1      35.388 -18.408 -20.739  0.00  0.00    -0.190 NA
ATOM      9  C   UNL     1      35.049 -17.705 -23.016  0.00  0.00    +0.161 C 
ATOM     10  C   UNL     1      34.373 -18.890 -23.226  0.00  0.00    +0.201 C 
ATOM     11  C   UNL     1      35.539 -17.516 -21.739  0.00  0.00    +0.144 C 
ATOM     12  C   UNL     1      34.711 -19.524 -21.070  0.00  0.00    +0.031 C 
BRANCH   9  13
ATOM     13  O   UNL     1      35.221 -16.775 -24.011  0.00  0.00    -0.476 OA
BRANCH  13  14
ATOM     14  C   UNL     1      34.063 -16.106 -24.473  0.00  0.00    +0.205 C 
BRANCH  14  16
ATOM     15  N   UNL     1      33.050 -12.024 -23.489  0.00  0.00    +0.386 N 
ATOM     16  C   UNL     1      34.226 -14.612 -24.208  0.00  0.00    +0.040 C 
ATOM     17  C   UNL     1      33.823 -14.262 -22.771  0.00  0.00    -0.019 C 
ATOM     18  C   UNL     1      33.397 -13.783 -25.194  0.00  0.00    -0.019 C 
ATOM     19  C   UNL     1      33.887 -12.753 -22.526  0.00  0.00    -0.077 C 
ATOM     20  C   UNL     1      33.477 -12.289 -24.870  0.00  0.00    -0.077 C 
ATOM     21  C   UNL     1      33.082 -10.588 -23.210  0.00  0.00    -0.101 C 
ATOM     22  H   UNL     1      32.092 -12.356 -23.386  0.00  0.00    -0.080 HD
ENDBRANCH  14  16
ENDBRANCH  13  14
ENDBRANCH   9  13
ENDBRANCH   1  12
BRANCH   2  23
ATOM     23  C   UNL     1      36.633 -22.403 -17.523  0.00  0.00    +0.146 C 
BRANCH  23  25
ATOM     24  O   UNL     1      38.426 -22.545 -15.293  0.00  0.00    -0.268 OA
ATOM     25  N   UNL     1      36.284 -22.779 -16.164  0.00  0.00    -0.173 N 
ATOM     26  N   UNL     1      34.969 -23.096 -15.977  0.00  0.00    -0.175 NA
ATOM     27  C   UNL     1      34.586 -23.448 -14.792  0.00  0.00    +0.099 C 
ATOM     28  C   UNL     1      37.233 -22.813 -15.152  0.00  0.00    +0.268 C 
ATOM     29  C   UNL     1      35.470 -23.508 -13.612  0.00  0.00    +0.025 C 
ATOM     30  C   UNL     1      36.749 -23.198 -13.810  0.00  0.00    +0.061 C 
BRANCH  27  31
ATOM     31  C   UNL     1      33.157 -23.801 -14.577  0.00  0.00    +0.020 C 
ATOM     32  C   UNL     1      32.164 -23.190 -15.343  0.00  0.00    +0.012 C 
ATOM     33  C   UNL     1      32.810 -24.744 -13.609  0.00  0.00    +0.002 C 
ATOM     34  C   UNL     1      30.825 -23.523 -15.141  0.00  0.00    +0.068 C 
ATOM     35  C   UNL     1      31.471 -25.076 -13.407  0.00  0.00    +0.001 C 
ATOM     36  C   UNL     1      30.478 -24.466 -14.173  0.00  0.00    +0.010 C 
BRANCH  34  38
ATOM     37  N   UNL     1      28.980 -22.389 -16.561  0.00  0.00    -0.191 NA
ATOM     38  C   UNL     1      29.807 -22.897 -15.925  0.00  0.00    +0.100 C 
ENDBRANCH  34  38
ENDBRANCH  27  31
ENDBRANCH  23  25
ENDBRANCH   2  23
TORSDOF 8
ENDMDL
MODEL 7
REMARK VINA RESULT:     -12.2      1.570      2.104
REMARK  Name = 25171648
REMARK  8 active torsions:
REMARK  status: ('A' for Active; 'I' for Inactive)
REMARK    1  A    between atoms: C_1  and  C_12
REMARK    2  A    between atoms: C_2  and  C_23
REMARK    3  A    between atoms: C_9  and  O_13
REMARK    4  A    between atoms: O_13  and  C_14
REMARK    5  A    between atoms: C_14  and  C_16
REMARK    6  A    between atoms: C_23  and  N_25
REMARK    7  A    between atoms: C_27  and  C_31
REMARK    8  A    between atoms: C_34  and  C_38
REMARK                            x       y       z     vdW  Elec       q    Type
REMARK                         _______ _______ _______ _____ _____    ______ ____
ROOT
ATOM      1  C   UNL     1      35.430 -20.990 -19.201  0.00  0.00    +0.062 C 
ATOM      2  C   UNL     1      34.386 -22.646 -17.785  0.00  0.00    +0.000 C 
ATOM      3  C   UNL     1      34.323 -21.771 -18.871  0.00  0.00    +0.007 C 
ATOM      4  C   UNL     1      36.599 -21.082 -18.445  0.00  0.00    +0.010 C 
ATOM      5  C   UNL     1      35.555 -22.738 -17.030  0.00  0.00    -0.003 C 
ATOM      6  C   UNL     1      36.662 -21.957 -17.361  0.00  0.00    +0.000 C 
ENDROOT
BRANCH   1  12
ATOM      7  N   UNL     1      34.318 -20.236 -21.153  0.00  0.00    -0.212 NA
ATOM      8  N   UNL     1      36.360 -19.184 -20.423  0.00  0.00    -0.190 NA
ATOM      9  C   UNL     1      35.246 -18.404 -22.409  0.00  0.00    +0.161 C 
ATOM     10  C   UNL     1      34.289 -19.374 -22.191  0.00  0.00    +0.201 C 
ATOM     11  C   UNL     1      36.268 -18.355 -21.483  0.00  0.00    +0.144 C 
ATOM     12  C   UNL     1      35.366 -20.087 -20.321  0.00  0.00    +0.031 C 
BRANCH   9  13
ATOM     13  O   UNL     1      35.184 -17.543 -23.477  0.00  0.00    -0.476 OA
BRANCH  13  14
ATOM     14  C   UNL     1      35.543 -16.195 -23.239  0.00  0.00    +0.205 C 
BRANCH  14  16
ATOM     15  N   UNL     1      33.047 -12.940 -21.888  0.00  0.00    +0.386 N 
ATOM     16  C   UNL     1      34.309 -15.440 -22.755  0.00  0.00    +0.040 C 
ATOM     17  C   UNL     1      33.924 -14.328 -23.738  0.00  0.00    -0.019 C 
ATOM     18  C   UNL     1      34.537 -14.843 -21.363  0.00  0.00    -0.019 C 
ATOM     19  C   UNL     1      32.748 -13.503 -23.212  0.00  0.00    -0.077 C 
ATOM     20  C   UNL     1      33.341 -14.001 -20.915  0.00  0.00    -0.077 C 
ATOM     21  C   UNL     1      31.934 -12.112 -21.421  0.00  0.00    -0.101 C 
ATOM     22  H   UNL     1      33.877 -12.354 -21.975  0.00  0.00    -0.080 HD
ENDBRANCH  14  16
ENDBRANCH  13  14
ENDBRANCH   9  13
ENDBRANCH   1  12
BRANCH   2  23
ATOM     23  C   UNL     1      33.202 -23.482 -17.431  0.00  0.00    +0.146 C 
BRANCH  23  25
ATOM     24  O   UNL     1      30.710 -22.804 -16.190  0.00  0.00    -0.268 OA
ATOM     25  N   UNL     1      32.928 -23.474 -16.004  0.00  0.00    -0.173 N 
ATOM     26  N   UNL     1      33.988 -23.819 -15.215  0.00  0.00    -0.175 NA
ATOM     27  C   UNL     1      33.819 -23.827 -13.932  0.00  0.00    +0.099 C 
ATOM     28  C   UNL     1      31.680 -23.131 -15.505  0.00  0.00    +0.268 C 
ATOM     29  C   UNL     1      32.548 -23.511 -13.255  0.00  0.00    +0.025 C 
ATOM     30  C   UNL     1      31.524 -23.175 -14.036  0.00  0.00    +0.061 C 
BRANCH  27  31
ATOM     31  C   UNL     1      34.968 -24.196 -13.062  0.00  0.00    +0.020 C 
ATOM     32  C   UNL     1      36.224 -24.427 -13.624  0.00  0.00    +0.012 C 
ATOM     33  C   UNL     1      34.789 -24.309 -11.683  0.00  0.00    +0.002 C 
ATOM     34  C   UNL     1      37.300 -24.773 -12.807  0.00  0.00    +0.068 C 
ATOM     35  C   UNL     1      35.866 -24.655 -10.866  0.00  0.00    +0.001 C 
ATOM     36  C   UNL     1      37.121 -24.886 -11.428  0.00  0.00    +0.010 C 
BRANCH  34  38
ATOM     37  N   UNL     1      39.631 -25.204 -13.849  0.00  0.00    -0.191 NA
ATOM     38  C   UNL     1      38.587 -25.011 -13.382  0.00  0.00    +0.100 C 
ENDBRANCH  34  38
ENDBRANCH  27  31
ENDBRANCH  23  25
ENDBRANCH   2  23
TORSDOF 8
ENDMDL
MODEL 8
REMARK VINA RESULT:     -11.5      2.374      5.060
REMARK  Name = 25171648
REMARK  8 active torsions:
REMARK  status: ('A' for Active; 'I' for Inactive)
REMARK    1  A    between atoms: C_1  and  C_12
REMARK    2  A    between atoms: C_2  and  C_23
REMARK    3  A    between atoms: C_9  and  O_13
REMARK    4  A    between atoms: O_13  and  C_14
REMARK    5  A    between atoms: C_14  and  C_16
REMARK    6  A    between atoms: C_23  and  N_25
REMARK    7  A    between atoms: C_27  and  C_31
REMARK    8  A    between atoms: C_34  and  C_38
REMARK                            x       y       z     vdW  Elec       q    Type
REMARK                         _______ _______ _______ _____ _____    ______ ____
ROOT
ATOM      1  C   UNL     1      34.467 -17.010 -23.613  0.00  0.00    +0.062 C 
ATOM      2  C   UNL     1      35.401 -18.784 -22.263  0.00  0.00    +0.000 C 
ATOM      3  C   UNL     1      35.106 -17.432 -22.447  0.00  0.00    +0.007 C 
ATOM      4  C   UNL     1      34.124 -17.940 -24.595  0.00  0.00    +0.010 C 
ATOM      5  C   UNL     1      35.058 -19.712 -23.245  0.00  0.00    -0.003 C 
ATOM      6  C   UNL     1      34.418 -19.290 -24.411  0.00  0.00    +0.000 C 
ENDROOT
BRANCH   1  12
ATOM      7  N   UNL     1      33.691 -15.263 -25.012  0.00  0.00    -0.212 NA
ATOM      8  N   UNL     1      34.379 -14.805 -22.749  0.00  0.00    -0.190 NA
ATOM      9  C   UNL     1      33.594 -13.016 -24.154  0.00  0.00    +0.161 C 
ATOM     10  C   UNL     1      33.416 -13.950 -25.155  0.00  0.00    +0.201 C 
ATOM     11  C   UNL     1      34.083 -13.506 -22.960  0.00  0.00    +0.144 C 
ATOM     12  C   UNL     1      34.162 -15.616 -23.802  0.00  0.00    +0.031 C 
BRANCH   9  13
ATOM     13  O   UNL     1      33.302 -11.686 -24.335  0.00  0.00    -0.476 OA
BRANCH  13  14
ATOM     14  C   UNL     1      34.397 -10.796 -24.440  0.00  0.00    +0.205 C 
BRANCH  14  16
ATOM     15  N   UNL     1      33.049  -7.035 -22.798  0.00  0.00    +0.386 N 
ATOM     16  C   UNL     1      34.193  -9.655 -23.447  0.00  0.00    +0.040 C 
ATOM     17  C   UNL     1      32.706  -9.463 -23.128  0.00  0.00    -0.019 C 
ATOM     18  C   UNL     1      34.781  -8.346 -23.982  0.00  0.00    -0.019 C 
ATOM     19  C   UNL     1      32.484  -8.258 -22.211  0.00  0.00    -0.077 C 
ATOM     20  C   UNL     1      34.491  -7.178 -23.036  0.00  0.00    -0.077 C 
ATOM     21  C   UNL     1      32.784  -5.884 -21.934  0.00  0.00    -0.101 C 
ATOM     22  H   UNL     1      32.595  -6.880 -23.698  0.00  0.00    -0.080 HD
ENDBRANCH  14  16
ENDBRANCH  13  14
ENDBRANCH   9  13
ENDBRANCH   1  12
BRANCH   2  23
ATOM     23  C   UNL     1      36.084 -19.236 -21.016  0.00  0.00    +0.146 C 
BRANCH  23  25
ATOM     24  O   UNL     1      33.297 -19.757 -21.431  0.00  0.00    -0.268 OA
ATOM     25  N   UNL     1      35.243 -20.104 -20.210  0.00  0.00    -0.173 N 
ATOM     26  N   UNL     1      35.879 -20.701 -19.159  0.00  0.00    -0.175 NA
ATOM     27  C   UNL     1      35.191 -21.483 -18.391  0.00  0.00    +0.099 C 
ATOM     28  C   UNL     1      33.900 -20.290 -20.499  0.00  0.00    +0.268 C 
ATOM     29  C   UNL     1      33.764 -21.799 -18.584  0.00  0.00    +0.025 C 
ATOM     30  C   UNL     1      33.156 -21.208 -19.611  0.00  0.00    +0.061 C 
BRANCH  27  31
ATOM     31  C   UNL     1      35.871 -22.135 -17.240  0.00  0.00    +0.020 C 
ATOM     32  C   UNL     1      35.129 -22.870 -16.316  0.00  0.00    +0.012 C 
ATOM     33  C   UNL     1      37.253 -22.011 -17.085  0.00  0.00    +0.002 C 
ATOM     34  C   UNL     1      35.769 -23.482 -15.237  0.00  0.00    +0.068 C 
ATOM     35  C   UNL     1      37.892 -22.623 -16.007  0.00  0.00    +0.001 C 
ATOM     36  C   UNL     1      37.150 -23.358 -15.082  0.00  0.00    +0.010 C 
BRANCH  34  38
ATOM     37  N   UNL     1      34.392 -24.846 -13.519  0.00  0.00    -0.191 NA
ATOM     38  C   UNL     1      35.009 -24.234 -14.289  0.00  0.00    +0.100 C 
ENDBRANCH  34  38
ENDBRANCH  27  31
ENDBRANCH  23  25
ENDBRANCH   2  23
TORSDOF 8
ENDMDL
MODEL 9
REMARK VINA RESULT:     -11.5      3.799     14.254
REMARK  Name = 25171648
REMARK  8 active torsions:
REMARK  status: ('A' for Active; 'I' for Inactive)
REMARK    1  A    between atoms: C_1  and  C_12
REMARK    2  A    between atoms: C_2  and  C_23
REMARK    3  A    between atoms: C_9  and  O_13
REMARK    4  A    between atoms: O_13  and  C_14
REMARK    5  A    between atoms: C_14  and  C_16
REMARK    6  A    between atoms: C_23  and  N_25
REMARK    7  A    between atoms: C_27  and  C_31
REMARK    8  A    between atoms: C_34  and  C_38
REMARK                            x       y       z     vdW  Elec       q    Type
REMARK                         _______ _______ _______ _____ _____    ______ ____
ROOT
ATOM      1  C   UNL     1      33.517 -13.789 -21.744  0.00  0.00    +0.062 C 
ATOM      2  C   UNL     1      32.950 -11.818 -23.022  0.00  0.00    +0.000 C 
ATOM      3  C   UNL     1      33.650 -13.020 -22.900  0.00  0.00    +0.007 C 
ATOM      4  C   UNL     1      32.686 -13.357 -20.711  0.00  0.00    +0.010 C 
ATOM      5  C   UNL     1      32.119 -11.387 -21.989  0.00  0.00    -0.003 C 
ATOM      6  C   UNL     1      31.986 -12.157 -20.834  0.00  0.00    +0.000 C 
ENDROOT
BRANCH   1  12
ATOM      7  N   UNL     1      34.545 -15.665 -22.765  0.00  0.00    -0.212 NA
ATOM      8  N   UNL     1      34.535 -15.427 -20.367  0.00  0.00    -0.190 NA
ATOM      9  C   UNL     1      35.585 -17.340 -21.383  0.00  0.00    +0.161 C 
ATOM     10  C   UNL     1      35.221 -16.822 -22.610  0.00  0.00    +0.201 C 
ATOM     11  C   UNL     1      35.212 -16.591 -20.285  0.00  0.00    +0.144 C 
ATOM     12  C   UNL     1      34.239 -15.029 -21.619  0.00  0.00    +0.031 C 
BRANCH   9  13
ATOM     13  O   UNL     1      36.274 -18.521 -21.264  0.00  0.00    -0.476 OA
BRANCH  13  14
ATOM     14  C   UNL     1      35.554 -19.714 -21.511  0.00  0.00    +0.205 C 
BRANCH  14  16
ATOM     15  N   UNL     1      33.785 -22.397 -18.624  0.00  0.00    +0.386 N 
ATOM     16  C   UNL     1      35.010 -20.238 -20.185  0.00  0.00    +0.040 C 
ATOM     17  C   UNL     1      35.802 -21.461 -19.710  0.00  0.00    -0.019 C 
ATOM     18  C   UNL     1      33.525 -20.596 -20.301  0.00  0.00    -0.019 C 
ATOM     19  C   UNL     1      35.201 -22.053 -18.433  0.00  0.00    -0.077 C 
ATOM     20  C   UNL     1      32.999 -21.215 -19.004  0.00  0.00    -0.077 C 
ATOM     21  C   UNL     1      33.239 -23.007 -17.412  0.00  0.00    -0.101 C 
ATOM     22  H   UNL     1      33.726 -23.072 -19.386  0.00  0.00    -0.080 HD
ENDBRANCH  14  16
ENDBRANCH  13  14
ENDBRANCH   9  13
ENDBRANCH   1  12
BRANCH   2  23
ATOM     23  C   UNL     1      33.092 -10.994 -24.258  0.00  0.00    +0.146 C 
BRANCH  23  25
ATOM     24  O   UNL     1      35.646 -10.096 -25.195  0.00  0.00    -0.268 OA
ATOM     25  N   UNL     1      33.697  -9.701 -23.992  0.00  0.00    -0.173 N 
ATOM     26  N   UNL     1      32.949  -8.869 -23.209  0.00  0.00    -0.175 NA
ATOM     27  C   UNL     1      33.429  -7.701 -22.924  0.00  0.00    +0.099 C 
ATOM     28  C   UNL     1      34.944  -9.363 -24.498  0.00  0.00    +0.268 C 
ATOM     29  C   UNL     1      34.725  -7.189 -23.408  0.00  0.00    +0.025 C 
ATOM     30  C   UNL     1      35.444  -8.012 -24.168  0.00  0.00    +0.061 C 
BRANCH  27  31
ATOM     31  C   UNL     1      32.626  -6.787 -22.069  0.00  0.00    +0.020 C 
ATOM     32  C   UNL     1      32.176  -5.569 -22.578  0.00  0.00    +0.012 C 
ATOM     33  C   UNL     1      32.321  -7.150 -20.756  0.00  0.00    +0.002 C 
ATOM     34  C   UNL     1      31.422  -4.713 -21.774  0.00  0.00    +0.068 C 
ATOM     35  C   UNL     1      31.567  -6.294 -19.952  0.00  0.00    +0.001 C 
ATOM     36  C   UNL     1      31.118  -5.076 -20.461  0.00  0.00    +0.010 C 
BRANCH  34  38
ATOM     37  N   UNL     1      30.588  -2.450 -22.717  0.00  0.00    -0.191 NA
ATOM     38  C   UNL     1      30.962  -3.464 -22.294  0.00  0.00    +0.100 C 
ENDBRANCH  34  38
ENDBRANCH  27  31
ENDBRANCH  23  25
ENDBRANCH   2  23
TORSDOF 8
ENDMDL
