MODEL 1
REMARK VINA RESULT:     -11.1      0.000      0.000
REMARK  Name = 4565
REMARK  4 active torsions:
REMARK  status: ('A' for Active; 'I' for Inactive)
REMARK    1  A    between atoms: N_5  and  C_15
REMARK    2  A    between atoms: C_6  and  O_21
REMARK    3  A    between atoms: O_21  and  C_22
REMARK    4  A    between atoms: C_22  and  C_23
REMARK                            x       y       z     vdW  Elec       q    Type
REMARK                         _______ _______ _______ _____ _____    ______ ____
ROOT
ATOM      1  N   UNL     1      32.815 -23.537 -15.451  0.00  0.00    -0.293 NA
ATOM      2  N   UNL     1      29.439 -22.786 -16.702  0.00  0.00    -0.266 NA
ATOM      3  N   UNL     1      31.023 -24.118 -13.900  0.00  0.00    -0.316 NA
ATOM      4  N   UNL     1      28.797 -23.617 -14.736  0.00  0.00    -0.296 N 
ATOM      5  N   UNL     1      33.269 -24.488 -13.360  0.00  0.00    -0.238 N 
ATOM      6  C   UNL     1      31.932 -23.080 -16.365  0.00  0.00    +0.288 C 
ATOM      7  C   UNL     1      30.589 -23.139 -16.055  0.00  0.00    +0.215 C 
ATOM      8  C   UNL     1      30.164 -23.653 -14.838  0.00  0.00    +0.196 C 
ATOM      9  C   UNL     1      32.312 -24.021 -14.289  0.00  0.00    +0.207 C 
ATOM     10  C   UNL     1      28.392 -23.092 -15.873  0.00  0.00    +0.164 C 
ATOM     11  H   UNL     1      29.373 -22.385 -17.599  0.00  0.00    +0.126 HD
ATOM     12  H   UNL     1      28.241 -23.919 -13.981  0.00  0.00    +0.150 HD
ATOM     13  H   UNL     1      32.876 -24.835 -12.526  0.00  0.00    +0.166 HD
ENDROOT
BRANCH   5  15
ATOM     14 CL   UNL     1      37.753 -23.138 -11.263  0.00  0.00    -0.082 Cl
ATOM     15  C   UNL     1      34.674 -24.555 -13.393  0.00  0.00    +0.059 C 
ATOM     16  C   UNL     1      35.431 -23.890 -12.425  0.00  0.00    +0.027 C 
ATOM     17  C   UNL     1      35.318 -25.286 -14.394  0.00  0.00    +0.015 C 
ATOM     18  C   UNL     1      36.823 -23.957 -12.458  0.00  0.00    +0.059 C 
ATOM     19  C   UNL     1      36.711 -25.353 -14.426  0.00  0.00    +0.002 C 
ATOM     20  C   UNL     1      37.464 -24.688 -13.458  0.00  0.00    +0.011 C 
ENDBRANCH   5  15
BRANCH   6  21
ATOM     21  O   UNL     1      32.407 -22.582 -17.554  0.00  0.00    -0.453 OA
BRANCH  21  22
ATOM     22  C   UNL     1      33.771 -22.819 -17.851  0.00  0.00    +0.208 C 
BRANCH  22  23
ATOM     23  C   UNL     1      34.127 -22.061 -19.128  0.00  0.00    +0.044 C 
ATOM     24  C   UNL     1      33.067 -20.995 -19.439  0.00  0.00    +0.004 C 
ATOM     25  C   UNL     1      35.520 -21.429 -19.013  0.00  0.00    +0.004 C 
ATOM     26  C   UNL     1      33.429 -20.187 -20.684  0.00  0.00    +0.000 C 
ATOM     27  C   UNL     1      35.877 -20.620 -20.258  0.00  0.00    +0.000 C 
ATOM     28  C   UNL     1      34.817 -19.567 -20.569  0.00  0.00    +0.000 C 
ENDBRANCH  22  23
ENDBRANCH  21  22
ENDBRANCH   6  21
TORSDOF 4
ENDMDL
MODEL 2
REMARK VINA RESULT:     -10.5      2.774      6.462
REMARK  Name = 4565
REMARK  4 active torsions:
REMARK  status: ('A' for Active; 'I' for Inactive)
REMARK    1  A    between atoms: N_5  and  C_15
REMARK    2  A    between atoms: C_6  and  O_21
REMARK    3  A    between atoms: O_21  and  C_22
REMARK    4  A    between atoms: C_22  and  C_23
REMARK                            x       y       z     vdW  Elec       q    Type
REMARK                         _______ _______ _______ _____ _____    ______ ____
ROOT
ATOM      1  N   UNL     1      33.411 -23.067 -16.198  0.00  0.00    -0.293 NA
ATOM      2  N   UNL     1      31.466 -24.714 -13.547  0.00  0.00    -0.266 NA
ATOM      3  N   UNL     1      31.008 -23.140 -16.621  0.00  0.00    -0.316 NA
ATOM      4  N   UNL     1      29.733 -24.231 -14.863  0.00  0.00    -0.296 N 
ATOM      5  N   UNL     1      32.484 -22.150 -18.144  0.00  0.00    -0.238 N 
ATOM      6  C   UNL     1      33.265 -23.710 -15.020  0.00  0.00    +0.288 C 
ATOM      7  C   UNL     1      31.992 -24.073 -14.632  0.00  0.00    +0.215 C 
ATOM      8  C   UNL     1      30.897 -23.783 -15.435  0.00  0.00    +0.196 C 
ATOM      9  C   UNL     1      32.288 -22.824 -16.917  0.00  0.00    +0.207 C 
ATOM     10  C   UNL     1      30.110 -24.784 -13.730  0.00  0.00    +0.164 C 
ATOM     11  H   UNL     1      31.968 -25.061 -12.774  0.00  0.00    +0.126 HD
ATOM     12  H   UNL     1      28.819 -24.154 -15.221  0.00  0.00    +0.150 HD
ATOM     13  H   UNL     1      31.651 -21.987 -18.644  0.00  0.00    +0.166 HD
ENDROOT
BRANCH   5  15
ATOM     14 CL   UNL     1      34.512 -19.249 -21.859  0.00  0.00    -0.082 Cl
ATOM     15  C   UNL     1      33.636 -21.666 -18.789  0.00  0.00    +0.059 C 
ATOM     16  C   UNL     1      33.518 -20.798 -19.878  0.00  0.00    +0.027 C 
ATOM     17  C   UNL     1      34.903 -22.050 -18.345  0.00  0.00    +0.015 C 
ATOM     18  C   UNL     1      34.660 -20.319 -20.518  0.00  0.00    +0.059 C 
ATOM     19  C   UNL     1      36.046 -21.570 -18.984  0.00  0.00    +0.002 C 
ATOM     20  C   UNL     1      35.924 -20.703 -20.071  0.00  0.00    +0.011 C 
ENDBRANCH   5  15
BRANCH   6  21
ATOM     21  O   UNL     1      34.383 -23.972 -14.266  0.00  0.00    -0.453 OA
BRANCH  21  22
ATOM     22  C   UNL     1      35.614 -23.462 -14.743  0.00  0.00    +0.208 C 
BRANCH  22  23
ATOM     23  C   UNL     1      36.750 -24.199 -14.036  0.00  0.00    +0.044 C 
ATOM     24  C   UNL     1      36.797 -23.823 -12.548  0.00  0.00    +0.004 C 
ATOM     25  C   UNL     1      36.603 -25.717 -14.210  0.00  0.00    +0.004 C 
ATOM     26  C   UNL     1      37.892 -24.588 -11.808  0.00  0.00    +0.000 C 
ATOM     27  C   UNL     1      37.698 -26.478 -13.466  0.00  0.00    +0.000 C 
ATOM     28  C   UNL     1      37.748 -26.095 -11.990  0.00  0.00    +0.000 C 
ENDBRANCH  22  23
ENDBRANCH  21  22
ENDBRANCH   6  21
TORSDOF 4
ENDMDL
MODEL 3
REMARK VINA RESULT:     -10.5      1.433      2.090
REMARK  Name = 4565
REMARK  4 active torsions:
REMARK  status: ('A' for Active; 'I' for Inactive)
REMARK    1  A    between atoms: N_5  and  C_15
REMARK    2  A    between atoms: C_6  and  O_21
REMARK    3  A    between atoms: O_21  and  C_22
REMARK    4  A    between atoms: C_22  and  C_23
REMARK                            x       y       z     vdW  Elec       q    Type
REMARK                         _______ _______ _______ _____ _____    ______ ____
ROOT
ATOM      1  N   UNL     1      33.243 -23.889 -14.389  0.00  0.00    -0.293 NA
ATOM      2  N   UNL     1      29.768 -24.054 -15.579  0.00  0.00    -0.266 NA
ATOM      3  N   UNL     1      31.779 -25.265 -13.005  0.00  0.00    -0.316 NA
ATOM      4  N   UNL     1      29.484 -25.367 -13.799  0.00  0.00    -0.296 N 
ATOM      5  N   UNL     1      34.042 -24.985 -12.479  0.00  0.00    -0.238 N 
ATOM      6  C   UNL     1      32.233 -23.590 -15.235  0.00  0.00    +0.288 C 
ATOM      7  C   UNL     1      30.989 -24.126 -14.973  0.00  0.00    +0.215 C 
ATOM      8  C   UNL     1      30.788 -24.946 -13.871  0.00  0.00    +0.196 C 
ATOM      9  C   UNL     1      32.958 -24.697 -13.340  0.00  0.00    +0.207 C 
ATOM     10  C   UNL     1      28.899 -24.813 -14.840  0.00  0.00    +0.164 C 
ATOM     11  H   UNL     1      29.550 -23.550 -16.396  0.00  0.00    +0.126 HD
ATOM     12  H   UNL     1      29.078 -25.953 -13.121  0.00  0.00    +0.150 HD
ATOM     13  H   UNL     1      33.806 -25.574 -11.726  0.00  0.00    +0.166 HD
ENDROOT
BRANCH   5  15
ATOM     14 CL   UNL     1      38.754 -25.604 -14.413  0.00  0.00    -0.082 Cl
ATOM     15  C   UNL     1      35.393 -24.593 -12.488  0.00  0.00    +0.059 C 
ATOM     16  C   UNL     1      36.300 -25.220 -13.346  0.00  0.00    +0.027 C 
ATOM     17  C   UNL     1      35.834 -23.575 -11.639  0.00  0.00    +0.015 C 
ATOM     18  C   UNL     1      37.639 -24.830 -13.355  0.00  0.00    +0.059 C 
ATOM     19  C   UNL     1      37.172 -23.185 -11.648  0.00  0.00    +0.002 C 
ATOM     20  C   UNL     1      38.076 -23.813 -12.506  0.00  0.00    +0.011 C 
ENDBRANCH   5  15
BRANCH   6  21
ATOM     21  O   UNL     1      32.489 -22.773 -16.309  0.00  0.00    -0.453 OA
BRANCH  21  22
ATOM     22  C   UNL     1      33.464 -23.214 -17.235  0.00  0.00    +0.208 C 
BRANCH  22  23
ATOM     23  C   UNL     1      34.001 -21.999 -17.988  0.00  0.00    +0.044 C 
ATOM     24  C   UNL     1      35.460 -22.223 -18.409  0.00  0.00    +0.004 C 
ATOM     25  C   UNL     1      33.123 -21.686 -19.208  0.00  0.00    +0.004 C 
ATOM     26  C   UNL     1      36.003 -21.042 -19.211  0.00  0.00    +0.000 C 
ATOM     27  C   UNL     1      33.671 -20.507 -20.008  0.00  0.00    +0.000 C 
ATOM     28  C   UNL     1      35.124 -20.729 -20.417  0.00  0.00    +0.000 C 
ENDBRANCH  22  23
ENDBRANCH  21  22
ENDBRANCH   6  21
TORSDOF 4
ENDMDL
MODEL 4
REMARK VINA RESULT:     -10.4      3.233      7.086
REMARK  Name = 4565
REMARK  4 active torsions:
REMARK  status: ('A' for Active; 'I' for Inactive)
REMARK    1  A    between atoms: N_5  and  C_15
REMARK    2  A    between atoms: C_6  and  O_21
REMARK    3  A    between atoms: O_21  and  C_22
REMARK    4  A    between atoms: C_22  and  C_23
REMARK                            x       y       z     vdW  Elec       q    Type
REMARK                         _______ _______ _______ _____ _____    ______ ____
ROOT
ATOM      1  N   UNL     1      35.045 -23.652 -15.459  0.00  0.00    -0.293 NA
ATOM      2  N   UNL     1      36.191 -25.431 -12.451  0.00  0.00    -0.266 NA
ATOM      3  N   UNL     1      37.453 -23.527 -15.082  0.00  0.00    -0.316 NA
ATOM      4  N   UNL     1      38.199 -24.705 -13.091  0.00  0.00    -0.296 N 
ATOM      5  N   UNL     1      36.453 -22.485 -16.923  0.00  0.00    -0.238 N 
ATOM      6  C   UNL     1      34.868 -24.401 -14.349  0.00  0.00    +0.288 C 
ATOM      7  C   UNL     1      35.980 -24.718 -13.597  0.00  0.00    +0.215 C 
ATOM      8  C   UNL     1      37.241 -24.278 -13.975  0.00  0.00    +0.196 C 
ATOM      9  C   UNL     1      36.311 -23.267 -15.753  0.00  0.00    +0.207 C 
ATOM     10  C   UNL     1      37.535 -25.395 -12.188  0.00  0.00    +0.164 C 
ATOM     11  H   UNL     1      35.504 -25.887 -11.912  0.00  0.00    +0.126 HD
ATOM     12  H   UNL     1      39.168 -24.534 -13.125  0.00  0.00    +0.150 HD
ATOM     13  H   UNL     1      37.382 -22.219 -17.112  0.00  0.00    +0.166 HD
ENDROOT
BRANCH   5  15
ATOM     14 CL   UNL     1      35.552 -19.692 -21.131  0.00  0.00    -0.082 Cl
ATOM     15  C   UNL     1      35.526 -22.012 -17.869  0.00  0.00    +0.059 C 
ATOM     16  C   UNL     1      35.948 -21.182 -18.910  0.00  0.00    +0.027 C 
ATOM     17  C   UNL     1      34.179 -22.369 -17.771  0.00  0.00    +0.015 C 
ATOM     18  C   UNL     1      35.028 -20.714 -19.848  0.00  0.00    +0.059 C 
ATOM     19  C   UNL     1      33.259 -21.901 -18.710  0.00  0.00    +0.002 C 
ATOM     20  C   UNL     1      33.684 -21.073 -19.749  0.00  0.00    +0.011 C 
ENDBRANCH   5  15
BRANCH   6  21
ATOM     21  O   UNL     1      33.598 -24.809 -14.021  0.00  0.00    -0.453 OA
BRANCH  21  22
ATOM     22  C   UNL     1      32.863 -23.980 -13.140  0.00  0.00    +0.208 C 
BRANCH  22  23
ATOM     23  C   UNL     1      31.425 -23.891 -13.645  0.00  0.00    +0.044 C 
ATOM     24  C   UNL     1      31.374 -23.217 -15.023  0.00  0.00    +0.004 C 
ATOM     25  C   UNL     1      30.781 -25.283 -13.695  0.00  0.00    +0.004 C 
ATOM     26  C   UNL     1      29.951 -23.164 -15.573  0.00  0.00    +0.000 C 
ATOM     27  C   UNL     1      29.358 -25.227 -14.248  0.00  0.00    +0.000 C 
ATOM     28  C   UNL     1      29.311 -24.547 -15.613  0.00  0.00    +0.000 C 
ENDBRANCH  22  23
ENDBRANCH  21  22
ENDBRANCH   6  21
TORSDOF 4
ENDMDL
MODEL 5
REMARK VINA RESULT:     -10.3      1.887      2.579
REMARK  Name = 4565
REMARK  4 active torsions:
REMARK  status: ('A' for Active; 'I' for Inactive)
REMARK    1  A    between atoms: N_5  and  C_15
REMARK    2  A    between atoms: C_6  and  O_21
REMARK    3  A    between atoms: O_21  and  C_22
REMARK    4  A    between atoms: C_22  and  C_23
REMARK                            x       y       z     vdW  Elec       q    Type
REMARK                         _______ _______ _______ _____ _____    ______ ____
ROOT
ATOM      1  N   UNL     1      34.805 -24.027 -14.599  0.00  0.00    -0.293 NA
ATOM      2  N   UNL     1      31.359 -22.843 -15.095  0.00  0.00    -0.266 NA
ATOM      3  N   UNL     1      33.276 -24.622 -12.793  0.00  0.00    -0.316 NA
ATOM      4  N   UNL     1      31.002 -23.834 -13.131  0.00  0.00    -0.296 N 
ATOM      5  N   UNL     1      35.530 -25.248 -12.737  0.00  0.00    -0.238 N 
ATOM      6  C   UNL     1      33.824 -23.392 -15.278  0.00  0.00    +0.288 C 
ATOM      7  C   UNL     1      32.563 -23.367 -14.720  0.00  0.00    +0.215 C 
ATOM      8  C   UNL     1      32.315 -23.978 -13.498  0.00  0.00    +0.196 C 
ATOM      9  C   UNL     1      34.475 -24.595 -13.415  0.00  0.00    +0.207 C 
ATOM     10  C   UNL     1      30.455 -23.148 -14.112  0.00  0.00    +0.164 C 
ATOM     11  H   UNL     1      31.174 -22.337 -15.920  0.00  0.00    +0.126 HD
ATOM     12  H   UNL     1      30.565 -24.170 -12.315  0.00  0.00    +0.150 HD
ATOM     13  H   UNL     1      35.261 -25.652 -11.880  0.00  0.00    +0.166 HD
ENDROOT
BRANCH   5  15
ATOM     14 CL   UNL     1      39.071 -27.655 -15.565  0.00  0.00    -0.082 Cl
ATOM     15  C   UNL     1      36.889 -25.434 -13.048  0.00  0.00    +0.059 C 
ATOM     16  C   UNL     1      37.264 -26.347 -14.037  0.00  0.00    +0.027 C 
ATOM     17  C   UNL     1      37.870 -24.706 -12.370  0.00  0.00    +0.015 C 
ATOM     18  C   UNL     1      38.612 -26.530 -14.345  0.00  0.00    +0.059 C 
ATOM     19  C   UNL     1      39.217 -24.889 -12.679  0.00  0.00    +0.002 C 
ATOM     20  C   UNL     1      39.588 -25.802 -13.667  0.00  0.00    +0.011 C 
ENDBRANCH   5  15
BRANCH   6  21
ATOM     21  O   UNL     1      34.125 -22.805 -16.482  0.00  0.00    -0.453 OA
BRANCH  21  22
ATOM     22  C   UNL     1      33.237 -23.051 -17.557  0.00  0.00    +0.208 C 
BRANCH  22  23
ATOM     23  C   UNL     1      33.798 -22.382 -18.811  0.00  0.00    +0.044 C 
ATOM     24  C   UNL     1      32.924 -21.190 -19.225  0.00  0.00    +0.004 C 
ATOM     25  C   UNL     1      35.251 -21.942 -18.587  0.00  0.00    +0.004 C 
ATOM     26  C   UNL     1      33.493 -20.471 -20.446  0.00  0.00    +0.000 C 
ATOM     27  C   UNL     1      35.816 -21.222 -19.809  0.00  0.00    +0.000 C 
ATOM     28  C   UNL     1      34.940 -20.043 -20.224  0.00  0.00    +0.000 C 
ENDBRANCH  22  23
ENDBRANCH  21  22
ENDBRANCH   6  21
TORSDOF 4
ENDMDL
MODEL 6
REMARK VINA RESULT:     -10.2      2.829      5.692
REMARK  Name = 4565
REMARK  4 active torsions:
REMARK  status: ('A' for Active; 'I' for Inactive)
REMARK    1  A    between atoms: N_5  and  C_15
REMARK    2  A    between atoms: C_6  and  O_21
REMARK    3  A    between atoms: O_21  and  C_22
REMARK    4  A    between atoms: C_22  and  C_23
REMARK                            x       y       z     vdW  Elec       q    Type
REMARK                         _______ _______ _______ _____ _____    ______ ____
ROOT
ATOM      1  N   UNL     1      34.724 -24.113 -13.934  0.00  0.00    -0.293 NA
ATOM      2  N   UNL     1      38.181 -23.860 -12.705  0.00  0.00    -0.266 NA
ATOM      3  N   UNL     1      34.934 -24.271 -11.508  0.00  0.00    -0.316 NA
ATOM      4  N   UNL     1      37.223 -24.103 -10.707  0.00  0.00    -0.296 N 
ATOM      5  N   UNL     1      32.849 -24.401 -12.561  0.00  0.00    -0.238 N 
ATOM      6  C   UNL     1      36.059 -23.969 -14.083  0.00  0.00    +0.288 C 
ATOM      7  C   UNL     1      36.842 -23.976 -12.947  0.00  0.00    +0.215 C 
ATOM      8  C   UNL     1      36.268 -24.125 -11.692  0.00  0.00    +0.196 C 
ATOM      9  C   UNL     1      34.250 -24.253 -12.673  0.00  0.00    +0.207 C 
ATOM     10  C   UNL     1      38.360 -23.942 -11.349  0.00  0.00    +0.164 C 
ATOM     11  H   UNL     1      38.888 -23.740 -13.380  0.00  0.00    +0.126 HD
ATOM     12  H   UNL     1      37.087 -24.189  -9.735  0.00  0.00    +0.150 HD
ATOM     13  H   UNL     1      32.533 -24.500 -11.634  0.00  0.00    +0.166 HD
ENDROOT
BRANCH   5  15
ATOM     14 CL   UNL     1      30.814 -22.468 -16.857  0.00  0.00    -0.082 Cl
ATOM     15  C   UNL     1      31.817 -24.434 -13.517  0.00  0.00    +0.059 C 
ATOM     16  C   UNL     1      31.825 -23.538 -14.589  0.00  0.00    +0.027 C 
ATOM     17  C   UNL     1      30.780 -25.362 -13.397  0.00  0.00    +0.015 C 
ATOM     18  C   UNL     1      30.802 -23.572 -15.536  0.00  0.00    +0.059 C 
ATOM     19  C   UNL     1      29.757 -25.396 -14.345  0.00  0.00    +0.002 C 
ATOM     20  C   UNL     1      29.768 -24.500 -15.415  0.00  0.00    +0.011 C 
ENDBRANCH   5  15
BRANCH   6  21
ATOM     21  O   UNL     1      36.572 -23.825 -15.349  0.00  0.00    -0.453 OA
BRANCH  21  22
ATOM     22  C   UNL     1      36.630 -22.512 -15.874  0.00  0.00    +0.208 C 
BRANCH  22  23
ATOM     23  C   UNL     1      36.038 -22.526 -17.281  0.00  0.00    +0.044 C 
ATOM     24  C   UNL     1      34.504 -22.480 -17.225  0.00  0.00    +0.004 C 
ATOM     25  C   UNL     1      36.589 -21.361 -18.113  0.00  0.00    +0.004 C 
ATOM     26  C   UNL     1      33.890 -22.440 -18.622  0.00  0.00    +0.000 C 
ATOM     27  C   UNL     1      35.970 -21.323 -19.509  0.00  0.00    +0.000 C 
ATOM     28  C   UNL     1      34.446 -21.286 -19.449  0.00  0.00    +0.000 C 
ENDBRANCH  22  23
ENDBRANCH  21  22
ENDBRANCH   6  21
TORSDOF 4
ENDMDL
MODEL 7
REMARK VINA RESULT:     -10.2      2.621      5.664
REMARK  Name = 4565
REMARK  4 active torsions:
REMARK  status: ('A' for Active; 'I' for Inactive)
REMARK    1  A    between atoms: N_5  and  C_15
REMARK    2  A    between atoms: C_6  and  O_21
REMARK    3  A    between atoms: O_21  and  C_22
REMARK    4  A    between atoms: C_22  and  C_23
REMARK                            x       y       z     vdW  Elec       q    Type
REMARK                         _______ _______ _______ _____ _____    ______ ____
ROOT
ATOM      1  N   UNL     1      35.343 -23.048 -16.594  0.00  0.00    -0.293 NA
ATOM      2  N   UNL     1      34.129 -21.353 -19.624  0.00  0.00    -0.266 NA
ATOM      3  N   UNL     1      36.970 -21.543 -17.616  0.00  0.00    -0.316 NA
ATOM      4  N   UNL     1      36.158 -20.429 -19.617  0.00  0.00    -0.296 N 
ATOM      5  N   UNL     1      37.477 -22.752 -15.677  0.00  0.00    -0.238 N 
ATOM      6  C   UNL     1      34.423 -22.765 -17.542  0.00  0.00    +0.288 C 
ATOM      7  C   UNL     1      34.769 -21.870 -18.534  0.00  0.00    +0.215 C 
ATOM      8  C   UNL     1      36.026 -21.282 -18.551  0.00  0.00    +0.196 C 
ATOM      9  C   UNL     1      36.544 -22.428 -16.688  0.00  0.00    +0.207 C 
ATOM     10  C   UNL     1      35.001 -20.495 -20.241  0.00  0.00    +0.164 C 
ATOM     11  H   UNL     1      33.211 -21.558 -19.914  0.00  0.00    +0.126 HD
ATOM     12  H   UNL     1      36.943 -19.888 -19.862  0.00  0.00    +0.150 HD
ATOM     13  H   UNL     1      38.340 -22.286 -15.770  0.00  0.00    +0.166 HD
ENDROOT
BRANCH   5  15
ATOM     14 CL   UNL     1      35.210 -23.988 -11.243  0.00  0.00    -0.082 Cl
ATOM     15  C   UNL     1      37.414 -23.609 -14.564  0.00  0.00    +0.059 C 
ATOM     16  C   UNL     1      36.455 -23.398 -13.569  0.00  0.00    +0.027 C 
ATOM     17  C   UNL     1      38.310 -24.674 -14.447  0.00  0.00    +0.015 C 
ATOM     18  C   UNL     1      36.393 -24.249 -12.466  0.00  0.00    +0.059 C 
ATOM     19  C   UNL     1      38.247 -25.525 -13.344  0.00  0.00    +0.002 C 
ATOM     20  C   UNL     1      37.288 -25.312 -12.353  0.00  0.00    +0.011 C 
ENDBRANCH   5  15
BRANCH   6  21
ATOM     21  O   UNL     1      33.195 -23.376 -17.477  0.00  0.00    -0.453 OA
BRANCH  21  22
ATOM     22  C   UNL     1      32.239 -22.807 -16.601  0.00  0.00    +0.208 C 
BRANCH  22  23
ATOM     23  C   UNL     1      31.830 -23.864 -15.577  0.00  0.00    +0.044 C 
ATOM     24  C   UNL     1      32.663 -23.726 -14.295  0.00  0.00    +0.004 C 
ATOM     25  C   UNL     1      30.331 -23.768 -15.267  0.00  0.00    +0.004 C 
ATOM     26  C   UNL     1      32.237 -24.739 -13.234  0.00  0.00    +0.000 C 
ATOM     27  C   UNL     1      29.909 -24.780 -14.204  0.00  0.00    +0.000 C 
ATOM     28  C   UNL     1      30.744 -24.646 -12.935  0.00  0.00    +0.000 C 
ENDBRANCH  22  23
ENDBRANCH  21  22
ENDBRANCH   6  21
TORSDOF 4
ENDMDL
MODEL 8
REMARK VINA RESULT:     -10.1      3.349      6.111
REMARK  Name = 4565
REMARK  4 active torsions:
REMARK  status: ('A' for Active; 'I' for Inactive)
REMARK    1  A    between atoms: N_5  and  C_15
REMARK    2  A    between atoms: C_6  and  O_21
REMARK    3  A    between atoms: O_21  and  C_22
REMARK    4  A    between atoms: C_22  and  C_23
REMARK                            x       y       z     vdW  Elec       q    Type
REMARK                         _______ _______ _______ _____ _____    ______ ____
ROOT
ATOM      1  N   UNL     1      36.524 -23.966 -14.620  0.00  0.00    -0.293 NA
ATOM      2  N   UNL     1      40.081 -24.895 -14.701  0.00  0.00    -0.266 NA
ATOM      3  N   UNL     1      37.054 -25.996 -13.373  0.00  0.00    -0.316 NA
ATOM      4  N   UNL     1      39.407 -26.601 -13.434  0.00  0.00    -0.296 N 
ATOM      5  N   UNL     1      34.866 -25.174 -13.490  0.00  0.00    -0.238 N 
ATOM      6  C   UNL     1      37.815 -23.802 -14.983  0.00  0.00    +0.288 C 
ATOM      7  C   UNL     1      38.734 -24.732 -14.545  0.00  0.00    +0.215 C 
ATOM      8  C   UNL     1      38.339 -25.803 -13.755  0.00  0.00    +0.196 C 
ATOM      9  C   UNL     1      36.227 -25.039 -13.847  0.00  0.00    +0.207 C 
ATOM     10  C   UNL     1      40.438 -26.028 -14.017  0.00  0.00    +0.164 C 
ATOM     11  H   UNL     1      40.686 -24.308 -15.210  0.00  0.00    +0.126 HD
ATOM     12  H   UNL     1      39.403 -27.420 -12.888  0.00  0.00    +0.150 HD
ATOM     13  H   UNL     1      34.679 -25.961 -12.929  0.00  0.00    +0.166 HD
ENDROOT
BRANCH   5  15
ATOM     14 CL   UNL     1      31.984 -22.794 -17.006  0.00  0.00    -0.082 Cl
ATOM     15  C   UNL     1      33.726 -24.403 -13.780  0.00  0.00    +0.059 C 
ATOM     16  C   UNL     1      33.451 -24.023 -15.097  0.00  0.00    +0.027 C 
ATOM     17  C   UNL     1      32.862 -24.014 -12.753  0.00  0.00    +0.015 C 
ATOM     18  C   UNL     1      32.320 -23.260 -15.383  0.00  0.00    +0.059 C 
ATOM     19  C   UNL     1      31.730 -23.251 -13.040  0.00  0.00    +0.002 C 
ATOM     20  C   UNL     1      31.459 -22.874 -14.356  0.00  0.00    +0.011 C 
ENDBRANCH   5  15
BRANCH   6  21
ATOM     21  O   UNL     1      38.150 -22.725 -15.767  0.00  0.00    -0.453 OA
BRANCH  21  22
ATOM     22  C   UNL     1      37.133 -21.776 -16.026  0.00  0.00    +0.208 C 
BRANCH  22  23
ATOM     23  C   UNL     1      36.742 -21.874 -17.499  0.00  0.00    +0.044 C 
ATOM     24  C   UNL     1      35.245 -22.181 -17.644  0.00  0.00    +0.004 C 
ATOM     25  C   UNL     1      37.110 -20.584 -18.244  0.00  0.00    +0.004 C 
ATOM     26  C   UNL     1      34.819 -22.231 -19.109  0.00  0.00    +0.000 C 
ATOM     27  C   UNL     1      36.680 -20.637 -19.709  0.00  0.00    +0.000 C 
ATOM     28  C   UNL     1      35.194 -20.951 -19.849  0.00  0.00    +0.000 C 
ENDBRANCH  22  23
ENDBRANCH  21  22
ENDBRANCH   6  21
TORSDOF 4
ENDMDL
MODEL 9
REMARK VINA RESULT:     -10.1      2.839      5.469
REMARK  Name = 4565
REMARK  4 active torsions:
REMARK  status: ('A' for Active; 'I' for Inactive)
REMARK    1  A    between atoms: N_5  and  C_15
REMARK    2  A    between atoms: C_6  and  O_21
REMARK    3  A    between atoms: O_21  and  C_22
REMARK    4  A    between atoms: C_22  and  C_23
REMARK                            x       y       z     vdW  Elec       q    Type
REMARK                         _______ _______ _______ _____ _____    ______ ____
ROOT
ATOM      1  N   UNL     1      34.478 -23.753 -15.002  0.00  0.00    -0.293 NA
ATOM      2  N   UNL     1      38.140 -23.848 -15.323  0.00  0.00    -0.266 NA
ATOM      3  N   UNL     1      35.617 -24.811 -13.121  0.00  0.00    -0.316 NA
ATOM      4  N   UNL     1      38.037 -24.869 -13.344  0.00  0.00    -0.296 N 
ATOM      5  N   UNL     1      33.286 -24.614 -13.179  0.00  0.00    -0.238 N 
ATOM      6  C   UNL     1      35.649 -23.511 -15.630  0.00  0.00    +0.288 C 
ATOM      7  C   UNL     1      36.812 -23.916 -15.010  0.00  0.00    +0.215 C 
ATOM      8  C   UNL     1      36.774 -24.554 -13.777  0.00  0.00    +0.196 C 
ATOM      9  C   UNL     1      34.533 -24.380 -13.802  0.00  0.00    +0.207 C 
ATOM     10  C   UNL     1      38.834 -24.431 -14.295  0.00  0.00    +0.164 C 
ATOM     11  H   UNL     1      38.528 -23.453 -16.137  0.00  0.00    +0.126 HD
ATOM     12  H   UNL     1      38.291 -25.322 -12.508  0.00  0.00    +0.150 HD
ATOM     13  H   UNL     1      33.357 -25.071 -12.309  0.00  0.00    +0.166 HD
ENDROOT
BRANCH   5  15
ATOM     14 CL   UNL     1      28.542 -26.322 -14.127  0.00  0.00    -0.082 Cl
ATOM     15  C   UNL     1      31.964 -24.323 -13.559  0.00  0.00    +0.059 C 
ATOM     16  C   UNL     1      31.017 -25.347 -13.646  0.00  0.00    +0.027 C 
ATOM     17  C   UNL     1      31.590 -23.009 -13.851  0.00  0.00    +0.015 C 
ATOM     18  C   UNL     1      29.706 -25.058 -14.022  0.00  0.00    +0.059 C 
ATOM     19  C   UNL     1      30.279 -22.720 -14.226  0.00  0.00    +0.002 C 
ATOM     20  C   UNL     1      29.336 -23.745 -14.312  0.00  0.00    +0.011 C 
ENDBRANCH   5  15
BRANCH   6  21
ATOM     21  O   UNL     1      35.628 -22.877 -16.848  0.00  0.00    -0.453 OA
BRANCH  21  22
ATOM     22  C   UNL     1      34.369 -22.734 -17.478  0.00  0.00    +0.208 C 
BRANCH  22  23
ATOM     23  C   UNL     1      34.580 -22.075 -18.839  0.00  0.00    +0.044 C 
ATOM     24  C   UNL     1      33.393 -21.167 -19.192  0.00  0.00    +0.004 C 
ATOM     25  C   UNL     1      35.896 -21.286 -18.862  0.00  0.00    +0.004 C 
ATOM     26  C   UNL     1      33.605 -20.455 -20.526  0.00  0.00    +0.000 C 
ATOM     27  C   UNL     1      36.103 -20.573 -20.196  0.00  0.00    +0.000 C 
ATOM     28  C   UNL     1      34.918 -19.679 -20.547  0.00  0.00    +0.000 C 
ENDBRANCH  22  23
ENDBRANCH  21  22
ENDBRANCH   6  21
TORSDOF 4
ENDMDL
