MODEL 1
REMARK VINA RESULT:     -11.0      0.000      0.000
REMARK  Name = 656913
REMARK  7 active torsions:
REMARK  status: ('A' for Active; 'I' for Inactive)
REMARK    1  A    between atoms: N_3  and  C_22
REMARK    2  A    between atoms: N_4  and  C_11
REMARK    3  A    between atoms: C_11  and  C_14
REMARK    4  A    between atoms: C_14  and  C_17
REMARK    5  A    between atoms: C_22  and  C_25
REMARK    6  A    between atoms: N_24  and  C_27
REMARK    7  A    between atoms: C_27  and  C_29
REMARK                            x       y       z     vdW  Elec       q    Type
REMARK                         _______ _______ _______ _____ _____    ______ ____
ROOT
ATOM      1 CL   UNL     1      33.123 -12.997 -26.037  0.00  0.00    -0.064 Cl
ATOM      2  O   UNL     1      34.968 -14.138 -21.504  0.00  0.00    -0.266 OA
ATOM      3  N   UNL     1      34.106 -13.569 -23.609  0.00  0.00    -0.233 N 
ATOM      4  N   UNL     1      35.031 -16.779 -22.027  0.00  0.00    -0.310 N 
ATOM      5  N   UNL     1      34.170 -16.328 -24.160  0.00  0.00    -0.223 NA
ATOM      6  C   UNL     1      34.576 -15.917 -22.992  0.00  0.00    +0.183 C 
ATOM      7  C   UNL     1      34.570 -14.440 -22.623  0.00  0.00    +0.285 C 
ATOM      8  C   UNL     1      33.693 -14.079 -24.824  0.00  0.00    +0.133 C 
ATOM      9  C   UNL     1      33.735 -15.395 -25.056  0.00  0.00    +0.127 C 
ATOM     10  H   UNL     1      35.325 -16.413 -21.162  0.00  0.00    +0.149 HD
ENDROOT
BRANCH   4  11
ATOM     11  C   UNL     1      35.092 -18.192 -22.234  0.00  0.00    +0.162 C 
BRANCH  11  14
ATOM     12  F   UNL     1      36.294 -17.881 -20.242  0.00  0.00    -0.196 F 
ATOM     13  F   UNL     1      37.009 -19.398 -21.618  0.00  0.00    -0.196 F 
ATOM     14  C   UNL     1      35.868 -18.857 -21.099  0.00  0.00    +0.317 C 
BRANCH  14  17
ATOM     15  O   UNL     1      36.895 -20.646 -19.272  0.00  0.00    -0.163 OA
ATOM     16  N   UNL     1      35.644 -20.729 -19.511  0.00  0.00    -0.128 N 
ATOM     17  C   UNL     1      35.019 -19.892 -20.401  0.00  0.00    +0.142 C 
ATOM     18  C   UNL     1      33.665 -19.969 -20.667  0.00  0.00    +0.022 C 
ATOM     19  C   UNL     1      34.883 -21.682 -18.863  0.00  0.00    +0.121 C 
ATOM     20  C   UNL     1      32.908 -20.932 -20.009  0.00  0.00    +0.003 C 
ATOM     21  C   UNL     1      33.517 -21.794 -19.102  0.00  0.00    +0.022 C 
ENDBRANCH  14  17
ENDBRANCH  11  14
ENDBRANCH   4  11
BRANCH   3  22
ATOM     22  C   UNL     1      34.068 -12.138 -23.329  0.00  0.00    +0.184 C 
BRANCH  22  25
ATOM     23  O   UNL     1      32.021 -12.648 -22.150  0.00  0.00    -0.273 OA
ATOM     24  N   UNL     1      32.568 -10.428 -22.564  0.00  0.00    -0.299 N 
ATOM     25  C   UNL     1      32.784 -11.797 -22.602  0.00  0.00    +0.243 C 
ATOM     26  H   UNL     1      33.250  -9.836 -22.959  0.00  0.00    +0.150 HD
BRANCH  24  27
ATOM     27  C   UNL     1      31.394  -9.825 -21.974  0.00  0.00    +0.119 C 
BRANCH  27  29
ATOM     28  F   UNL     1      30.811  -7.528 -23.515  0.00  0.00    -0.204 F 
ATOM     29  C   UNL     1      31.662  -8.429 -21.489  0.00  0.00    +0.025 C 
ATOM     30  C   UNL     1      31.349  -7.345 -22.300  0.00  0.00    +0.138 C 
ATOM     31  C   UNL     1      32.221  -8.238 -20.231  0.00  0.00    -0.000 C 
ATOM     32  C   UNL     1      31.599  -6.050 -21.847  0.00  0.00    +0.029 C 
ATOM     33  C   UNL     1      32.470  -6.943 -19.778  0.00  0.00    -0.000 C 
ATOM     34  C   UNL     1      32.159  -5.849 -20.585  0.00  0.00    +0.002 C 
ENDBRANCH  27  29
ENDBRANCH  24  27
ENDBRANCH  22  25
ENDBRANCH   3  22
TORSDOF 7
ENDMDL
MODEL 2
REMARK VINA RESULT:     -10.8     10.058     13.176
REMARK  Name = 656913
REMARK  7 active torsions:
REMARK  status: ('A' for Active; 'I' for Inactive)
REMARK    1  A    between atoms: N_3  and  C_22
REMARK    2  A    between atoms: N_4  and  C_11
REMARK    3  A    between atoms: C_11  and  C_14
REMARK    4  A    between atoms: C_14  and  C_17
REMARK    5  A    between atoms: C_22  and  C_25
REMARK    6  A    between atoms: N_24  and  C_27
REMARK    7  A    between atoms: C_27  and  C_29
REMARK                            x       y       z     vdW  Elec       q    Type
REMARK                         _______ _______ _______ _____ _____    ______ ____
ROOT
ATOM      1 CL   UNL     1      38.173 -23.898 -11.625  0.00  0.00    -0.064 Cl
ATOM      2  O   UNL     1      35.006 -24.788 -15.425  0.00  0.00    -0.266 OA
ATOM      3  N   UNL     1      36.512 -24.370 -13.676  0.00  0.00    -0.233 N 
ATOM      4  N   UNL     1      32.891 -25.100 -13.788  0.00  0.00    -0.310 N 
ATOM      5  N   UNL     1      34.304 -24.696 -11.962  0.00  0.00    -0.223 NA
ATOM      6  C   UNL     1      34.119 -24.818 -13.246  0.00  0.00    +0.183 C 
ATOM      7  C   UNL     1      35.266 -24.656 -14.234  0.00  0.00    +0.285 C 
ATOM      8  C   UNL     1      36.631 -24.253 -12.305  0.00  0.00    +0.133 C 
ATOM      9  C   UNL     1      35.563 -24.413 -11.518  0.00  0.00    +0.127 C 
ATOM     10  H   UNL     1      32.809 -25.182 -14.766  0.00  0.00    +0.149 HD
ENDROOT
BRANCH   4  11
ATOM     11  C   UNL     1      31.725 -25.279 -12.981  0.00  0.00    +0.162 C 
BRANCH  11  14
ATOM     12  F   UNL     1      31.781 -22.948 -12.704  0.00  0.00    -0.196 F 
ATOM     13  F   UNL     1      30.111 -24.023 -11.828  0.00  0.00    -0.196 F 
ATOM     14  C   UNL     1      30.917 -23.982 -12.930  0.00  0.00    +0.317 C 
BRANCH  14  17
ATOM     15  O   UNL     1      29.021 -25.785 -13.796  0.00  0.00    -0.163 OA
ATOM     16  N   UNL     1      29.209 -24.758 -14.529  0.00  0.00    -0.128 N 
ATOM     17  C   UNL     1      30.126 -23.791 -14.202  0.00  0.00    +0.142 C 
ATOM     18  C   UNL     1      30.338 -22.673 -14.986  0.00  0.00    +0.022 C 
ATOM     19  C   UNL     1      28.477 -24.599 -15.690  0.00  0.00    +0.121 C 
ATOM     20  C   UNL     1      29.595 -22.523 -16.152  0.00  0.00    +0.003 C 
ATOM     21  C   UNL     1      28.659 -23.489 -16.508  0.00  0.00    +0.022 C 
ENDBRANCH  14  17
ENDBRANCH  11  14
ENDBRANCH   4  11
BRANCH   3  22
ATOM     22  C   UNL     1      37.661 -24.202 -14.560  0.00  0.00    +0.184 C 
BRANCH  22  25
ATOM     23  O   UNL     1      37.775 -21.788 -14.589  0.00  0.00    -0.273 OA
ATOM     24  N   UNL     1      37.292 -22.925 -16.557  0.00  0.00    -0.299 N 
ATOM     25  C   UNL     1      37.605 -22.835 -15.209  0.00  0.00    +0.243 C 
ATOM     26  H   UNL     1      37.178 -23.820 -16.952  0.00  0.00    +0.150 HD
BRANCH  24  27
ATOM     27  C   UNL     1      37.125 -21.770 -17.412  0.00  0.00    +0.119 C 
BRANCH  27  29
ATOM     28  F   UNL     1      36.618 -20.399 -19.830  0.00  0.00    -0.204 F 
ATOM     29  C   UNL     1      35.774 -21.747 -18.068  0.00  0.00    +0.025 C 
ATOM     30  C   UNL     1      35.597 -21.052 -19.259  0.00  0.00    +0.138 C 
ATOM     31  C   UNL     1      34.714 -22.424 -17.476  0.00  0.00    -0.000 C 
ATOM     32  C   UNL     1      34.342 -21.033 -19.866  0.00  0.00    +0.029 C 
ATOM     33  C   UNL     1      33.459 -22.405 -18.084  0.00  0.00    -0.000 C 
ATOM     34  C   UNL     1      33.273 -21.710 -19.278  0.00  0.00    +0.002 C 
ENDBRANCH  27  29
ENDBRANCH  24  27
ENDBRANCH  22  25
ENDBRANCH   3  22
TORSDOF 7
ENDMDL
MODEL 3
REMARK VINA RESULT:     -10.8      2.021      2.406
REMARK  Name = 656913
REMARK  7 active torsions:
REMARK  status: ('A' for Active; 'I' for Inactive)
REMARK    1  A    between atoms: N_3  and  C_22
REMARK    2  A    between atoms: N_4  and  C_11
REMARK    3  A    between atoms: C_11  and  C_14
REMARK    4  A    between atoms: C_14  and  C_17
REMARK    5  A    between atoms: C_22  and  C_25
REMARK    6  A    between atoms: N_24  and  C_27
REMARK    7  A    between atoms: C_27  and  C_29
REMARK                            x       y       z     vdW  Elec       q    Type
REMARK                         _______ _______ _______ _____ _____    ______ ____
ROOT
ATOM      1 CL   UNL     1      31.725 -11.556 -20.631  0.00  0.00    -0.064 Cl
ATOM      2  O   UNL     1      34.094 -14.314 -24.101  0.00  0.00    -0.266 OA
ATOM      3  N   UNL     1      32.978 -13.003 -22.509  0.00  0.00    -0.233 N 
ATOM      4  N   UNL     1      35.007 -16.084 -22.289  0.00  0.00    -0.310 N 
ATOM      5  N   UNL     1      33.931 -14.850 -20.612  0.00  0.00    -0.223 NA
ATOM      6  C   UNL     1      34.238 -15.030 -21.865  0.00  0.00    +0.183 C 
ATOM      7  C   UNL     1      33.759 -14.072 -22.947  0.00  0.00    +0.285 C 
ATOM      8  C   UNL     1      32.692 -12.878 -21.163  0.00  0.00    +0.133 C 
ATOM      9  C   UNL     1      33.159 -13.772 -20.287  0.00  0.00    +0.127 C 
ATOM     10  H   UNL     1      35.209 -16.171 -23.249  0.00  0.00    +0.149 HD
ENDROOT
BRANCH   4  11
ATOM     11  C   UNL     1      35.526 -17.061 -21.384  0.00  0.00    +0.162 C 
BRANCH  11  14
ATOM     12  F   UNL     1      36.517 -18.619 -22.835  0.00  0.00    -0.196 F 
ATOM     13  F   UNL     1      34.351 -18.489 -22.830  0.00  0.00    -0.196 F 
ATOM     14  C   UNL     1      35.441 -18.454 -22.008  0.00  0.00    +0.317 C 
BRANCH  14  17
ATOM     15  O   UNL     1      37.652 -19.265 -20.578  0.00  0.00    -0.163 OA
ATOM     16  N   UNL     1      36.549 -19.838 -20.296  0.00  0.00    -0.128 N 
ATOM     17  C   UNL     1      35.380 -19.519 -20.941  0.00  0.00    +0.142 C 
ATOM     18  C   UNL     1      34.177 -20.131 -20.643  0.00  0.00    +0.022 C 
ATOM     19  C   UNL     1      36.511 -20.811 -19.316  0.00  0.00    +0.121 C 
ATOM     20  C   UNL     1      34.150 -21.109 -19.655  0.00  0.00    +0.003 C 
ATOM     21  C   UNL     1      35.321 -21.452 -18.987  0.00  0.00    +0.022 C 
ENDBRANCH  14  17
ENDBRANCH  11  14
ENDBRANCH   4  11
BRANCH   3  22
ATOM     22  C   UNL     1      32.482 -12.040 -23.488  0.00  0.00    +0.184 C 
BRANCH  22  25
ATOM     23  O   UNL     1      34.591 -11.037 -24.111  0.00  0.00    -0.273 OA
ATOM     24  N   UNL     1      32.970  -9.725 -23.086  0.00  0.00    -0.299 N 
ATOM     25  C   UNL     1      33.471 -10.902 -23.623  0.00  0.00    +0.243 C 
ATOM     26  H   UNL     1      32.055  -9.731 -22.721  0.00  0.00    +0.150 HD
BRANCH  24  27
ATOM     27  C   UNL     1      33.722  -8.491 -23.036  0.00  0.00    +0.119 C 
BRANCH  27  29
ATOM     28  F   UNL     1      33.264  -5.793 -23.742  0.00  0.00    -0.204 F 
ATOM     29  C   UNL     1      33.107  -7.496 -22.095  0.00  0.00    +0.025 C 
ATOM     30  C   UNL     1      32.910  -6.184 -22.510  0.00  0.00    +0.138 C 
ATOM     31  C   UNL     1      32.740  -7.899 -20.817  0.00  0.00    -0.000 C 
ATOM     32  C   UNL     1      32.339  -5.262 -21.633  0.00  0.00    +0.029 C 
ATOM     33  C   UNL     1      32.168  -6.977 -19.941  0.00  0.00    -0.000 C 
ATOM     34  C   UNL     1      31.967  -5.659 -20.348  0.00  0.00    +0.002 C 
ENDBRANCH  27  29
ENDBRANCH  24  27
ENDBRANCH  22  25
ENDBRANCH   3  22
TORSDOF 7
ENDMDL
MODEL 4
REMARK VINA RESULT:     -10.8     10.585     12.739
REMARK  Name = 656913
REMARK  7 active torsions:
REMARK  status: ('A' for Active; 'I' for Inactive)
REMARK    1  A    between atoms: N_3  and  C_22
REMARK    2  A    between atoms: N_4  and  C_11
REMARK    3  A    between atoms: C_11  and  C_14
REMARK    4  A    between atoms: C_14  and  C_17
REMARK    5  A    between atoms: C_22  and  C_25
REMARK    6  A    between atoms: N_24  and  C_27
REMARK    7  A    between atoms: C_27  and  C_29
REMARK                            x       y       z     vdW  Elec       q    Type
REMARK                         _______ _______ _______ _____ _____    ______ ____
ROOT
ATOM      1 CL   UNL     1      36.298 -20.875 -19.495  0.00  0.00    -0.064 Cl
ATOM      2  O   UNL     1      34.375 -24.022 -16.082  0.00  0.00    -0.266 OA
ATOM      3  N   UNL     1      35.245 -22.563 -17.699  0.00  0.00    -0.233 N 
ATOM      4  N   UNL     1      36.312 -23.498 -14.285  0.00  0.00    -0.310 N 
ATOM      5  N   UNL     1      37.271 -22.013 -15.824  0.00  0.00    -0.223 NA
ATOM      6  C   UNL     1      36.338 -22.864 -15.501  0.00  0.00    +0.183 C 
ATOM      7  C   UNL     1      35.211 -23.212 -16.464  0.00  0.00    +0.285 C 
ATOM      8  C   UNL     1      36.265 -21.672 -17.969  0.00  0.00    +0.133 C 
ATOM      9  C   UNL     1      37.212 -21.432 -17.057  0.00  0.00    +0.127 C 
ATOM     10  H   UNL     1      35.583 -24.133 -14.095  0.00  0.00    +0.149 HD
ENDROOT
BRANCH   4  11
ATOM     11  C   UNL     1      37.305 -23.269 -13.284  0.00  0.00    +0.162 C 
BRANCH  11  14
ATOM     12  F   UNL     1      36.479 -25.180 -12.199  0.00  0.00    -0.196 F 
ATOM     13  F   UNL     1      38.283 -24.277 -11.403  0.00  0.00    -0.196 F 
ATOM     14  C   UNL     1      37.647 -24.578 -12.573  0.00  0.00    +0.317 C 
BRANCH  14  17
ATOM     15  O   UNL     1      36.548 -26.355 -14.369  0.00  0.00    -0.163 OA
ATOM     16  N   UNL     1      37.822 -26.314 -14.314  0.00  0.00    -0.128 N 
ATOM     17  C   UNL     1      38.484 -25.469 -13.459  0.00  0.00    +0.142 C 
ATOM     18  C   UNL     1      39.863 -25.413 -13.391  0.00  0.00    +0.022 C 
ATOM     19  C   UNL     1      38.572 -27.136 -15.132  0.00  0.00    +0.121 C 
ATOM     20  C   UNL     1      40.608 -26.245 -14.219  0.00  0.00    +0.003 C 
ATOM     21  C   UNL     1      39.962 -27.112 -15.094  0.00  0.00    +0.022 C 
ENDBRANCH  14  17
ENDBRANCH  11  14
ENDBRANCH   4  11
BRANCH   3  22
ATOM     22  C   UNL     1      34.199 -22.846 -18.675  0.00  0.00    +0.184 C 
BRANCH  22  25
ATOM     23  O   UNL     1      32.486 -21.143 -18.596  0.00  0.00    -0.273 OA
ATOM     24  N   UNL     1      32.262 -23.038 -17.271  0.00  0.00    -0.299 N 
ATOM     25  C   UNL     1      32.893 -22.236 -18.210  0.00  0.00    +0.243 C 
ATOM     26  H   UNL     1      32.680 -23.899 -17.035  0.00  0.00    +0.150 HD
BRANCH  24  27
ATOM     27  C   UNL     1      31.022 -22.676 -16.621  0.00  0.00    +0.119 C 
BRANCH  27  29
ATOM     28  F   UNL     1      29.230 -24.815 -16.174  0.00  0.00    -0.204 F 
ATOM     29  C   UNL     1      30.870 -23.346 -15.286  0.00  0.00    +0.025 C 
ATOM     30  C   UNL     1      29.969 -24.393 -15.138  0.00  0.00    +0.138 C 
ATOM     31  C   UNL     1      31.635 -22.910 -14.210  0.00  0.00    -0.000 C 
ATOM     32  C   UNL     1      29.830 -25.013 -13.897  0.00  0.00    +0.029 C 
ATOM     33  C   UNL     1      31.496 -23.531 -12.970  0.00  0.00    -0.000 C 
ATOM     34  C   UNL     1      30.594 -24.582 -12.812  0.00  0.00    +0.002 C 
ENDBRANCH  27  29
ENDBRANCH  24  27
ENDBRANCH  22  25
ENDBRANCH   3  22
TORSDOF 7
ENDMDL
MODEL 5
REMARK VINA RESULT:     -10.8      7.929     12.854
REMARK  Name = 656913
REMARK  7 active torsions:
REMARK  status: ('A' for Active; 'I' for Inactive)
REMARK    1  A    between atoms: N_3  and  C_22
REMARK    2  A    between atoms: N_4  and  C_11
REMARK    3  A    between atoms: C_11  and  C_14
REMARK    4  A    between atoms: C_14  and  C_17
REMARK    5  A    between atoms: C_22  and  C_25
REMARK    6  A    between atoms: N_24  and  C_27
REMARK    7  A    between atoms: C_27  and  C_29
REMARK                            x       y       z     vdW  Elec       q    Type
REMARK                         _______ _______ _______ _____ _____    ______ ____
ROOT
ATOM      1 CL   UNL     1      37.672 -23.795 -12.221  0.00  0.00    -0.064 Cl
ATOM      2  O   UNL     1      34.206 -24.311 -15.823  0.00  0.00    -0.266 OA
ATOM      3  N   UNL     1      35.804 -24.095 -14.121  0.00  0.00    -0.233 N 
ATOM      4  N   UNL     1      35.383 -22.496 -17.427  0.00  0.00    -0.310 N 
ATOM      5  N   UNL     1      37.038 -22.198 -15.794  0.00  0.00    -0.223 NA
ATOM      6  C   UNL     1      35.948 -22.778 -16.208  0.00  0.00    +0.183 C 
ATOM      7  C   UNL     1      35.225 -23.814 -15.358  0.00  0.00    +0.285 C 
ATOM      8  C   UNL     1      36.962 -23.440 -13.750  0.00  0.00    +0.133 C 
ATOM      9  C   UNL     1      37.525 -22.545 -14.567  0.00  0.00    +0.127 C 
ATOM     10  H   UNL     1      34.557 -22.965 -17.689  0.00  0.00    +0.149 HD
ENDROOT
BRANCH   4  11
ATOM     11  C   UNL     1      35.952 -21.545 -18.329  0.00  0.00    +0.162 C 
BRANCH  11  14
ATOM     12  F   UNL     1      33.775 -20.903 -18.928  0.00  0.00    -0.196 F 
ATOM     13  F   UNL     1      34.741 -22.421 -20.139  0.00  0.00    -0.196 F 
ATOM     14  C   UNL     1      34.979 -21.254 -19.470  0.00  0.00    +0.317 C 
BRANCH  14  17
ATOM     15  O   UNL     1      33.483 -20.096 -21.474  0.00  0.00    -0.163 OA
ATOM     16  N   UNL     1      34.682 -19.681 -21.344  0.00  0.00    -0.128 N 
ATOM     17  C   UNL     1      35.523 -20.182 -20.382  0.00  0.00    +0.142 C 
ATOM     18  C   UNL     1      36.823 -19.739 -20.229  0.00  0.00    +0.022 C 
ATOM     19  C   UNL     1      35.164 -18.698 -22.187  0.00  0.00    +0.121 C 
ATOM     20  C   UNL     1      37.298 -18.749 -21.083  0.00  0.00    +0.003 C 
ATOM     21  C   UNL     1      36.466 -18.224 -22.067  0.00  0.00    +0.022 C 
ENDBRANCH  14  17
ENDBRANCH  11  14
ENDBRANCH   4  11
BRANCH   3  22
ATOM     22  C   UNL     1      35.168 -25.076 -13.248  0.00  0.00    +0.184 C 
BRANCH  22  25
ATOM     23  O   UNL     1      33.830 -23.617 -11.863  0.00  0.00    -0.273 OA
ATOM     24  N   UNL     1      32.770 -25.155 -13.245  0.00  0.00    -0.299 N 
ATOM     25  C   UNL     1      33.873 -24.508 -12.707  0.00  0.00    +0.243 C 
ATOM     26  H   UNL     1      32.922 -25.858 -13.918  0.00  0.00    +0.150 HD
BRANCH  24  27
ATOM     27  C   UNL     1      31.408 -24.848 -12.868  0.00  0.00    +0.119 C 
BRANCH  27  29
ATOM     28  F   UNL     1      31.938 -22.457 -14.278  0.00  0.00    -0.204 F 
ATOM     29  C   UNL     1      30.588 -24.396 -14.042  0.00  0.00    +0.025 C 
ATOM     30  C   UNL     1      30.906 -23.208 -14.690  0.00  0.00    +0.138 C 
ATOM     31  C   UNL     1      29.517 -25.173 -14.468  0.00  0.00    -0.000 C 
ATOM     32  C   UNL     1      30.143 -22.792 -15.779  0.00  0.00    +0.029 C 
ATOM     33  C   UNL     1      28.755 -24.756 -15.559  0.00  0.00    -0.000 C 
ATOM     34  C   UNL     1      29.067 -23.566 -16.214  0.00  0.00    +0.002 C 
ENDBRANCH  27  29
ENDBRANCH  24  27
ENDBRANCH  22  25
ENDBRANCH   3  22
TORSDOF 7
ENDMDL
MODEL 6
REMARK VINA RESULT:     -10.7      3.250      4.676
REMARK  Name = 656913
REMARK  7 active torsions:
REMARK  status: ('A' for Active; 'I' for Inactive)
REMARK    1  A    between atoms: N_3  and  C_22
REMARK    2  A    between atoms: N_4  and  C_11
REMARK    3  A    between atoms: C_11  and  C_14
REMARK    4  A    between atoms: C_14  and  C_17
REMARK    5  A    between atoms: C_22  and  C_25
REMARK    6  A    between atoms: N_24  and  C_27
REMARK    7  A    between atoms: C_27  and  C_29
REMARK                            x       y       z     vdW  Elec       q    Type
REMARK                         _______ _______ _______ _____ _____    ______ ____
ROOT
ATOM      1 CL   UNL     1      30.823 -10.419 -19.600  0.00  0.00    -0.064 Cl
ATOM      2  O   UNL     1      33.243 -11.213 -23.932  0.00  0.00    -0.266 OA
ATOM      3  N   UNL     1      32.102 -10.809 -21.923  0.00  0.00    -0.233 N 
ATOM      4  N   UNL     1      34.214 -13.593 -23.128  0.00  0.00    -0.310 N 
ATOM      5  N   UNL     1      33.115 -13.295 -21.079  0.00  0.00    -0.223 NA
ATOM      6  C   UNL     1      33.420 -12.872 -22.273  0.00  0.00    +0.183 C 
ATOM      7  C   UNL     1      32.909 -11.537 -22.798  0.00  0.00    +0.285 C 
ATOM      8  C   UNL     1      31.821 -11.324 -20.673  0.00  0.00    +0.133 C 
ATOM      9  C   UNL     1      32.317 -12.508 -20.301  0.00  0.00    +0.127 C 
ATOM     10  H   UNL     1      34.413 -13.224 -24.020  0.00  0.00    +0.149 HD
ENDROOT
BRANCH   4  11
ATOM     11  C   UNL     1      34.764 -14.862 -22.769  0.00  0.00    +0.162 C 
BRANCH  11  14
ATOM     12  F   UNL     1      35.322 -15.604 -24.926  0.00  0.00    -0.196 F 
ATOM     13  F   UNL     1      33.232 -15.678 -24.350  0.00  0.00    -0.196 F 
ATOM     14  C   UNL     1      34.495 -15.883 -23.874  0.00  0.00    +0.317 C 
BRANCH  14  17
ATOM     15  O   UNL     1      33.421 -18.087 -25.132  0.00  0.00    -0.163 OA
ATOM     16  N   UNL     1      34.101 -18.308 -24.076  0.00  0.00    -0.128 N 
ATOM     17  C   UNL     1      34.685 -17.291 -23.364  0.00  0.00    +0.142 C 
ATOM     18  C   UNL     1      35.426 -17.517 -22.219  0.00  0.00    +0.022 C 
ATOM     19  C   UNL     1      34.264 -19.603 -23.623  0.00  0.00    +0.121 C 
ATOM     20  C   UNL     1      35.584 -18.825 -21.772  0.00  0.00    +0.003 C 
ATOM     21  C   UNL     1      35.002 -19.874 -22.475  0.00  0.00    +0.022 C 
ENDBRANCH  14  17
ENDBRANCH  11  14
ENDBRANCH   4  11
BRANCH   3  22
ATOM     22  C   UNL     1      31.576  -9.518 -22.355  0.00  0.00    +0.184 C 
BRANCH  22  25
ATOM     23  O   UNL     1      32.453  -7.845 -20.848  0.00  0.00    -0.273 OA
ATOM     24  N   UNL     1      33.434  -8.116 -22.937  0.00  0.00    -0.299 N 
ATOM     25  C   UNL     1      32.526  -8.417 -21.933  0.00  0.00    +0.243 C 
ATOM     26  H   UNL     1      33.402  -8.642 -23.769  0.00  0.00    +0.150 HD
BRANCH  24  27
ATOM     27  C   UNL     1      34.426  -7.071 -22.823  0.00  0.00    +0.119 C 
BRANCH  27  29
ATOM     28  F   UNL     1      32.371  -5.167 -22.449  0.00  0.00    -0.204 F 
ATOM     29  C   UNL     1      34.171  -5.947 -23.786  0.00  0.00    +0.025 C 
ATOM     30  C   UNL     1      33.142  -5.045 -23.538  0.00  0.00    +0.138 C 
ATOM     31  C   UNL     1      34.969  -5.821 -24.917  0.00  0.00    -0.000 C 
ATOM     32  C   UNL     1      32.909  -4.003 -24.435  0.00  0.00    +0.029 C 
ATOM     33  C   UNL     1      34.735  -4.778 -25.812  0.00  0.00    -0.000 C 
ATOM     34  C   UNL     1      33.705  -3.869 -25.572  0.00  0.00    +0.002 C 
ENDBRANCH  27  29
ENDBRANCH  24  27
ENDBRANCH  22  25
ENDBRANCH   3  22
TORSDOF 7
ENDMDL
MODEL 7
REMARK VINA RESULT:     -10.7      8.541     12.063
REMARK  Name = 656913
REMARK  7 active torsions:
REMARK  status: ('A' for Active; 'I' for Inactive)
REMARK    1  A    between atoms: N_3  and  C_22
REMARK    2  A    between atoms: N_4  and  C_11
REMARK    3  A    between atoms: C_11  and  C_14
REMARK    4  A    between atoms: C_14  and  C_17
REMARK    5  A    between atoms: C_22  and  C_25
REMARK    6  A    between atoms: N_24  and  C_27
REMARK    7  A    between atoms: C_27  and  C_29
REMARK                            x       y       z     vdW  Elec       q    Type
REMARK                         _______ _______ _______ _____ _____    ______ ____
ROOT
ATOM      1 CL   UNL     1      29.700 -24.093 -15.715  0.00  0.00    -0.064 Cl
ATOM      2  O   UNL     1      34.493 -22.625 -15.357  0.00  0.00    -0.266 OA
ATOM      3  N   UNL     1      32.254 -23.293 -15.558  0.00  0.00    -0.233 N 
ATOM      4  N   UNL     1      34.802 -23.712 -12.912  0.00  0.00    -0.310 N 
ATOM      5  N   UNL     1      32.573 -24.431 -13.004  0.00  0.00    -0.223 NA
ATOM      6  C   UNL     1      33.589 -23.820 -13.544  0.00  0.00    +0.183 C 
ATOM      7  C   UNL     1      33.491 -23.180 -14.922  0.00  0.00    +0.285 C 
ATOM      8  C   UNL     1      31.223 -23.957 -14.923  0.00  0.00    +0.133 C 
ATOM      9  C   UNL     1      31.406 -24.487 -13.709  0.00  0.00    +0.127 C 
ATOM     10  H   UNL     1      35.536 -23.239 -13.368  0.00  0.00    +0.149 HD
ENDROOT
BRANCH   4  11
ATOM     11  C   UNL     1      35.038 -24.264 -11.616  0.00  0.00    +0.162 C 
BRANCH  11  14
ATOM     12  F   UNL     1      36.721 -24.816 -10.075  0.00  0.00    -0.196 F 
ATOM     13  F   UNL     1      36.874 -22.902 -11.084  0.00  0.00    -0.196 F 
ATOM     14  C   UNL     1      36.529 -24.208 -11.283  0.00  0.00    +0.317 C 
BRANCH  14  17
ATOM     15  O   UNL     1      37.620 -22.774 -13.367  0.00  0.00    -0.163 OA
ATOM     16  N   UNL     1      37.840 -24.030 -13.363  0.00  0.00    -0.128 N 
ATOM     17  C   UNL     1      37.348 -24.849 -12.376  0.00  0.00    +0.142 C 
ATOM     18  C   UNL     1      37.580 -26.211 -12.359  0.00  0.00    +0.022 C 
ATOM     19  C   UNL     1      38.592 -24.600 -14.372  0.00  0.00    +0.121 C 
ATOM     20  C   UNL     1      38.339 -26.774 -13.380  0.00  0.00    +0.003 C 
ATOM     21  C   UNL     1      38.848 -25.967 -14.392  0.00  0.00    +0.022 C 
ENDBRANCH  14  17
ENDBRANCH  11  14
ENDBRANCH   4  11
BRANCH   3  22
ATOM     22  C   UNL     1      32.083 -22.704 -16.881  0.00  0.00    +0.184 C 
BRANCH  22  25
ATOM     23  O   UNL     1      33.479 -24.335 -17.990  0.00  0.00    -0.273 OA
ATOM     24  N   UNL     1      33.915 -22.074 -18.298  0.00  0.00    -0.299 N 
ATOM     25  C   UNL     1      33.211 -23.154 -17.786  0.00  0.00    +0.243 C 
ATOM     26  H   UNL     1      33.610 -21.166 -18.068  0.00  0.00    +0.150 HD
BRANCH  24  27
ATOM     27  C   UNL     1      35.073 -22.214 -19.153  0.00  0.00    +0.119 C 
BRANCH  27  29
ATOM     28  F   UNL     1      33.226 -20.634 -20.595  0.00  0.00    -0.204 F 
ATOM     29  C   UNL     1      35.448 -20.916 -19.808  0.00  0.00    +0.025 C 
ATOM     30  C   UNL     1      34.487 -20.189 -20.502  0.00  0.00    +0.138 C 
ATOM     31  C   UNL     1      36.755 -20.454 -19.713  0.00  0.00    -0.000 C 
ATOM     32  C   UNL     1      34.839 -18.984 -21.108  0.00  0.00    +0.029 C 
ATOM     33  C   UNL     1      37.107 -19.249 -20.320  0.00  0.00    -0.000 C 
ATOM     34  C   UNL     1      36.149 -18.514 -21.017  0.00  0.00    +0.002 C 
ENDBRANCH  27  29
ENDBRANCH  24  27
ENDBRANCH  22  25
ENDBRANCH   3  22
TORSDOF 7
ENDMDL
MODEL 8
REMARK VINA RESULT:     -10.5      3.297     11.141
REMARK  Name = 656913
REMARK  7 active torsions:
REMARK  status: ('A' for Active; 'I' for Inactive)
REMARK    1  A    between atoms: N_3  and  C_22
REMARK    2  A    between atoms: N_4  and  C_11
REMARK    3  A    between atoms: C_11  and  C_14
REMARK    4  A    between atoms: C_14  and  C_17
REMARK    5  A    between atoms: C_22  and  C_25
REMARK    6  A    between atoms: N_24  and  C_27
REMARK    7  A    between atoms: C_27  and  C_29
REMARK                            x       y       z     vdW  Elec       q    Type
REMARK                         _______ _______ _______ _____ _____    ______ ____
ROOT
ATOM      1 CL   UNL     1      32.190 -13.523 -20.514  0.00  0.00    -0.064 Cl
ATOM      2  O   UNL     1      34.107 -10.366 -23.921  0.00  0.00    -0.266 OA
ATOM      3  N   UNL     1      33.241 -11.863 -22.338  0.00  0.00    -0.233 N 
ATOM      4  N   UNL     1      32.112  -8.583 -23.614  0.00  0.00    -0.310 N 
ATOM      5  N   UNL     1      31.155 -10.003 -22.014  0.00  0.00    -0.223 NA
ATOM      6  C   UNL     1      32.100  -9.735 -22.869  0.00  0.00    +0.183 C 
ATOM      7  C   UNL     1      33.261 -10.694 -23.099  0.00  0.00    +0.285 C 
ATOM      8  C   UNL     1      32.206 -12.078 -21.450  0.00  0.00    +0.133 C 
ATOM      9  C   UNL     1      31.229 -11.175 -21.318  0.00  0.00    +0.127 C 
ATOM     10  H   UNL     1      32.853  -8.432 -24.246  0.00  0.00    +0.149 HD
ENDROOT
BRANCH   4  11
ATOM     11  C   UNL     1      31.088  -7.593 -23.504  0.00  0.00    +0.162 C 
BRANCH  11  14
ATOM     12  F   UNL     1      32.258  -6.441 -21.825  0.00  0.00    -0.196 F 
ATOM     13  F   UNL     1      30.669  -5.378 -22.850  0.00  0.00    -0.196 F 
ATOM     14  C   UNL     1      31.689  -6.261 -23.055  0.00  0.00    +0.317 C 
BRANCH  14  17
ATOM     15  O   UNL     1      34.406  -6.643 -22.804  0.00  0.00    -0.163 OA
ATOM     16  N   UNL     1      34.013  -6.003 -23.835  0.00  0.00    -0.128 N 
ATOM     17  C   UNL     1      32.684  -5.751 -24.069  0.00  0.00    +0.142 C 
ATOM     18  C   UNL     1      32.244  -5.061 -25.182  0.00  0.00    +0.022 C 
ATOM     19  C   UNL     1      34.937  -5.543 -24.753  0.00  0.00    +0.121 C 
ATOM     20  C   UNL     1      33.184  -4.602 -26.100  0.00  0.00    +0.003 C 
ATOM     21  C   UNL     1      34.537  -4.844 -25.887  0.00  0.00    +0.022 C 
ENDBRANCH  14  17
ENDBRANCH  11  14
ENDBRANCH   4  11
BRANCH   3  22
ATOM     22  C   UNL     1      34.319 -12.833 -22.503  0.00  0.00    +0.184 C 
BRANCH  22  25
ATOM     23  O   UNL     1      32.906 -13.804 -24.207  0.00  0.00    -0.273 OA
ATOM     24  N   UNL     1      34.695 -15.035 -23.380  0.00  0.00    -0.299 N 
ATOM     25  C   UNL     1      33.885 -13.912 -23.472  0.00  0.00    +0.243 C 
ATOM     26  H   UNL     1      35.456 -15.011 -22.755  0.00  0.00    +0.150 HD
BRANCH  24  27
ATOM     27  C   UNL     1      34.479 -16.236 -24.156  0.00  0.00    +0.119 C 
BRANCH  27  29
ATOM     28  F   UNL     1      33.481 -18.779 -24.876  0.00  0.00    -0.204 F 
ATOM     29  C   UNL     1      34.762 -17.477 -23.360  0.00  0.00    +0.025 C 
ATOM     30  C   UNL     1      34.238 -18.697 -23.773  0.00  0.00    +0.138 C 
ATOM     31  C   UNL     1      35.546 -17.392 -22.215  0.00  0.00    -0.000 C 
ATOM     32  C   UNL     1      34.503 -19.847 -23.032  0.00  0.00    +0.029 C 
ATOM     33  C   UNL     1      35.810 -18.544 -21.475  0.00  0.00    -0.000 C 
ATOM     34  C   UNL     1      35.289 -19.771 -21.882  0.00  0.00    +0.002 C 
ENDBRANCH  27  29
ENDBRANCH  24  27
ENDBRANCH  22  25
ENDBRANCH   3  22
TORSDOF 7
ENDMDL
MODEL 9
REMARK VINA RESULT:     -10.3      2.701      4.366
REMARK  Name = 656913
REMARK  7 active torsions:
REMARK  status: ('A' for Active; 'I' for Inactive)
REMARK    1  A    between atoms: N_3  and  C_22
REMARK    2  A    between atoms: N_4  and  C_11
REMARK    3  A    between atoms: C_11  and  C_14
REMARK    4  A    between atoms: C_14  and  C_17
REMARK    5  A    between atoms: C_22  and  C_25
REMARK    6  A    between atoms: N_24  and  C_27
REMARK    7  A    between atoms: C_27  and  C_29
REMARK                            x       y       z     vdW  Elec       q    Type
REMARK                         _______ _______ _______ _____ _____    ______ ____
ROOT
ATOM      1 CL   UNL     1      34.185 -17.023 -24.679  0.00  0.00    -0.064 Cl
ATOM      2  O   UNL     1      36.106 -17.525 -20.062  0.00  0.00    -0.266 OA
ATOM      3  N   UNL     1      35.217 -17.254 -22.215  0.00  0.00    -0.233 N 
ATOM      4  N   UNL     1      35.542 -20.156 -19.950  0.00  0.00    -0.310 N 
ATOM      5  N   UNL     1      34.627 -20.003 -22.102  0.00  0.00    -0.223 NA
ATOM      6  C   UNL     1      35.209 -19.448 -21.077  0.00  0.00    +0.183 C 
ATOM      7  C   UNL     1      35.559 -17.967 -21.066  0.00  0.00    +0.285 C 
ATOM      8  C   UNL     1      34.602 -17.910 -23.263  0.00  0.00    +0.133 C 
ATOM      9  C   UNL     1      34.335 -19.217 -23.179  0.00  0.00    +0.127 C 
ATOM     10  H   UNL     1      35.982 -19.685 -19.204  0.00  0.00    +0.149 HD
ENDROOT
BRANCH   4  11
ATOM     11  C   UNL     1      35.274 -21.554 -19.820  0.00  0.00    +0.162 C 
BRANCH  11  14
ATOM     12  F   UNL     1      33.160 -22.576 -19.807  0.00  0.00    -0.196 F 
ATOM     13  F   UNL     1      33.312 -20.575 -18.982  0.00  0.00    -0.196 F 
ATOM     14  C   UNL     1      33.968 -21.770 -19.056  0.00  0.00    +0.317 C 
BRANCH  14  17
ATOM     15  O   UNL     1      31.975 -22.797 -17.455  0.00  0.00    -0.163 OA
ATOM     16  N   UNL     1      33.160 -22.834 -16.985  0.00  0.00    -0.128 N 
ATOM     17  C   UNL     1      34.235 -22.353 -17.689  0.00  0.00    +0.142 C 
ATOM     18  C   UNL     1      35.524 -22.389 -17.192  0.00  0.00    +0.022 C 
ATOM     19  C   UNL     1      33.386 -23.372 -15.732  0.00  0.00    +0.121 C 
ATOM     20  C   UNL     1      35.740 -22.933 -15.930  0.00  0.00    +0.003 C 
ATOM     21  C   UNL     1      34.667 -23.427 -15.195  0.00  0.00    +0.022 C 
ENDBRANCH  14  17
ENDBRANCH  11  14
ENDBRANCH   4  11
BRANCH   3  22
ATOM     22  C   UNL     1      35.519 -15.828 -22.279  0.00  0.00    +0.184 C 
BRANCH  22  25
ATOM     23  O   UNL     1      34.410 -15.151 -20.241  0.00  0.00    -0.273 OA
ATOM     24  N   UNL     1      33.675 -14.292 -22.272  0.00  0.00    -0.299 N 
ATOM     25  C   UNL     1      34.502 -15.058 -21.463  0.00  0.00    +0.243 C 
ATOM     26  H   UNL     1      33.840 -14.292 -23.243  0.00  0.00    +0.150 HD
BRANCH  24  27
ATOM     27  C   UNL     1      32.583 -13.494 -21.761  0.00  0.00    +0.119 C 
BRANCH  27  29
ATOM     28  F   UNL     1      31.038 -11.396 -20.666  0.00  0.00    -0.204 F 
ATOM     29  C   UNL     1      32.607 -12.095 -22.305  0.00  0.00    +0.025 C 
ATOM     30  C   UNL     1      31.821 -11.111 -21.716  0.00  0.00    +0.138 C 
ATOM     31  C   UNL     1      33.417 -11.798 -23.395  0.00  0.00    -0.000 C 
ATOM     32  C   UNL     1      31.846  -9.813 -22.224  0.00  0.00    +0.029 C 
ATOM     33  C   UNL     1      33.442 -10.499 -23.902  0.00  0.00    -0.000 C 
ATOM     34  C   UNL     1      32.657  -9.507 -23.317  0.00  0.00    +0.002 C 
ENDBRANCH  27  29
ENDBRANCH  24  27
ENDBRANCH  22  25
ENDBRANCH   3  22
TORSDOF 7
ENDMDL
