MODEL 1
REMARK VINA RESULT:     -12.9      0.000      0.000
REMARK  Name = 67335295
REMARK  6 active torsions:
REMARK  status: ('A' for Active; 'I' for Inactive)
REMARK    1  A    between atoms: N_2  and  C_14
REMARK    2  A    between atoms: C_7  and  O_20
REMARK    3  A    between atoms: O_20  and  C_21
REMARK    4  A    between atoms: C_21  and  C_23
REMARK    5  A    between atoms: C_22  and  C_28
REMARK    6  A    between atoms: C_28  and  N_30
REMARK                            x       y       z     vdW  Elec       q    Type
REMARK                         _______ _______ _______ _____ _____    ______ ____
ROOT
ATOM      1  O   UNL     1      34.793 -24.874 -11.428  0.00  0.00    -0.270 OA
ATOM      2  N   UNL     1      35.761 -24.924 -13.583  0.00  0.00    -0.265 N 
ATOM      3  C   UNL     1      35.365 -24.529 -14.930  0.00  0.00    +0.124 C 
ATOM      4  C   UNL     1      33.996 -23.985 -14.702  0.00  0.00    +0.036 C 
ATOM      5  C   UNL     1      34.784 -24.669 -12.628  0.00  0.00    +0.249 C 
ATOM      6  C   UNL     1      33.656 -24.069 -13.351  0.00  0.00    +0.054 C 
ATOM      7  C   UNL     1      33.105 -23.453 -15.614  0.00  0.00    +0.137 C 
ATOM      8  C   UNL     1      32.441 -23.634 -12.859  0.00  0.00    +0.004 C 
ATOM      9  C   UNL     1      31.866 -23.006 -15.142  0.00  0.00    +0.037 C 
ATOM     10  C   UNL     1      31.538 -23.096 -13.776  0.00  0.00    +0.003 C 
ENDROOT
BRANCH   2  14
ATOM     11  O   UNL     1      37.697 -23.304 -12.564  0.00  0.00    -0.273 OA
ATOM     12  O   UNL     1      41.079 -26.107 -13.946  0.00  0.00    -0.275 OA
ATOM     13  N   UNL     1      39.357 -24.722 -13.292  0.00  0.00    -0.254 N 
ATOM     14  C   UNL     1      37.035 -25.518 -13.274  0.00  0.00    +0.153 C 
ATOM     15  C   UNL     1      37.503 -26.432 -14.396  0.00  0.00    +0.039 C 
ATOM     16  C   UNL     1      38.862 -27.008 -14.041  0.00  0.00    +0.088 C 
ATOM     17  C   UNL     1      38.027 -24.394 -13.030  0.00  0.00    +0.246 C 
ATOM     18  C   UNL     1      39.874 -25.917 -13.781  0.00  0.00    +0.228 C 
ATOM     19  H   UNL     1      40.015 -24.014 -13.105  0.00  0.00    +0.158 HD
ENDBRANCH   2  14
BRANCH   7  20
ATOM     20  O   UNL     1      33.412 -23.364 -16.933  0.00  0.00    -0.471 OA
BRANCH  20  21
ATOM     21  C   UNL     1      32.546 -22.578 -17.753  0.00  0.00    +0.232 C 
BRANCH  21  23
ATOM     22  C   UNL     1      34.919 -20.214 -20.435  0.00  0.00    -0.043 C 
ATOM     23  C   UNL     1      33.376 -21.753 -18.693  0.00  0.00    +0.021 C 
ATOM     24  C   UNL     1      35.539 -21.089 -19.541  0.00  0.00    -0.007 C 
ATOM     25  C   UNL     1      33.529 -20.109 -20.457  0.00  0.00    -0.007 C 
ATOM     26  C   UNL     1      34.766 -21.858 -18.670  0.00  0.00    -0.001 C 
ATOM     27  C   UNL     1      32.757 -20.879 -19.586  0.00  0.00    -0.001 C 
BRANCH  22  28
ATOM     28  C   UNL     1      35.745 -19.392 -21.365  0.00  0.00    -0.050 C 
BRANCH  28  30
ATOM     29  O   UNL     1      34.503 -17.267 -24.765  0.00  0.00    -0.358 OA
ATOM     30  N   UNL     1      34.928 -18.611 -22.292  0.00  0.00    +0.393 N 
ATOM     31  C   UNL     1      35.561 -17.317 -22.582  0.00  0.00    -0.044 C 
ATOM     32  C   UNL     1      34.702 -19.353 -23.540  0.00  0.00    -0.044 C 
ATOM     33  C   UNL     1      33.859 -18.513 -24.496  0.00  0.00    +0.119 C 
ATOM     34  C   UNL     1      34.697 -16.526 -23.560  0.00  0.00    +0.119 C 
ATOM     35  H   UNL     1      34.026 -18.440 -21.846  0.00  0.00    -0.079 HD
ENDBRANCH  28  30
ENDBRANCH  22  28
ENDBRANCH  21  23
ENDBRANCH  20  21
ENDBRANCH   7  20
TORSDOF 6
ENDMDL
MODEL 2
REMARK VINA RESULT:     -12.6      1.663      2.335
REMARK  Name = 67335295
REMARK  6 active torsions:
REMARK  status: ('A' for Active; 'I' for Inactive)
REMARK    1  A    between atoms: N_2  and  C_14
REMARK    2  A    between atoms: C_7  and  O_20
REMARK    3  A    between atoms: O_20  and  C_21
REMARK    4  A    between atoms: C_21  and  C_23
REMARK    5  A    between atoms: C_22  and  C_28
REMARK    6  A    between atoms: C_28  and  N_30
REMARK                            x       y       z     vdW  Elec       q    Type
REMARK                         _______ _______ _______ _____ _____    ______ ____
ROOT
ATOM      1  O   UNL     1      32.659 -25.050 -12.432  0.00  0.00    -0.270 OA
ATOM      2  N   UNL     1      34.016 -24.003 -14.059  0.00  0.00    -0.265 N 
ATOM      3  C   UNL     1      33.804 -23.291 -15.314  0.00  0.00    +0.124 C 
ATOM      4  C   UNL     1      32.319 -23.331 -15.444  0.00  0.00    +0.036 C 
ATOM      5  C   UNL     1      32.834 -24.436 -13.469  0.00  0.00    +0.249 C 
ATOM      6  C   UNL     1      31.752 -24.003 -14.361  0.00  0.00    +0.054 C 
ATOM      7  C   UNL     1      31.516 -22.813 -16.442  0.00  0.00    +0.137 C 
ATOM      8  C   UNL     1      30.390 -24.186 -14.226  0.00  0.00    +0.004 C 
ATOM      9  C   UNL     1      30.132 -22.985 -16.331  0.00  0.00    +0.037 C 
ATOM     10  C   UNL     1      29.574 -23.666 -15.232  0.00  0.00    +0.003 C 
ENDROOT
BRANCH   2  14
ATOM     11  O   UNL     1      35.490 -26.063 -15.059  0.00  0.00    -0.273 OA
ATOM     12  O   UNL     1      38.002 -26.419 -11.217  0.00  0.00    -0.275 OA
ATOM     13  N   UNL     1      36.706 -26.221 -13.113  0.00  0.00    -0.254 N 
ATOM     14  C   UNL     1      35.317 -24.233 -13.489  0.00  0.00    +0.153 C 
ATOM     15  C   UNL     1      35.270 -24.169 -11.970  0.00  0.00    +0.039 C 
ATOM     16  C   UNL     1      36.654 -24.450 -11.412  0.00  0.00    +0.088 C 
ATOM     17  C   UNL     1      35.803 -25.589 -13.967  0.00  0.00    +0.246 C 
ATOM     18  C   UNL     1      37.176 -25.789 -11.876  0.00  0.00    +0.228 C 
ATOM     19  H   UNL     1      37.058 -27.086 -13.427  0.00  0.00    +0.158 HD
ENDBRANCH   2  14
BRANCH   7  20
ATOM     20  O   UNL     1      32.045 -22.158 -17.507  0.00  0.00    -0.471 OA
BRANCH  20  21
ATOM     21  C   UNL     1      33.155 -22.770 -18.164  0.00  0.00    +0.232 C 
BRANCH  21  23
ATOM     22  C   UNL     1      35.106 -19.856 -20.638  0.00  0.00    -0.043 C 
ATOM     23  C   UNL     1      33.837 -21.750 -19.027  0.00  0.00    +0.021 C 
ATOM     24  C   UNL     1      33.712 -19.919 -20.599  0.00  0.00    -0.007 C 
ATOM     25  C   UNL     1      35.864 -20.740 -19.871  0.00  0.00    -0.007 C 
ATOM     26  C   UNL     1      33.078 -20.866 -19.794  0.00  0.00    -0.001 C 
ATOM     27  C   UNL     1      35.230 -21.687 -19.065  0.00  0.00    -0.001 C 
BRANCH  22  28
ATOM     28  C   UNL     1      35.782 -18.845 -21.499  0.00  0.00    -0.050 C 
BRANCH  28  30
ATOM     29  O   UNL     1      34.233 -17.140 -25.008  0.00  0.00    -0.358 OA
ATOM     30  N   UNL     1      34.865 -18.223 -22.452  0.00  0.00    +0.393 N 
ATOM     31  C   UNL     1      35.365 -16.907 -22.874  0.00  0.00    -0.044 C 
ATOM     32  C   UNL     1      34.667 -19.087 -23.624  0.00  0.00    -0.044 C 
ATOM     33  C   UNL     1      33.717 -18.412 -24.610  0.00  0.00    +0.119 C 
ATOM     34  C   UNL     1      34.398 -16.285 -23.877  0.00  0.00    +0.119 C 
ATOM     35  H   UNL     1      33.967 -18.096 -21.985  0.00  0.00    -0.079 HD
ENDBRANCH  28  30
ENDBRANCH  22  28
ENDBRANCH  21  23
ENDBRANCH  20  21
ENDBRANCH   7  20
TORSDOF 6
ENDMDL
MODEL 3
REMARK VINA RESULT:     -11.8      3.429     12.209
REMARK  Name = 67335295
REMARK  6 active torsions:
REMARK  status: ('A' for Active; 'I' for Inactive)
REMARK    1  A    between atoms: N_2  and  C_14
REMARK    2  A    between atoms: C_7  and  O_20
REMARK    3  A    between atoms: O_20  and  C_21
REMARK    4  A    between atoms: C_21  and  C_23
REMARK    5  A    between atoms: C_22  and  C_28
REMARK    6  A    between atoms: C_28  and  N_30
REMARK                            x       y       z     vdW  Elec       q    Type
REMARK                         _______ _______ _______ _____ _____    ______ ____
ROOT
ATOM      1  O   UNL     1      33.318 -14.504 -25.040  0.00  0.00    -0.270 OA
ATOM      2  N   UNL     1      34.173 -14.362 -22.842  0.00  0.00    -0.265 N 
ATOM      3  C   UNL     1      34.755 -15.282 -21.872  0.00  0.00    +0.124 C 
ATOM      4  C   UNL     1      34.722 -16.574 -22.615  0.00  0.00    +0.036 C 
ATOM      5  C   UNL     1      33.819 -14.977 -24.037  0.00  0.00    +0.249 C 
ATOM      6  C   UNL     1      34.173 -16.393 -23.885  0.00  0.00    +0.054 C 
ATOM      7  C   UNL     1      35.145 -17.826 -22.210  0.00  0.00    +0.137 C 
ATOM      8  C   UNL     1      34.023 -17.428 -24.788  0.00  0.00    +0.004 C 
ATOM      9  C   UNL     1      35.004 -18.891 -23.104  0.00  0.00    +0.037 C 
ATOM     10  C   UNL     1      34.448 -18.694 -24.382  0.00  0.00    +0.003 C 
ENDROOT
BRANCH   2  14
ATOM     11  O   UNL     1      32.318 -13.649 -20.981  0.00  0.00    -0.273 OA
ATOM     12  O   UNL     1      31.802  -9.444 -22.785  0.00  0.00    -0.275 OA
ATOM     13  N   UNL     1      32.075 -11.566 -21.928  0.00  0.00    -0.254 N 
ATOM     14  C   UNL     1      33.986 -12.958 -22.588  0.00  0.00    +0.153 C 
ATOM     15  C   UNL     1      33.913 -12.169 -23.887  0.00  0.00    +0.039 C 
ATOM     16  C   UNL     1      33.681 -10.702 -23.572  0.00  0.00    +0.088 C 
ATOM     17  C   UNL     1      32.715 -12.796 -21.774  0.00  0.00    +0.246 C 
ATOM     18  C   UNL     1      32.429 -10.503 -22.753  0.00  0.00    +0.228 C 
ATOM     19  H   UNL     1      31.268 -11.433 -21.380  0.00  0.00    +0.158 HD
ENDBRANCH   2  14
BRANCH   7  20
ATOM     20  O   UNL     1      35.680 -18.026 -20.978  0.00  0.00    -0.471 OA
BRANCH  20  21
ATOM     21  C   UNL     1      36.476 -19.198 -20.796  0.00  0.00    +0.232 C 
BRANCH  21  23
ATOM     22  C   UNL     1      34.175 -22.142 -18.685  0.00  0.00    -0.043 C 
ATOM     23  C   UNL     1      35.671 -20.226 -20.056  0.00  0.00    +0.021 C 
ATOM     24  C   UNL     1      35.564 -22.112 -18.549  0.00  0.00    -0.007 C 
ATOM     25  C   UNL     1      33.535 -21.215 -19.508  0.00  0.00    -0.007 C 
ATOM     26  C   UNL     1      36.311 -21.154 -19.234  0.00  0.00    -0.001 C 
ATOM     27  C   UNL     1      34.283 -20.257 -20.192  0.00  0.00    -0.001 C 
BRANCH  22  28
ATOM     28  C   UNL     1      33.376 -23.166 -17.953  0.00  0.00    -0.050 C 
BRANCH  28  30
ATOM     29  O   UNL     1      32.870 -23.703 -13.821  0.00  0.00    -0.358 OA
ATOM     30  N   UNL     1      33.321 -22.905 -16.516  0.00  0.00    +0.393 N 
ATOM     31  C   UNL     1      31.964 -23.130 -15.998  0.00  0.00    -0.044 C 
ATOM     32  C   UNL     1      34.282 -23.750 -15.794  0.00  0.00    -0.044 C 
ATOM     33  C   UNL     1      34.197 -23.469 -14.297  0.00  0.00    +0.119 C 
ATOM     34  C   UNL     1      31.934 -22.862 -14.496  0.00  0.00    +0.119 C 
ATOM     35  H   UNL     1      33.569 -21.927 -16.366  0.00  0.00    -0.079 HD
ENDBRANCH  28  30
ENDBRANCH  22  28
ENDBRANCH  21  23
ENDBRANCH  20  21
ENDBRANCH   7  20
TORSDOF 6
ENDMDL
MODEL 4
REMARK VINA RESULT:     -11.5      7.854     15.625
REMARK  Name = 67335295
REMARK  6 active torsions:
REMARK  status: ('A' for Active; 'I' for Inactive)
REMARK    1  A    between atoms: N_2  and  C_14
REMARK    2  A    between atoms: C_7  and  O_20
REMARK    3  A    between atoms: O_20  and  C_21
REMARK    4  A    between atoms: C_21  and  C_23
REMARK    5  A    between atoms: C_22  and  C_28
REMARK    6  A    between atoms: C_28  and  N_30
REMARK                            x       y       z     vdW  Elec       q    Type
REMARK                         _______ _______ _______ _____ _____    ______ ____
ROOT
ATOM      1  O   UNL     1      32.690  -6.336 -20.277  0.00  0.00    -0.270 OA
ATOM      2  N   UNL     1      32.965  -7.408 -22.365  0.00  0.00    -0.265 N 
ATOM      3  C   UNL     1      32.813  -8.760 -22.887  0.00  0.00    +0.124 C 
ATOM      4  C   UNL     1      32.376  -9.511 -21.676  0.00  0.00    +0.036 C 
ATOM      5  C   UNL     1      32.666  -7.307 -21.011  0.00  0.00    +0.249 C 
ATOM      6  C   UNL     1      32.291  -8.657 -20.576  0.00  0.00    +0.054 C 
ATOM      7  C   UNL     1      32.072 -10.853 -21.543  0.00  0.00    +0.137 C 
ATOM      8  C   UNL     1      31.907  -9.090 -19.322  0.00  0.00    +0.004 C 
ATOM      9  C   UNL     1      31.681 -11.318 -20.283  0.00  0.00    +0.037 C 
ATOM     10  C   UNL     1      31.599 -10.444 -19.183  0.00  0.00    +0.003 C 
ENDROOT
BRANCH   2  14
ATOM     11  O   UNL     1      31.026  -5.929 -23.576  0.00  0.00    -0.273 OA
ATOM     12  O   UNL     1      33.921  -4.367 -26.798  0.00  0.00    -0.275 OA
ATOM     13  N   UNL     1      32.501  -5.190 -25.180  0.00  0.00    -0.254 N 
ATOM     14  C   UNL     1      33.381  -6.289 -23.170  0.00  0.00    +0.153 C 
ATOM     15  C   UNL     1      34.546  -6.665 -24.073  0.00  0.00    +0.039 C 
ATOM     16  C   UNL     1      34.928  -5.468 -24.924  0.00  0.00    +0.088 C 
ATOM     17  C   UNL     1      32.184  -5.825 -23.979  0.00  0.00    +0.246 C 
ATOM     18  C   UNL     1      33.757  -4.971 -25.738  0.00  0.00    +0.228 C 
ATOM     19  H   UNL     1      31.736  -4.853 -25.699  0.00  0.00    +0.158 HD
ENDBRANCH   2  14
BRANCH   7  20
ATOM     20  O   UNL     1      32.150 -11.703 -22.598  0.00  0.00    -0.471 OA
BRANCH  20  21
ATOM     21  C   UNL     1      33.419 -11.830 -23.241  0.00  0.00    +0.232 C 
BRANCH  21  23
ATOM     22  C   UNL     1      34.451 -15.988 -23.483  0.00  0.00    -0.043 C 
ATOM     23  C   UNL     1      33.782 -13.283 -23.327  0.00  0.00    +0.021 C 
ATOM     24  C   UNL     1      33.879 -15.345 -24.583  0.00  0.00    -0.007 C 
ATOM     25  C   UNL     1      34.687 -15.278 -22.306  0.00  0.00    -0.007 C 
ATOM     26  C   UNL     1      33.545 -13.993 -24.504  0.00  0.00    -0.001 C 
ATOM     27  C   UNL     1      34.353 -13.925 -22.228  0.00  0.00    -0.001 C 
BRANCH  22  28
ATOM     28  C   UNL     1      34.808 -17.433 -23.568  0.00  0.00    -0.050 C 
BRANCH  28  30
ATOM     29  O   UNL     1      36.135 -20.075 -20.588  0.00  0.00    -0.358 OA
ATOM     30  N   UNL     1      35.121 -18.006 -22.260  0.00  0.00    +0.393 N 
ATOM     31  C   UNL     1      34.378 -19.256 -22.048  0.00  0.00    -0.044 C 
ATOM     32  C   UNL     1      36.564 -18.249 -22.129  0.00  0.00    -0.044 C 
ATOM     33  C   UNL     1      36.865 -18.859 -20.762  0.00  0.00    +0.119 C 
ATOM     34  C   UNL     1      34.730 -19.841 -20.683  0.00  0.00    +0.119 C 
ATOM     35  H   UNL     1      34.837 -17.334 -21.548  0.00  0.00    -0.079 HD
ENDBRANCH  28  30
ENDBRANCH  22  28
ENDBRANCH  21  23
ENDBRANCH  20  21
ENDBRANCH   7  20
TORSDOF 6
ENDMDL
MODEL 5
REMARK VINA RESULT:     -10.6      8.835     16.594
REMARK  Name = 67335295
REMARK  6 active torsions:
REMARK  status: ('A' for Active; 'I' for Inactive)
REMARK    1  A    between atoms: N_2  and  C_14
REMARK    2  A    between atoms: C_7  and  O_20
REMARK    3  A    between atoms: O_20  and  C_21
REMARK    4  A    between atoms: C_21  and  C_23
REMARK    5  A    between atoms: C_22  and  C_28
REMARK    6  A    between atoms: C_28  and  N_30
REMARK                            x       y       z     vdW  Elec       q    Type
REMARK                         _______ _______ _______ _____ _____    ______ ____
ROOT
ATOM      1  O   UNL     1      32.626  -4.807 -21.672  0.00  0.00    -0.270 OA
ATOM      2  N   UNL     1      32.342  -6.490 -23.306  0.00  0.00    -0.265 N 
ATOM      3  C   UNL     1      32.095  -7.927 -23.312  0.00  0.00    +0.124 C 
ATOM      4  C   UNL     1      32.037  -8.236 -21.854  0.00  0.00    +0.036 C 
ATOM      5  C   UNL     1      32.430  -5.955 -22.026  0.00  0.00    +0.249 C 
ATOM      6  C   UNL     1      32.234  -7.078 -21.101  0.00  0.00    +0.054 C 
ATOM      7  C   UNL     1      31.825  -9.449 -21.226  0.00  0.00    +0.137 C 
ATOM      8  C   UNL     1      32.230  -7.075 -19.720  0.00  0.00    +0.004 C 
ATOM      9  C   UNL     1      31.817  -9.475 -19.828  0.00  0.00    +0.037 C 
ATOM     10  C   UNL     1      32.017  -8.298 -19.082  0.00  0.00    +0.003 C 
ENDROOT
BRANCH   2  14
ATOM     11  O   UNL     1      34.850  -6.145 -24.309  0.00  0.00    -0.273 OA
ATOM     12  O   UNL     1      33.660  -2.308 -26.559  0.00  0.00    -0.275 OA
ATOM     13  N   UNL     1      34.219  -4.220 -25.399  0.00  0.00    -0.254 N 
ATOM     14  C   UNL     1      32.482  -5.705 -24.504  0.00  0.00    +0.153 C 
ATOM     15  C   UNL     1      31.652  -4.432 -24.427  0.00  0.00    +0.039 C 
ATOM     16  C   UNL     1      31.855  -3.622 -25.694  0.00  0.00    +0.088 C 
ATOM     17  C   UNL     1      33.955  -5.390 -24.688  0.00  0.00    +0.246 C 
ATOM     18  C   UNL     1      33.313  -3.298 -25.916  0.00  0.00    +0.228 C 
ATOM     19  H   UNL     1      35.170  -4.021 -25.556  0.00  0.00    +0.158 HD
ENDBRANCH   2  14
BRANCH   7  20
ATOM     20  O   UNL     1      31.633 -10.589 -21.938  0.00  0.00    -0.471 OA
BRANCH  20  21
ATOM     21  C   UNL     1      31.429 -11.793 -21.198  0.00  0.00    +0.232 C 
BRANCH  21  23
ATOM     22  C   UNL     1      34.276 -14.734 -22.486  0.00  0.00    -0.043 C 
ATOM     23  C   UNL     1      32.426 -12.820 -21.648  0.00  0.00    +0.021 C 
ATOM     24  C   UNL     1      33.608 -13.949 -23.427  0.00  0.00    -0.007 C 
ATOM     25  C   UNL     1      34.018 -14.562 -21.126  0.00  0.00    -0.007 C 
ATOM     26  C   UNL     1      32.683 -12.993 -23.008  0.00  0.00    -0.001 C 
ATOM     27  C   UNL     1      33.093 -13.604 -20.707  0.00  0.00    -0.001 C 
BRANCH  22  28
ATOM     28  C   UNL     1      35.264 -15.757 -22.934  0.00  0.00    -0.050 C 
BRANCH  28  30
ATOM     29  O   UNL     1      34.741 -19.850 -23.701  0.00  0.00    -0.358 OA
ATOM     30  N   UNL     1      34.701 -17.106 -22.946  0.00  0.00    +0.393 N 
ATOM     31  C   UNL     1      34.394 -17.530 -24.320  0.00  0.00    -0.044 C 
ATOM     32  C   UNL     1      35.624 -18.061 -22.319  0.00  0.00    -0.044 C 
ATOM     33  C   UNL     1      35.022 -19.463 -22.355  0.00  0.00    +0.119 C 
ATOM     34  C   UNL     1      33.820 -18.944 -24.308  0.00  0.00    +0.119 C 
ATOM     35  H   UNL     1      33.834 -17.088 -22.409  0.00  0.00    -0.079 HD
ENDBRANCH  28  30
ENDBRANCH  22  28
ENDBRANCH  21  23
ENDBRANCH  20  21
ENDBRANCH   7  20
TORSDOF 6
ENDMDL
MODEL 6
REMARK VINA RESULT:     -10.6      5.383     10.199
REMARK  Name = 67335295
REMARK  6 active torsions:
REMARK  status: ('A' for Active; 'I' for Inactive)
REMARK    1  A    between atoms: N_2  and  C_14
REMARK    2  A    between atoms: C_7  and  O_20
REMARK    3  A    between atoms: O_20  and  C_21
REMARK    4  A    between atoms: C_21  and  C_23
REMARK    5  A    between atoms: C_22  and  C_28
REMARK    6  A    between atoms: C_28  and  N_30
REMARK                            x       y       z     vdW  Elec       q    Type
REMARK                         _______ _______ _______ _____ _____    ______ ____
ROOT
ATOM      1  O   UNL     1      34.922 -20.185 -23.702  0.00  0.00    -0.270 OA
ATOM      2  N   UNL     1      35.186 -19.211 -21.565  0.00  0.00    -0.265 N 
ATOM      3  C   UNL     1      35.163 -17.865 -21.007  0.00  0.00    +0.124 C 
ATOM      4  C   UNL     1      34.899 -17.034 -22.216  0.00  0.00    +0.036 C 
ATOM      5  C   UNL     1      34.967 -19.239 -22.938  0.00  0.00    +0.249 C 
ATOM      6  C   UNL     1      34.784 -17.842 -23.348  0.00  0.00    +0.054 C 
ATOM      7  C   UNL     1      34.766 -15.662 -22.322  0.00  0.00    +0.137 C 
ATOM      8  C   UNL     1      34.537 -17.332 -24.608  0.00  0.00    +0.004 C 
ATOM      9  C   UNL     1      34.517 -15.119 -23.586  0.00  0.00    +0.037 C 
ATOM     10  C   UNL     1      34.403 -15.947 -24.719  0.00  0.00    +0.003 C 
ENDROOT
BRANCH   2  14
ATOM     11  O   UNL     1      33.005 -20.537 -20.618  0.00  0.00    -0.273 OA
ATOM     12  O   UNL     1      35.400 -22.488 -17.204  0.00  0.00    -0.275 OA
ATOM     13  N   UNL     1      34.235 -21.473 -18.913  0.00  0.00    -0.254 N 
ATOM     14  C   UNL     1      35.413 -20.393 -20.776  0.00  0.00    +0.153 C 
ATOM     15  C   UNL     1      36.509 -20.165 -19.747  0.00  0.00    +0.039 C 
ATOM     16  C   UNL     1      36.690 -21.424 -18.917  0.00  0.00    +0.088 C 
ATOM     17  C   UNL     1      34.102 -20.767 -20.109  0.00  0.00    +0.246 C 
ATOM     18  C   UNL     1      35.401 -21.833 -18.245  0.00  0.00    +0.228 C 
ATOM     19  H   UNL     1      33.392 -21.753 -18.487  0.00  0.00    +0.158 HD
ENDBRANCH   2  14
BRANCH   7  20
ATOM     20  O   UNL     1      34.876 -14.856 -21.235  0.00  0.00    -0.471 OA
BRANCH  20  21
ATOM     21  C   UNL     1      33.695 -14.638 -20.463  0.00  0.00    +0.232 C 
BRANCH  21  23
ATOM     22  C   UNL     1      31.819 -11.008 -21.773  0.00  0.00    -0.043 C 
ATOM     23  C   UNL     1      33.037 -13.370 -20.922  0.00  0.00    +0.021 C 
ATOM     24  C   UNL     1      32.718 -11.671 -22.611  0.00  0.00    -0.007 C 
ATOM     25  C   UNL     1      31.530 -11.525 -20.511  0.00  0.00    -0.007 C 
ATOM     26  C   UNL     1      33.327 -12.852 -22.184  0.00  0.00    -0.001 C 
ATOM     27  C   UNL     1      32.139 -12.707 -20.085  0.00  0.00    -0.001 C 
BRANCH  22  28
ATOM     28  C   UNL     1      31.169  -9.746 -22.229  0.00  0.00    -0.050 C 
BRANCH  28  30
ATOM     29  O   UNL     1      33.111  -6.043 -22.598  0.00  0.00    -0.358 OA
ATOM     30  N   UNL     1      32.144  -8.720 -22.597  0.00  0.00    +0.393 N 
ATOM     31  C   UNL     1      31.516  -7.676 -23.419  0.00  0.00    -0.044 C 
ATOM     32  C   UNL     1      32.748  -8.121 -21.399  0.00  0.00    -0.044 C 
ATOM     33  C   UNL     1      33.751  -7.046 -21.807  0.00  0.00    +0.119 C 
ATOM     34  C   UNL     1      32.548  -6.612 -23.780  0.00  0.00    +0.119 C 
ATOM     35  H   UNL     1      32.878  -9.168 -23.144  0.00  0.00    -0.079 HD
ENDBRANCH  28  30
ENDBRANCH  22  28
ENDBRANCH  21  23
ENDBRANCH  20  21
ENDBRANCH   7  20
TORSDOF 6
ENDMDL
MODEL 7
REMARK VINA RESULT:     -10.5      7.131     15.142
REMARK  Name = 67335295
REMARK  6 active torsions:
REMARK  status: ('A' for Active; 'I' for Inactive)
REMARK    1  A    between atoms: N_2  and  C_14
REMARK    2  A    between atoms: C_7  and  O_20
REMARK    3  A    between atoms: O_20  and  C_21
REMARK    4  A    between atoms: C_21  and  C_23
REMARK    5  A    between atoms: C_22  and  C_28
REMARK    6  A    between atoms: C_28  and  N_30
REMARK                            x       y       z     vdW  Elec       q    Type
REMARK                         _______ _______ _______ _____ _____    ______ ____
ROOT
ATOM      1  O   UNL     1      31.242  -7.951 -21.624  0.00  0.00    -0.270 OA
ATOM      2  N   UNL     1      32.666  -8.648 -23.376  0.00  0.00    -0.265 N 
ATOM      3  C   UNL     1      33.286  -9.897 -23.801  0.00  0.00    +0.124 C 
ATOM      4  C   UNL     1      32.794 -10.852 -22.768  0.00  0.00    +0.036 C 
ATOM      5  C   UNL     1      31.887  -8.784 -22.233  0.00  0.00    +0.249 C 
ATOM      6  C   UNL     1      31.974 -10.198 -21.848  0.00  0.00    +0.054 C 
ATOM      7  C   UNL     1      33.046 -12.205 -22.638  0.00  0.00    +0.137 C 
ATOM      8  C   UNL     1      31.381 -10.846 -20.782  0.00  0.00    +0.004 C 
ATOM      9  C   UNL     1      32.459 -12.886 -21.568  0.00  0.00    +0.037 C 
ATOM     10  C   UNL     1      31.633 -12.212 -20.648  0.00  0.00    +0.003 C 
ENDROOT
BRANCH   2  14
ATOM     11  O   UNL     1      34.678  -7.011 -22.547  0.00  0.00    -0.273 OA
ATOM     12  O   UNL     1      32.658  -3.270 -24.315  0.00  0.00    -0.275 OA
ATOM     13  N   UNL     1      33.623  -5.164 -23.426  0.00  0.00    -0.254 N 
ATOM     14  C   UNL     1      32.841  -7.399 -24.070  0.00  0.00    +0.153 C 
ATOM     15  C   UNL     1      31.509  -6.700 -24.290  0.00  0.00    +0.039 C 
ATOM     16  C   UNL     1      31.746  -5.377 -24.994  0.00  0.00    +0.088 C 
ATOM     17  C   UNL     1      33.786  -6.538 -23.251  0.00  0.00    +0.246 C 
ATOM     18  C   UNL     1      32.690  -4.496 -24.212  0.00  0.00    +0.228 C 
ATOM     19  H   UNL     1      34.252  -4.593 -22.927  0.00  0.00    +0.158 HD
ENDBRANCH   2  14
BRANCH   7  20
ATOM     20  O   UNL     1      33.842 -12.863 -23.520  0.00  0.00    -0.471 OA
BRANCH  20  21
ATOM     21  C   UNL     1      33.298 -14.023 -24.151  0.00  0.00    +0.232 C 
BRANCH  21  23
ATOM     22  C   UNL     1      35.408 -17.494 -22.768  0.00  0.00    -0.043 C 
ATOM     23  C   UNL     1      34.038 -15.236 -23.668  0.00  0.00    +0.021 C 
ATOM     24  C   UNL     1      34.832 -17.487 -24.040  0.00  0.00    -0.007 C 
ATOM     25  C   UNL     1      35.297 -16.372 -21.947  0.00  0.00    -0.007 C 
ATOM     26  C   UNL     1      34.147 -16.358 -24.489  0.00  0.00    -0.001 C 
ATOM     27  C   UNL     1      34.613 -15.243 -22.397  0.00  0.00    -0.001 C 
BRANCH  22  28
ATOM     28  C   UNL     1      36.139 -18.702 -22.288  0.00  0.00    -0.050 C 
BRANCH  28  30
ATOM     29  O   UNL     1      34.502 -21.442 -19.563  0.00  0.00    -0.358 OA
ATOM     30  N   UNL     1      35.542 -19.270 -21.081  0.00  0.00    +0.393 N 
ATOM     31  C   UNL     1      34.226 -19.855 -21.377  0.00  0.00    -0.044 C 
ATOM     32  C   UNL     1      36.424 -20.288 -20.493  0.00  0.00    -0.044 C 
ATOM     33  C   UNL     1      35.774 -20.876 -19.243  0.00  0.00    +0.119 C 
ATOM     34  C   UNL     1      33.629 -20.452 -20.107  0.00  0.00    +0.119 C 
ATOM     35  H   UNL     1      35.419 -18.515 -20.407  0.00  0.00    -0.079 HD
ENDBRANCH  28  30
ENDBRANCH  22  28
ENDBRANCH  21  23
ENDBRANCH  20  21
ENDBRANCH   7  20
TORSDOF 6
ENDMDL
MODEL 8
REMARK VINA RESULT:     -10.4      2.298      3.660
REMARK  Name = 67335295
REMARK  6 active torsions:
REMARK  status: ('A' for Active; 'I' for Inactive)
REMARK    1  A    between atoms: N_2  and  C_14
REMARK    2  A    between atoms: C_7  and  O_20
REMARK    3  A    between atoms: O_20  and  C_21
REMARK    4  A    between atoms: C_21  and  C_23
REMARK    5  A    between atoms: C_22  and  C_28
REMARK    6  A    between atoms: C_28  and  N_30
REMARK                            x       y       z     vdW  Elec       q    Type
REMARK                         _______ _______ _______ _____ _____    ______ ____
ROOT
ATOM      1  O   UNL     1      33.757 -24.647 -14.533  0.00  0.00    -0.270 OA
ATOM      2  N   UNL     1      35.803 -23.668 -15.195  0.00  0.00    -0.265 N 
ATOM      3  C   UNL     1      36.251 -22.759 -16.244  0.00  0.00    +0.124 C 
ATOM      4  C   UNL     1      34.982 -22.489 -16.979  0.00  0.00    +0.036 C 
ATOM      5  C   UNL     1      34.441 -23.940 -15.250  0.00  0.00    +0.249 C 
ATOM      6  C   UNL     1      33.922 -23.183 -16.395  0.00  0.00    +0.054 C 
ATOM      7  C   UNL     1      34.768 -21.689 -18.086  0.00  0.00    +0.137 C 
ATOM      8  C   UNL     1      32.629 -23.113 -16.876  0.00  0.00    +0.004 C 
ATOM      9  C   UNL     1      33.468 -21.601 -18.593  0.00  0.00    +0.037 C 
ATOM     10  C   UNL     1      32.408 -22.307 -17.993  0.00  0.00    +0.003 C 
ENDROOT
BRANCH   2  14
ATOM     11  O   UNL     1      36.424 -26.311 -15.396  0.00  0.00    -0.273 OA
ATOM     12  O   UNL     1      37.474 -26.630 -10.924  0.00  0.00    -0.275 OA
ATOM     13  N   UNL     1      36.917 -26.432 -13.152  0.00  0.00    -0.254 N 
ATOM     14  C   UNL     1      36.683 -24.226 -14.202  0.00  0.00    +0.153 C 
ATOM     15  C   UNL     1      36.290 -23.774 -12.803  0.00  0.00    +0.039 C 
ATOM     16  C   UNL     1      37.222 -24.412 -11.789  0.00  0.00    +0.088 C 
ATOM     17  C   UNL     1      36.629 -25.738 -14.327  0.00  0.00    +0.246 C 
ATOM     18  C   UNL     1      37.202 -25.918 -11.890  0.00  0.00    +0.228 C 
ATOM     19  H   UNL     1      36.920 -27.414 -13.226  0.00  0.00    +0.158 HD
ENDBRANCH   2  14
BRANCH   7  20
ATOM     20  O   UNL     1      35.784 -21.007 -18.672  0.00  0.00    -0.471 OA
BRANCH  20  21
ATOM     21  C   UNL     1      36.119 -21.361 -20.015  0.00  0.00    +0.232 C 
BRANCH  21  23
ATOM     22  C   UNL     1      35.398 -17.997 -22.579  0.00  0.00    -0.043 C 
ATOM     23  C   UNL     1      35.866 -20.184 -20.910  0.00  0.00    +0.021 C 
ATOM     24  C   UNL     1      34.447 -19.014 -22.477  0.00  0.00    -0.007 C 
ATOM     25  C   UNL     1      36.582 -18.075 -21.847  0.00  0.00    -0.007 C 
ATOM     26  C   UNL     1      34.681 -20.107 -21.642  0.00  0.00    -0.001 C 
ATOM     27  C   UNL     1      36.816 -19.168 -21.012  0.00  0.00    -0.001 C 
BRANCH  22  28
ATOM     28  C   UNL     1      35.147 -16.830 -23.472  0.00  0.00    -0.050 C 
BRANCH  28  30
ATOM     29  O   UNL     1      33.496 -13.716 -21.191  0.00  0.00    -0.358 OA
ATOM     30  N   UNL     1      35.004 -15.580 -22.726  0.00  0.00    +0.393 N 
ATOM     31  C   UNL     1      33.989 -14.717 -23.346  0.00  0.00    -0.044 C 
ATOM     32  C   UNL     1      34.649 -15.847 -21.325  0.00  0.00    -0.044 C 
ATOM     33  C   UNL     1      34.492 -14.530 -20.570  0.00  0.00    +0.119 C 
ATOM     34  C   UNL     1      33.849 -13.426 -22.544  0.00  0.00    +0.119 C 
ATOM     35  H   UNL     1      35.901 -15.097 -22.749  0.00  0.00    -0.079 HD
ENDBRANCH  28  30
ENDBRANCH  22  28
ENDBRANCH  21  23
ENDBRANCH  20  21
ENDBRANCH   7  20
TORSDOF 6
ENDMDL
MODEL 9
REMARK VINA RESULT:     -10.2      3.081     12.000
REMARK  Name = 67335295
REMARK  6 active torsions:
REMARK  status: ('A' for Active; 'I' for Inactive)
REMARK    1  A    between atoms: N_2  and  C_14
REMARK    2  A    between atoms: C_7  and  O_20
REMARK    3  A    between atoms: O_20  and  C_21
REMARK    4  A    between atoms: C_21  and  C_23
REMARK    5  A    between atoms: C_22  and  C_28
REMARK    6  A    between atoms: C_28  and  N_30
REMARK                            x       y       z     vdW  Elec       q    Type
REMARK                         _______ _______ _______ _____ _____    ______ ____
ROOT
ATOM      1  O   UNL     1      33.490 -15.333 -24.843  0.00  0.00    -0.270 OA
ATOM      2  N   UNL     1      34.422 -15.120 -22.681  0.00  0.00    -0.265 N 
ATOM      3  C   UNL     1      35.025 -16.011 -21.697  0.00  0.00    +0.124 C 
ATOM      4  C   UNL     1      34.951 -17.329 -22.389  0.00  0.00    +0.036 C 
ATOM      5  C   UNL     1      34.020 -15.775 -23.839  0.00  0.00    +0.249 C 
ATOM      6  C   UNL     1      34.360 -17.189 -23.646  0.00  0.00    +0.054 C 
ATOM      7  C   UNL     1      35.371 -18.571 -21.950  0.00  0.00    +0.137 C 
ATOM      8  C   UNL     1      34.167 -18.255 -24.502  0.00  0.00    +0.004 C 
ATOM      9  C   UNL     1      35.187 -19.667 -22.798  0.00  0.00    +0.037 C 
ATOM     10  C   UNL     1      34.590 -19.510 -24.064  0.00  0.00    +0.003 C 
ENDROOT
BRANCH   2  14
ATOM     11  O   UNL     1      32.840 -14.314 -20.617  0.00  0.00    -0.273 OA
ATOM     12  O   UNL     1      32.043 -10.208 -22.541  0.00  0.00    -0.275 OA
ATOM     13  N   UNL     1      32.450 -12.283 -21.624  0.00  0.00    -0.254 N 
ATOM     14  C   UNL     1      34.260 -13.705 -22.475  0.00  0.00    +0.153 C 
ATOM     15  C   UNL     1      34.000 -12.984 -23.789  0.00  0.00    +0.039 C 
ATOM     16  C   UNL     1      33.803 -11.503 -23.520  0.00  0.00    +0.088 C 
ATOM     17  C   UNL     1      33.115 -13.503 -21.500  0.00  0.00    +0.246 C 
ATOM     18  C   UNL     1      32.676 -11.263 -22.544  0.00  0.00    +0.228 C 
ATOM     19  H   UNL     1      31.727 -12.123 -20.976  0.00  0.00    +0.158 HD
ENDBRANCH   2  14
BRANCH   7  20
ATOM     20  O   UNL     1      35.946 -18.732 -20.731  0.00  0.00    -0.471 OA
BRANCH  20  21
ATOM     21  C   UNL     1      36.812 -19.854 -20.561  0.00  0.00    +0.232 C 
BRANCH  21  23
ATOM     22  C   UNL     1      35.398 -22.222 -17.273  0.00  0.00    -0.043 C 
ATOM     23  C   UNL     1      36.319 -20.684 -19.412  0.00  0.00    +0.021 C 
ATOM     24  C   UNL     1      34.594 -22.042 -18.401  0.00  0.00    -0.007 C 
ATOM     25  C   UNL     1      36.661 -21.634 -17.216  0.00  0.00    -0.007 C 
ATOM     26  C   UNL     1      35.055 -21.273 -19.470  0.00  0.00    -0.001 C 
ATOM     27  C   UNL     1      37.122 -20.865 -18.286  0.00  0.00    -0.001 C 
BRANCH  22  28
ATOM     28  C   UNL     1      34.905 -23.044 -16.131  0.00  0.00    -0.050 C 
BRANCH  28  30
ATOM     29  O   UNL     1      37.221 -25.100 -13.298  0.00  0.00    -0.358 OA
ATOM     30  N   UNL     1      35.966 -23.845 -15.524  0.00  0.00    +0.393 N 
ATOM     31  C   UNL     1      36.692 -23.066 -14.512  0.00  0.00    -0.044 C 
ATOM     32  C   UNL     1      35.416 -25.067 -14.920  0.00  0.00    -0.044 C 
ATOM     33  C   UNL     1      36.539 -25.880 -14.281  0.00  0.00    +0.119 C 
ATOM     34  C   UNL     1      37.786 -23.926 -13.884  0.00  0.00    +0.119 C 
ATOM     35  H   UNL     1      36.618 -24.111 -16.261  0.00  0.00    -0.079 HD
ENDBRANCH  28  30
ENDBRANCH  22  28
ENDBRANCH  21  23
ENDBRANCH  20  21
ENDBRANCH   7  20
TORSDOF 6
ENDMDL
