MODEL 1
REMARK VINA RESULT:     -11.8      0.000      0.000
REMARK  Name = 16363
REMARK  6 active torsions:
REMARK  status: ('A' for Active; 'I' for Inactive)
REMARK    1  A    between atoms: N_1  and  C_19
REMARK    2  A    between atoms: C_2  and  N_9
REMARK    3  A    between atoms: C_19  and  C_20
REMARK    4  A    between atoms: C_20  and  C_21
REMARK    5  A    between atoms: C_21  and  C_23
REMARK    6  A    between atoms: C_23  and  C_25
REMARK                            x       y       z     vdW  Elec       q    Type
REMARK                         _______ _______ _______ _____ _____    ______ ____
ROOT
ATOM      1  N   UNL     1      34.724 -15.260 -23.471  0.00  0.00    +0.387 N 
ATOM      2  C   UNL     1      32.990 -13.011 -22.766  0.00  0.00    +0.086 C 
ATOM      3  C   UNL     1      34.153 -13.455 -21.879  0.00  0.00    -0.000 C 
ATOM      4  C   UNL     1      33.248 -13.420 -24.216  0.00  0.00    -0.000 C 
ATOM      5  C   UNL     1      34.454 -14.944 -22.062  0.00  0.00    -0.075 C 
ATOM      6  C   UNL     1      33.579 -14.910 -24.323  0.00  0.00    -0.075 C 
ATOM      7  H   UNL     1      35.521 -14.700 -23.772  0.00  0.00    -0.080 HD
ENDROOT
BRANCH   2   9
ATOM      8  O   UNL     1      30.921 -11.499 -21.176  0.00  0.00    -0.247 OA
ATOM      9  N   UNL     1      32.773 -11.590 -22.664  0.00  0.00    -0.282 N 
ATOM     10  N   UNL     1      31.931  -9.565 -22.090  0.00  0.00    -0.305 N 
ATOM     11  C   UNL     1      33.524 -10.604 -23.319  0.00  0.00    +0.079 A 
ATOM     12  C   UNL     1      31.764 -10.964 -21.883  0.00  0.00    +0.328 A 
ATOM     13  C   UNL     1      33.001  -9.364 -22.962  0.00  0.00    +0.076 A 
ATOM     14  C   UNL     1      34.597 -10.714 -24.178  0.00  0.00    +0.019 C 
ATOM     15  C   UNL     1      33.517  -8.179 -23.439  0.00  0.00    +0.019 C 
ATOM     16  C   UNL     1      35.140  -9.525 -24.676  0.00  0.00    +0.002 C 
ATOM     17  C   UNL     1      34.605  -8.271 -24.310  0.00  0.00    +0.002 C 
ATOM     18  H   UNL     1      31.381  -8.857 -21.684  0.00  0.00    +0.170 HD
ENDBRANCH   2   9
BRANCH   1  19
ATOM     19  C   UNL     1      35.060 -16.675 -23.623  0.00  0.00    -0.077 C 
BRANCH  19  20
ATOM     20  C   UNL     1      35.440 -17.277 -22.269  0.00  0.00    -0.015 C 
BRANCH  20  21
ATOM     21  C   UNL     1      35.690 -18.785 -22.352  0.00  0.00    +0.067 C 
BRANCH  21  23
ATOM     22  O   UNL     1      37.378 -19.138 -20.664  0.00  0.00    -0.291 OA
ATOM     23  C   UNL     1      36.240 -19.379 -21.063  0.00  0.00    +0.173 C 
BRANCH  23  25
ATOM     24  F   UNL     1      32.939 -22.705 -18.028  0.00  0.00    -0.204 F 
ATOM     25  C   UNL     1      35.359 -20.267 -20.252  0.00  0.00    +0.035 C 
ATOM     26  C   UNL     1      33.995 -20.166 -20.410  0.00  0.00    +0.005 C 
ATOM     27  C   UNL     1      35.942 -21.155 -19.376  0.00  0.00    +0.005 C 
ATOM     28  C   UNL     1      33.170 -20.996 -19.652  0.00  0.00    +0.030 C 
ATOM     29  C   UNL     1      35.117 -21.986 -18.619  0.00  0.00    +0.030 C 
ATOM     30  C   UNL     1      33.732 -21.907 -18.756  0.00  0.00    +0.140 C 
ENDBRANCH  23  25
ENDBRANCH  21  23
ENDBRANCH  20  21
ENDBRANCH  19  20
ENDBRANCH   1  19
TORSDOF 6
ENDMDL
MODEL 2
REMARK VINA RESULT:     -11.4      1.497      2.188
REMARK  Name = 16363
REMARK  6 active torsions:
REMARK  status: ('A' for Active; 'I' for Inactive)
REMARK    1  A    between atoms: N_1  and  C_19
REMARK    2  A    between atoms: C_2  and  N_9
REMARK    3  A    between atoms: C_19  and  C_20
REMARK    4  A    between atoms: C_20  and  C_21
REMARK    5  A    between atoms: C_21  and  C_23
REMARK    6  A    between atoms: C_23  and  C_25
REMARK                            x       y       z     vdW  Elec       q    Type
REMARK                         _______ _______ _______ _____ _____    ______ ____
ROOT
ATOM      1  N   UNL     1      34.744 -15.835 -23.866  0.00  0.00    +0.387 N 
ATOM      2  C   UNL     1      33.205 -13.425 -23.247  0.00  0.00    +0.086 C 
ATOM      3  C   UNL     1      34.379 -13.889 -22.384  0.00  0.00    -0.000 C 
ATOM      4  C   UNL     1      33.359 -13.951 -24.673  0.00  0.00    -0.000 C 
ATOM      5  C   UNL     1      34.569 -15.404 -22.472  0.00  0.00    -0.075 C 
ATOM      6  C   UNL     1      33.583 -15.465 -24.687  0.00  0.00    -0.075 C 
ATOM      7  H   UNL     1      35.561 -15.356 -24.243  0.00  0.00    -0.080 HD
ENDROOT
BRANCH   2   9
ATOM      8  O   UNL     1      34.084 -11.423 -25.323  0.00  0.00    -0.247 OA
ATOM      9  N   UNL     1      33.090 -11.989 -23.239  0.00  0.00    -0.282 N 
ATOM     10  N   UNL     1      33.217  -9.805 -23.832  0.00  0.00    -0.305 N 
ATOM     11  C   UNL     1      32.520 -11.225 -22.212  0.00  0.00    +0.079 A 
ATOM     12  C   UNL     1      33.537 -11.121 -24.272  0.00  0.00    +0.328 A 
ATOM     13  C   UNL     1      32.601  -9.884 -22.583  0.00  0.00    +0.076 A 
ATOM     14  C   UNL     1      31.953 -11.608 -21.015  0.00  0.00    +0.019 C 
ATOM     15  C   UNL     1      32.125  -8.867 -21.786  0.00  0.00    +0.019 C 
ATOM     16  C   UNL     1      31.462 -10.592 -20.187  0.00  0.00    +0.002 C 
ATOM     17  C   UNL     1      31.548  -9.237 -20.569  0.00  0.00    +0.002 C 
ATOM     18  H   UNL     1      33.400  -8.975 -24.329  0.00  0.00    +0.170 HD
ENDBRANCH   2   9
BRANCH   1  19
ATOM     19  C   UNL     1      34.975 -17.278 -23.929  0.00  0.00    -0.077 C 
BRANCH  19  20
ATOM     20  C   UNL     1      35.664 -17.760 -22.651  0.00  0.00    -0.015 C 
BRANCH  20  21
ATOM     21  C   UNL     1      35.042 -19.048 -22.106  0.00  0.00    +0.067 C 
BRANCH  21  23
ATOM     22  O   UNL     1      36.757 -19.102 -20.409  0.00  0.00    -0.291 OA
ATOM     23  C   UNL     1      35.668 -19.516 -20.800  0.00  0.00    +0.173 C 
BRANCH  23  25
ATOM     24  F   UNL     1      32.868 -23.185 -17.658  0.00  0.00    -0.204 F 
ATOM     25  C   UNL     1      34.921 -20.496 -19.960  0.00  0.00    +0.035 C 
ATOM     26  C   UNL     1      33.547 -20.530 -20.051  0.00  0.00    +0.005 C 
ATOM     27  C   UNL     1      35.631 -21.329 -19.126  0.00  0.00    +0.005 C 
ATOM     28  C   UNL     1      32.847 -21.446 -19.267  0.00  0.00    +0.030 C 
ATOM     29  C   UNL     1      34.931 -22.246 -18.342  0.00  0.00    +0.030 C 
ATOM     30  C   UNL     1      33.540 -22.305 -18.411  0.00  0.00    +0.140 C 
ENDBRANCH  23  25
ENDBRANCH  21  23
ENDBRANCH  20  21
ENDBRANCH  19  20
ENDBRANCH   1  19
TORSDOF 6
ENDMDL
MODEL 3
REMARK VINA RESULT:     -11.0      2.701      4.515
REMARK  Name = 16363
REMARK  6 active torsions:
REMARK  status: ('A' for Active; 'I' for Inactive)
REMARK    1  A    between atoms: N_1  and  C_19
REMARK    2  A    between atoms: C_2  and  N_9
REMARK    3  A    between atoms: C_19  and  C_20
REMARK    4  A    between atoms: C_20  and  C_21
REMARK    5  A    between atoms: C_21  and  C_23
REMARK    6  A    between atoms: C_23  and  C_25
REMARK                            x       y       z     vdW  Elec       q    Type
REMARK                         _______ _______ _______ _____ _____    ______ ____
ROOT
ATOM      1  N   UNL     1      32.610 -12.011 -22.011  0.00  0.00    +0.387 N 
ATOM      2  C   UNL     1      31.782  -9.206 -22.106  0.00  0.00    +0.086 C 
ATOM      3  C   UNL     1      31.433 -10.123 -20.933  0.00  0.00    -0.000 C 
ATOM      4  C   UNL     1      33.042  -9.710 -22.810  0.00  0.00    -0.000 C 
ATOM      5  C   UNL     1      31.357 -11.585 -21.374  0.00  0.00    -0.075 C 
ATOM      6  C   UNL     1      32.915 -11.187 -23.190  0.00  0.00    -0.075 C 
ATOM      7  H   UNL     1      33.365 -11.886 -21.337  0.00  0.00    -0.080 HD
ENDROOT
BRANCH   2   9
ATOM      8  O   UNL     1      32.573  -8.148 -19.395  0.00  0.00    -0.247 OA
ATOM      9  N   UNL     1      31.949  -7.843 -21.669  0.00  0.00    -0.282 N 
ATOM     10  N   UNL     1      32.363  -6.015 -20.395  0.00  0.00    -0.305 N 
ATOM     11  C   UNL     1      31.764  -6.706 -22.467  0.00  0.00    +0.079 A 
ATOM     12  C   UNL     1      32.327  -7.438 -20.360  0.00  0.00    +0.328 A 
ATOM     13  C   UNL     1      32.020  -5.587 -21.677  0.00  0.00    +0.076 A 
ATOM     14  C   UNL     1      31.399  -6.586 -23.791  0.00  0.00    +0.019 C 
ATOM     15  C   UNL     1      31.927  -4.302 -22.164  0.00  0.00    +0.019 C 
ATOM     16  C   UNL     1      31.297  -5.291 -24.310  0.00  0.00    +0.002 C 
ATOM     17  C   UNL     1      31.558  -4.162 -23.505  0.00  0.00    +0.002 C 
ATOM     18  H   UNL     1      32.594  -5.430 -19.638  0.00  0.00    +0.170 HD
ENDBRANCH   2   9
BRANCH   1  19
ATOM     19  C   UNL     1      32.542 -13.425 -22.381  0.00  0.00    -0.077 C 
BRANCH  19  20
ATOM     20  C   UNL     1      33.375 -13.684 -23.637  0.00  0.00    -0.015 C 
BRANCH  20  21
ATOM     21  C   UNL     1      34.585 -14.580 -23.358  0.00  0.00    +0.067 C 
BRANCH  21  23
ATOM     22  O   UNL     1      34.163 -16.118 -25.170  0.00  0.00    -0.291 OA
ATOM     23  C   UNL     1      34.474 -15.960 -23.991  0.00  0.00    +0.173 C 
BRANCH  23  25
ATOM     24  F   UNL     1      35.590 -20.438 -20.849  0.00  0.00    -0.204 F 
ATOM     25  C   UNL     1      34.772 -17.156 -23.153  0.00  0.00    +0.035 C 
ATOM     26  C   UNL     1      35.375 -16.970 -21.928  0.00  0.00    +0.005 C 
ATOM     27  C   UNL     1      34.434 -18.401 -23.633  0.00  0.00    +0.005 C 
ATOM     28  C   UNL     1      35.654 -18.089 -21.143  0.00  0.00    +0.030 C 
ATOM     29  C   UNL     1      34.713 -19.519 -22.848  0.00  0.00    +0.030 C 
ATOM     30  C   UNL     1      35.322 -19.364 -21.603  0.00  0.00    +0.140 C 
ENDBRANCH  23  25
ENDBRANCH  21  23
ENDBRANCH  20  21
ENDBRANCH  19  20
ENDBRANCH   1  19
TORSDOF 6
ENDMDL
MODEL 4
REMARK VINA RESULT:     -10.9      3.108      5.276
REMARK  Name = 16363
REMARK  6 active torsions:
REMARK  status: ('A' for Active; 'I' for Inactive)
REMARK    1  A    between atoms: N_1  and  C_19
REMARK    2  A    between atoms: C_2  and  N_9
REMARK    3  A    between atoms: C_19  and  C_20
REMARK    4  A    between atoms: C_20  and  C_21
REMARK    5  A    between atoms: C_21  and  C_23
REMARK    6  A    between atoms: C_23  and  C_25
REMARK                            x       y       z     vdW  Elec       q    Type
REMARK                         _______ _______ _______ _____ _____    ______ ____
ROOT
ATOM      1  N   UNL     1      33.396 -10.383 -24.003  0.00  0.00    +0.387 N 
ATOM      2  C   UNL     1      33.170  -8.218 -22.049  0.00  0.00    +0.086 C 
ATOM      3  C   UNL     1      34.127  -8.148 -23.239  0.00  0.00    -0.000 C 
ATOM      4  C   UNL     1      32.007  -9.159 -22.363  0.00  0.00    -0.000 C 
ATOM      5  C   UNL     1      34.561  -9.545 -23.686  0.00  0.00    -0.075 C 
ATOM      6  C   UNL     1      32.509 -10.523 -22.840  0.00  0.00    -0.075 C 
ATOM      7  H   UNL     1      32.870  -9.924 -24.746  0.00  0.00    -0.080 HD
ENDROOT
BRANCH   2   9
ATOM      8  O   UNL     1      32.766  -7.004 -19.318  0.00  0.00    -0.247 OA
ATOM      9  N   UNL     1      32.688  -6.907 -21.693  0.00  0.00    -0.282 N 
ATOM     10  N   UNL     1      32.032  -5.093 -20.503  0.00  0.00    -0.305 N 
ATOM     11  C   UNL     1      32.300  -5.910 -22.598  0.00  0.00    +0.079 A 
ATOM     12  C   UNL     1      32.530  -6.420 -20.367  0.00  0.00    +0.328 A 
ATOM     13  C   UNL     1      31.899  -4.799 -21.860  0.00  0.00    +0.076 A 
ATOM     14  C   UNL     1      32.275  -5.908 -23.977  0.00  0.00    +0.019 C 
ATOM     15  C   UNL     1      31.456  -3.638 -22.455  0.00  0.00    +0.019 C 
ATOM     16  C   UNL     1      31.830  -4.740 -24.605  0.00  0.00    +0.002 C 
ATOM     17  C   UNL     1      31.424  -3.618 -23.852  0.00  0.00    +0.002 C 
ATOM     18  H   UNL     1      31.818  -4.483 -19.761  0.00  0.00    +0.170 HD
ENDBRANCH   2   9
BRANCH   1  19
ATOM     19  C   UNL     1      33.827 -11.699 -24.478  0.00  0.00    -0.077 C 
BRANCH  19  20
ATOM     20  C   UNL     1      33.163 -12.802 -23.653  0.00  0.00    -0.015 C 
BRANCH  20  21
ATOM     21  C   UNL     1      34.136 -13.932 -23.303  0.00  0.00    +0.067 C 
BRANCH  21  23
ATOM     22  O   UNL     1      33.725 -14.998 -25.428  0.00  0.00    -0.291 OA
ATOM     23  C   UNL     1      34.047 -15.121 -24.249  0.00  0.00    +0.173 C 
BRANCH  23  25
ATOM     24  F   UNL     1      35.310 -20.196 -22.295  0.00  0.00    -0.204 F 
ATOM     25  C   UNL     1      34.384 -16.475 -23.726  0.00  0.00    +0.035 C 
ATOM     26  C   UNL     1      33.910 -17.579 -24.399  0.00  0.00    +0.005 C 
ATOM     27  C   UNL     1      35.158 -16.573 -22.591  0.00  0.00    +0.005 C 
ATOM     28  C   UNL     1      34.225 -18.847 -23.912  0.00  0.00    +0.030 C 
ATOM     29  C   UNL     1      35.473 -17.841 -22.104  0.00  0.00    +0.030 C 
ATOM     30  C   UNL     1      35.007 -18.978 -22.763  0.00  0.00    +0.140 C 
ENDBRANCH  23  25
ENDBRANCH  21  23
ENDBRANCH  20  21
ENDBRANCH  19  20
ENDBRANCH   1  19
TORSDOF 6
ENDMDL
MODEL 5
REMARK VINA RESULT:     -10.9      3.811     10.263
REMARK  Name = 16363
REMARK  6 active torsions:
REMARK  status: ('A' for Active; 'I' for Inactive)
REMARK    1  A    between atoms: N_1  and  C_19
REMARK    2  A    between atoms: C_2  and  N_9
REMARK    3  A    between atoms: C_19  and  C_20
REMARK    4  A    between atoms: C_20  and  C_21
REMARK    5  A    between atoms: C_21  and  C_23
REMARK    6  A    between atoms: C_23  and  C_25
REMARK                            x       y       z     vdW  Elec       q    Type
REMARK                         _______ _______ _______ _____ _____    ______ ____
ROOT
ATOM      1  N   UNL     1      33.936 -15.999 -23.536  0.00  0.00    +0.387 N 
ATOM      2  C   UNL     1      35.669 -17.879 -22.113  0.00  0.00    +0.086 C 
ATOM      3  C   UNL     1      35.145 -16.598 -21.464  0.00  0.00    -0.000 C 
ATOM      4  C   UNL     1      34.729 -18.322 -23.235  0.00  0.00    -0.000 C 
ATOM      5  C   UNL     1      34.870 -15.516 -22.510  0.00  0.00    -0.075 C 
ATOM      6  C   UNL     1      34.467 -17.185 -24.223  0.00  0.00    -0.075 C 
ATOM      7  H   UNL     1      33.069 -16.267 -23.072  0.00  0.00    -0.080 HD
ENDROOT
BRANCH   2   9
ATOM      8  O   UNL     1      38.169 -18.807 -20.706  0.00  0.00    -0.247 OA
ATOM      9  N   UNL     1      35.834 -18.926 -21.137  0.00  0.00    -0.282 N 
ATOM     10  N   UNL     1      36.743 -20.365 -19.641  0.00  0.00    -0.305 N 
ATOM     11  C   UNL     1      34.809 -19.743 -20.641  0.00  0.00    +0.079 A 
ATOM     12  C   UNL     1      37.062 -19.295 -20.524  0.00  0.00    +0.328 A 
ATOM     13  C   UNL     1      35.375 -20.624 -19.722  0.00  0.00    +0.076 A 
ATOM     14  C   UNL     1      33.461 -19.768 -20.928  0.00  0.00    +0.019 C 
ATOM     15  C   UNL     1      34.631 -21.567 -19.048  0.00  0.00    +0.019 C 
ATOM     16  C   UNL     1      32.683 -20.718 -20.256  0.00  0.00    +0.002 C 
ATOM     17  C   UNL     1      33.262 -21.607 -19.327  0.00  0.00    +0.002 C 
ATOM     18  H   UNL     1      37.384 -20.842 -19.065  0.00  0.00    +0.170 HD
ENDBRANCH   2   9
BRANCH   1  19
ATOM     19  C   UNL     1      33.643 -14.938 -24.501  0.00  0.00    -0.077 C 
BRANCH  19  20
ATOM     20  C   UNL     1      33.065 -13.717 -23.783  0.00  0.00    -0.015 C 
BRANCH  20  21
ATOM     21  C   UNL     1      34.074 -12.570 -23.684  0.00  0.00    +0.067 C 
BRANCH  21  23
ATOM     22  O   UNL     1      33.369 -11.460 -25.708  0.00  0.00    -0.291 OA
ATOM     23  C   UNL     1      33.699 -11.360 -24.528  0.00  0.00    +0.173 C 
BRANCH  23  25
ATOM     24  F   UNL     1      33.762  -6.310 -22.146  0.00  0.00    -0.204 F 
ATOM     25  C   UNL     1      33.715 -10.012 -23.891  0.00  0.00    +0.035 C 
ATOM     26  C   UNL     1      34.852  -9.242 -24.004  0.00  0.00    +0.005 C 
ATOM     27  C   UNL     1      32.595  -9.586 -23.215  0.00  0.00    +0.005 C 
ATOM     28  C   UNL     1      34.868  -7.981 -23.410  0.00  0.00    +0.030 C 
ATOM     29  C   UNL     1      32.611  -8.325 -22.620  0.00  0.00    +0.030 C 
ATOM     30  C   UNL     1      33.746  -7.522 -22.717  0.00  0.00    +0.140 C 
ENDBRANCH  23  25
ENDBRANCH  21  23
ENDBRANCH  20  21
ENDBRANCH  19  20
ENDBRANCH   1  19
TORSDOF 6
ENDMDL
MODEL 6
REMARK VINA RESULT:     -10.8      1.817      2.715
REMARK  Name = 16363
REMARK  6 active torsions:
REMARK  status: ('A' for Active; 'I' for Inactive)
REMARK    1  A    between atoms: N_1  and  C_19
REMARK    2  A    between atoms: C_2  and  N_9
REMARK    3  A    between atoms: C_19  and  C_20
REMARK    4  A    between atoms: C_20  and  C_21
REMARK    5  A    between atoms: C_21  and  C_23
REMARK    6  A    between atoms: C_23  and  C_25
REMARK                            x       y       z     vdW  Elec       q    Type
REMARK                         _______ _______ _______ _____ _____    ______ ____
ROOT
ATOM      1  N   UNL     1      33.130 -13.843 -24.201  0.00  0.00    +0.387 N 
ATOM      2  C   UNL     1      33.423 -11.086 -23.266  0.00  0.00    +0.086 C 
ATOM      3  C   UNL     1      33.201 -11.431 -24.739  0.00  0.00    -0.000 C 
ATOM      4  C   UNL     1      32.863 -12.195 -22.376  0.00  0.00    -0.000 C 
ATOM      5  C   UNL     1      33.735 -12.825 -25.071  0.00  0.00    -0.075 C 
ATOM      6  C   UNL     1      33.407 -13.566 -22.784  0.00  0.00    -0.075 C 
ATOM      7  H   UNL     1      32.120 -13.813 -24.335  0.00  0.00    -0.080 HD
ENDROOT
BRANCH   2   9
ATOM      8  O   UNL     1      30.816 -10.491 -21.873  0.00  0.00    -0.247 OA
ATOM      9  N   UNL     1      32.833  -9.814 -22.935  0.00  0.00    -0.282 N 
ATOM     10  N   UNL     1      31.417  -8.222 -22.162  0.00  0.00    -0.305 N 
ATOM     11  C   UNL     1      33.393  -8.561 -23.215  0.00  0.00    +0.079 A 
ATOM     12  C   UNL     1      31.589  -9.631 -22.271  0.00  0.00    +0.328 A 
ATOM     13  C   UNL     1      32.518  -7.588 -22.737  0.00  0.00    +0.076 A 
ATOM     14  C   UNL     1      34.576  -8.224 -23.838  0.00  0.00    +0.019 C 
ATOM     15  C   UNL     1      32.776  -6.240 -22.856  0.00  0.00    +0.019 C 
ATOM     16  C   UNL     1      34.861  -6.861 -23.971  0.00  0.00    +0.002 C 
ATOM     17  C   UNL     1      33.971  -5.880 -23.485  0.00  0.00    +0.002 C 
ATOM     18  H   UNL     1      30.648  -7.769 -21.747  0.00  0.00    +0.170 HD
ENDBRANCH   2   9
BRANCH   1  19
ATOM     19  C   UNL     1      33.611 -15.177 -24.563  0.00  0.00    -0.077 C 
BRANCH  19  20
ATOM     20  C   UNL     1      34.445 -15.766 -23.423  0.00  0.00    -0.015 C 
BRANCH  20  21
ATOM     21  C   UNL     1      35.198 -17.029 -23.847  0.00  0.00    +0.067 C 
BRANCH  21  23
ATOM     22  O   UNL     1      33.608 -18.845 -23.831  0.00  0.00    -0.291 OA
ATOM     23  C   UNL     1      34.583 -18.311 -23.305  0.00  0.00    +0.173 C 
BRANCH  23  25
ATOM     24  F   UNL     1      36.889 -20.699 -18.816  0.00  0.00    -0.204 F 
ATOM     25  C   UNL     1      35.199 -18.948 -22.106  0.00  0.00    +0.035 C 
ATOM     26  C   UNL     1      34.452 -19.849 -21.380  0.00  0.00    +0.005 C 
ATOM     27  C   UNL     1      36.491 -18.613 -21.770  0.00  0.00    +0.005 C 
ATOM     28  C   UNL     1      35.028 -20.445 -20.259  0.00  0.00    +0.030 C 
ATOM     29  C   UNL     1      37.067 -19.210 -20.649  0.00  0.00    +0.030 C 
ATOM     30  C   UNL     1      36.336 -20.126 -19.893  0.00  0.00    +0.140 C 
ENDBRANCH  23  25
ENDBRANCH  21  23
ENDBRANCH  20  21
ENDBRANCH  19  20
ENDBRANCH   1  19
TORSDOF 6
ENDMDL
MODEL 7
REMARK VINA RESULT:     -10.7      4.882     11.243
REMARK  Name = 16363
REMARK  6 active torsions:
REMARK  status: ('A' for Active; 'I' for Inactive)
REMARK    1  A    between atoms: N_1  and  C_19
REMARK    2  A    between atoms: C_2  and  N_9
REMARK    3  A    between atoms: C_19  and  C_20
REMARK    4  A    between atoms: C_20  and  C_21
REMARK    5  A    between atoms: C_21  and  C_23
REMARK    6  A    between atoms: C_23  and  C_25
REMARK                            x       y       z     vdW  Elec       q    Type
REMARK                         _______ _______ _______ _____ _____    ______ ____
ROOT
ATOM      1  N   UNL     1      34.680 -20.507 -19.812  0.00  0.00    +0.387 N 
ATOM      2  C   UNL     1      34.140 -22.655 -17.902  0.00  0.00    +0.086 C 
ATOM      3  C   UNL     1      35.517 -22.005 -18.032  0.00  0.00    -0.000 C 
ATOM      4  C   UNL     1      33.054 -21.687 -18.370  0.00  0.00    -0.000 C 
ATOM      5  C   UNL     1      35.741 -21.454 -19.442  0.00  0.00    -0.075 C 
ATOM      6  C   UNL     1      33.357 -21.145 -19.768  0.00  0.00    -0.075 C 
ATOM      7  H   UNL     1      34.685 -19.747 -19.133  0.00  0.00    -0.080 HD
ENDROOT
BRANCH   2   9
ATOM      8  O   UNL     1      36.103 -23.523 -15.783  0.00  0.00    -0.247 OA
ATOM      9  N   UNL     1      33.894 -23.086 -16.549  0.00  0.00    -0.282 N 
ATOM     10  N   UNL     1      34.190 -23.819 -14.425  0.00  0.00    -0.305 N 
ATOM     11  C   UNL     1      32.634 -23.184 -15.943  0.00  0.00    +0.079 A 
ATOM     12  C   UNL     1      34.892 -23.479 -15.616  0.00  0.00    +0.328 A 
ATOM     13  C   UNL     1      32.824 -23.635 -14.638  0.00  0.00    +0.076 A 
ATOM     14  C   UNL     1      31.376 -22.915 -16.437  0.00  0.00    +0.019 C 
ATOM     15  C   UNL     1      31.776 -23.839 -13.768  0.00  0.00    +0.019 C 
ATOM     16  C   UNL     1      30.295 -23.114 -15.572  0.00  0.00    +0.002 C 
ATOM     17  C   UNL     1      30.493 -23.571 -14.252  0.00  0.00    +0.002 C 
ATOM     18  H   UNL     1      34.602 -24.132 -13.587  0.00  0.00    +0.170 HD
ENDBRANCH   2   9
BRANCH   1  19
ATOM     19  C   UNL     1      34.935 -19.949 -21.141  0.00  0.00    -0.077 C 
BRANCH  19  20
ATOM     20  C   UNL     1      35.329 -18.475 -21.030  0.00  0.00    -0.015 C 
BRANCH  20  21
ATOM     21  C   UNL     1      35.948 -17.940 -22.324  0.00  0.00    +0.067 C 
BRANCH  21  23
ATOM     22  O   UNL     1      34.410 -18.260 -24.156  0.00  0.00    -0.291 OA
ATOM     23  C   UNL     1      34.914 -17.486 -23.345  0.00  0.00    +0.173 C 
BRANCH  23  25
ATOM     24  F   UNL     1      33.317 -12.136 -23.344  0.00  0.00    -0.204 F 
ATOM     25  C   UNL     1      34.489 -16.058 -23.344  0.00  0.00    +0.035 C 
ATOM     26  C   UNL     1      33.877 -15.550 -24.469  0.00  0.00    +0.005 C 
ATOM     27  C   UNL     1      34.721 -15.299 -22.220  0.00  0.00    +0.005 C 
ATOM     28  C   UNL     1      33.478 -14.214 -24.470  0.00  0.00    +0.030 C 
ATOM     29  C   UNL     1      34.322 -13.962 -22.220  0.00  0.00    +0.030 C 
ATOM     30  C   UNL     1      33.701 -13.420 -23.344  0.00  0.00    +0.140 C 
ENDBRANCH  23  25
ENDBRANCH  21  23
ENDBRANCH  20  21
ENDBRANCH  19  20
ENDBRANCH   1  19
TORSDOF 6
ENDMDL
MODEL 8
REMARK VINA RESULT:     -10.6      6.234     12.703
REMARK  Name = 16363
REMARK  6 active torsions:
REMARK  status: ('A' for Active; 'I' for Inactive)
REMARK    1  A    between atoms: N_1  and  C_19
REMARK    2  A    between atoms: C_2  and  N_9
REMARK    3  A    between atoms: C_19  and  C_20
REMARK    4  A    between atoms: C_20  and  C_21
REMARK    5  A    between atoms: C_21  and  C_23
REMARK    6  A    between atoms: C_23  and  C_25
REMARK                            x       y       z     vdW  Elec       q    Type
REMARK                         _______ _______ _______ _____ _____    ______ ____
ROOT
ATOM      1  N   UNL     1      34.449 -22.864 -17.722  0.00  0.00    +0.387 N 
ATOM      2  C   UNL     1      34.920 -23.173 -14.851  0.00  0.00    +0.086 C 
ATOM      3  C   UNL     1      33.787 -23.900 -15.576  0.00  0.00    -0.000 C 
ATOM      4  C   UNL     1      36.044 -22.839 -15.832  0.00  0.00    -0.000 C 
ATOM      5  C   UNL     1      33.326 -23.121 -16.809  0.00  0.00    -0.075 C 
ATOM      6  C   UNL     1      35.510 -22.095 -17.057  0.00  0.00    -0.075 C 
ATOM      7  H   UNL     1      34.841 -23.763 -18.000  0.00  0.00    -0.080 HD
ENDROOT
BRANCH   2   9
ATOM      8  O   UNL     1      33.556 -23.925 -12.268  0.00  0.00    -0.247 OA
ATOM      9  N   UNL     1      35.417 -23.955 -13.748  0.00  0.00    -0.282 N 
ATOM     10  N   UNL     1      35.577 -25.046 -11.768  0.00  0.00    -0.305 N 
ATOM     11  C   UNL     1      36.690 -24.538 -13.673  0.00  0.00    +0.079 A 
ATOM     12  C   UNL     1      34.695 -24.260 -12.562  0.00  0.00    +0.328 A 
ATOM     13  C   UNL     1      36.780 -25.206 -12.454  0.00  0.00    +0.076 A 
ATOM     14  C   UNL     1      37.739 -24.525 -14.568  0.00  0.00    +0.019 C 
ATOM     15  C   UNL     1      37.913 -25.890 -12.069  0.00  0.00    +0.019 C 
ATOM     16  C   UNL     1      38.900 -25.212 -14.200  0.00  0.00    +0.002 C 
ATOM     17  C   UNL     1      38.986 -25.886 -12.963  0.00  0.00    +0.002 C 
ATOM     18  H   UNL     1      35.370 -25.417 -10.879  0.00  0.00    +0.170 HD
ENDBRANCH   2   9
BRANCH   1  19
ATOM     19  C   UNL     1      33.984 -22.164 -18.920  0.00  0.00    -0.077 C 
BRANCH  19  20
ATOM     20  C   UNL     1      35.047 -21.174 -19.399  0.00  0.00    -0.015 C 
BRANCH  20  21
ATOM     21  C   UNL     1      34.486 -20.156 -20.396  0.00  0.00    +0.067 C 
BRANCH  21  23
ATOM     22  O   UNL     1      36.630 -19.049 -20.358  0.00  0.00    -0.291 OA
ATOM     23  C   UNL     1      35.519 -19.146 -20.875  0.00  0.00    +0.173 C 
BRANCH  23  25
ATOM     24  F   UNL     1      34.219 -15.825 -25.170  0.00  0.00    -0.204 F 
ATOM     25  C   UNL     1      35.173 -18.259 -22.021  0.00  0.00    +0.035 C 
ATOM     26  C   UNL     1      34.646 -18.827 -23.160  0.00  0.00    +0.005 C 
ATOM     27  C   UNL     1      35.390 -16.905 -21.900  0.00  0.00    +0.005 C 
ATOM     28  C   UNL     1      34.321 -17.998 -24.233  0.00  0.00    +0.030 C 
ATOM     29  C   UNL     1      35.065 -16.076 -22.973  0.00  0.00    +0.030 C 
ATOM     30  C   UNL     1      34.531 -16.621 -24.139  0.00  0.00    +0.140 C 
ENDBRANCH  23  25
ENDBRANCH  21  23
ENDBRANCH  20  21
ENDBRANCH  19  20
ENDBRANCH   1  19
TORSDOF 6
ENDMDL
MODEL 9
REMARK VINA RESULT:     -10.5      5.315     11.697
REMARK  Name = 16363
REMARK  6 active torsions:
REMARK  status: ('A' for Active; 'I' for Inactive)
REMARK    1  A    between atoms: N_1  and  C_19
REMARK    2  A    between atoms: C_2  and  N_9
REMARK    3  A    between atoms: C_19  and  C_20
REMARK    4  A    between atoms: C_20  and  C_21
REMARK    5  A    between atoms: C_21  and  C_23
REMARK    6  A    between atoms: C_23  and  C_25
REMARK                            x       y       z     vdW  Elec       q    Type
REMARK                         _______ _______ _______ _____ _____    ______ ____
ROOT
ATOM      1  N   UNL     1      35.140 -21.241 -18.749  0.00  0.00    +0.387 N 
ATOM      2  C   UNL     1      34.605 -23.400 -16.848  0.00  0.00    +0.086 C 
ATOM      3  C   UNL     1      35.734 -22.390 -16.641  0.00  0.00    -0.000 C 
ATOM      4  C   UNL     1      33.509 -22.792 -17.724  0.00  0.00    -0.000 C 
ATOM      5  C   UNL     1      36.237 -21.838 -17.976  0.00  0.00    -0.075 C 
ATOM      6  C   UNL     1      34.084 -22.226 -19.023  0.00  0.00    -0.075 C 
ATOM      7  H   UNL     1      34.732 -20.492 -18.190  0.00  0.00    -0.080 HD
ENDROOT
BRANCH   2   9
ATOM      8  O   UNL     1      35.960 -24.903 -14.613  0.00  0.00    -0.247 OA
ATOM      9  N   UNL     1      34.067 -23.844 -15.587  0.00  0.00    -0.282 N 
ATOM     10  N   UNL     1      33.860 -24.776 -13.532  0.00  0.00    -0.305 N 
ATOM     11  C   UNL     1      32.750 -23.646 -15.150  0.00  0.00    +0.079 A 
ATOM     12  C   UNL     1      34.789 -24.552 -14.588  0.00  0.00    +0.328 A 
ATOM     13  C   UNL     1      32.631 -24.221 -13.887  0.00  0.00    +0.076 A 
ATOM     14  C   UNL     1      31.685 -23.019 -15.761  0.00  0.00    +0.019 C 
ATOM     15  C   UNL     1      31.452 -24.200 -13.174  0.00  0.00    +0.019 C 
ATOM     16  C   UNL     1      30.477 -22.984 -15.057  0.00  0.00    +0.002 C 
ATOM     17  C   UNL     1      30.362 -23.569 -13.778  0.00  0.00    +0.002 C 
ATOM     18  H   UNL     1      34.055 -25.245 -12.688  0.00  0.00    +0.170 HD
ENDBRANCH   2   9
BRANCH   1  19
ATOM     19  C   UNL     1      35.644 -20.672 -19.999  0.00  0.00    -0.077 C 
BRANCH  19  20
ATOM     20  C   UNL     1      34.545 -19.869 -20.697  0.00  0.00    -0.015 C 
BRANCH  20  21
ATOM     21  C   UNL     1      34.880 -19.575 -22.161  0.00  0.00    +0.067 C 
BRANCH  21  23
ATOM     22  O   UNL     1      36.935 -18.310 -22.107  0.00  0.00    -0.291 OA
ATOM     23  C   UNL     1      35.729 -18.326 -22.349  0.00  0.00    +0.173 C 
BRANCH  23  25
ATOM     24  F   UNL     1      33.280 -13.692 -24.270  0.00  0.00    -0.204 F 
ATOM     25  C   UNL     1      35.076 -17.088 -22.861  0.00  0.00    +0.035 C 
ATOM     26  C   UNL     1      34.569 -17.091 -24.142  0.00  0.00    +0.005 C 
ATOM     27  C   UNL     1      35.002 -15.989 -22.036  0.00  0.00    +0.005 C 
ATOM     28  C   UNL     1      33.957 -15.934 -24.622  0.00  0.00    +0.030 C 
ATOM     29  C   UNL     1      34.390 -14.832 -22.516  0.00  0.00    +0.030 C 
ATOM     30  C   UNL     1      33.867 -14.803 -23.808  0.00  0.00    +0.140 C 
ENDBRANCH  23  25
ENDBRANCH  21  23
ENDBRANCH  20  21
ENDBRANCH  19  20
ENDBRANCH   1  19
TORSDOF 6
ENDMDL
