MODEL 1
REMARK VINA RESULT:     -11.5      0.000      0.000
REMARK  Name = 5326930
REMARK  4 active torsions:
REMARK  status: ('A' for Active; 'I' for Inactive)
REMARK    1  A    between atoms: C_7  and  C_21
REMARK    2  A    between atoms: C_21  and  C_22
REMARK    3  A    between atoms: C_22  and  C_23
REMARK    4  A    between atoms: C_28  and  O_29
REMARK                            x       y       z     vdW  Elec       q    Type
REMARK                         _______ _______ _______ _____ _____    ______ ____
ROOT
ATOM      1  O   UNL     1      34.724 -24.934 -11.551  0.00  0.00    -0.209 OA
ATOM      2  N   UNL     1      34.673 -22.985 -15.050  0.00  0.00    -0.275 N 
ATOM      3  N   UNL     1      29.899 -25.305 -13.601  0.00  0.00    -0.315 N 
ATOM      4  N   UNL     1      29.904 -24.215 -15.537  0.00  0.00    -0.316 N 
ATOM      5  N   UNL     1      35.856 -23.700 -13.112  0.00  0.00    -0.302 NA
ATOM      6  N   UNL     1      36.883 -22.431 -14.793  0.00  0.00    -0.320 N 
ATOM      7  C   UNL     1      32.323 -23.518 -15.422  0.00  0.00    +0.007 C 
ATOM      8  C   UNL     1      33.483 -23.593 -14.636  0.00  0.00    +0.060 C 
ATOM      9  C   UNL     1      31.151 -24.146 -14.962  0.00  0.00    +0.056 C 
ATOM     10  C   UNL     1      31.176 -24.822 -13.746  0.00  0.00    +0.060 C 
ATOM     11  C   UNL     1      33.467 -24.285 -13.415  0.00  0.00    +0.109 C 
ATOM     12  C   UNL     1      32.310 -24.917 -12.938  0.00  0.00    +0.029 C 
ATOM     13  C   UNL     1      34.729 -24.332 -12.620  0.00  0.00    +0.208 C 
ATOM     14  C   UNL     1      29.179 -24.917 -14.696  0.00  0.00    +0.182 C 
ATOM     15  C   UNL     1      35.796 -23.075 -14.258  0.00  0.00    +0.248 C 
ATOM     16  H   UNL     1      34.707 -22.496 -15.903  0.00  0.00    +0.156 HD
ATOM     17  H   UNL     1      29.564 -25.837 -12.844  0.00  0.00    +0.148 HD
ATOM     18  H   UNL     1      29.616 -23.824 -16.394  0.00  0.00    +0.148 HD
ATOM     19  H   UNL     1      36.806 -21.969 -15.659  0.00  0.00    +0.146 HD
ATOM     20  H   UNL     1      37.741 -22.431 -14.310  0.00  0.00    +0.146 HD
ENDROOT
BRANCH   7  21
ATOM     21  C   UNL     1      32.333 -22.783 -16.725  0.00  0.00    +0.034 C 
BRANCH  21  22
ATOM     22  C   UNL     1      33.375 -23.307 -17.729  0.00  0.00    +0.031 C 
BRANCH  22  23
ATOM     23  C   UNL     1      33.926 -22.231 -18.633  0.00  0.00    -0.022 C 
ATOM     24  C   UNL     1      35.298 -22.072 -18.742  0.00  0.00    -0.001 C 
ATOM     25  C   UNL     1      33.049 -21.421 -19.336  0.00  0.00    -0.001 C 
ATOM     26  C   UNL     1      35.807 -21.078 -19.577  0.00  0.00    +0.037 C 
ATOM     27  C   UNL     1      33.558 -20.426 -20.172  0.00  0.00    +0.037 C 
ATOM     28  C   UNL     1      34.937 -20.255 -20.292  0.00  0.00    +0.139 C 
BRANCH  28  29
ATOM     29  O   UNL     1      35.434 -19.284 -21.106  0.00  0.00    -0.471 OA
ATOM     30  C   UNL     1      34.908 -19.214 -22.431  0.00  0.00    +0.252 C 
ENDBRANCH  28  29
ENDBRANCH  22  23
ENDBRANCH  21  22
ENDBRANCH   7  21
TORSDOF 4
ENDMDL
MODEL 2
REMARK VINA RESULT:     -11.2      1.790      4.133
REMARK  Name = 5326930
REMARK  4 active torsions:
REMARK  status: ('A' for Active; 'I' for Inactive)
REMARK    1  A    between atoms: C_7  and  C_21
REMARK    2  A    between atoms: C_21  and  C_22
REMARK    3  A    between atoms: C_22  and  C_23
REMARK    4  A    between atoms: C_28  and  O_29
REMARK                            x       y       z     vdW  Elec       q    Type
REMARK                         _______ _______ _______ _____ _____    ______ ____
ROOT
ATOM      1  O   UNL     1      28.584 -25.651 -13.586  0.00  0.00    -0.209 OA
ATOM      2  N   UNL     1      29.768 -23.195 -16.520  0.00  0.00    -0.275 N 
ATOM      3  N   UNL     1      33.771 -24.923 -13.165  0.00  0.00    -0.315 N 
ATOM      4  N   UNL     1      34.396 -23.560 -14.804  0.00  0.00    -0.316 N 
ATOM      5  N   UNL     1      28.030 -24.384 -15.411  0.00  0.00    -0.302 NA
ATOM      6  N   UNL     1      27.614 -23.048 -17.291  0.00  0.00    -0.320 N 
ATOM      7  C   UNL     1      32.092 -23.282 -15.785  0.00  0.00    +0.007 C 
ATOM      8  C   UNL     1      30.749 -23.663 -15.639  0.00  0.00    +0.060 C 
ATOM      9  C   UNL     1      33.040 -23.780 -14.873  0.00  0.00    +0.056 C 
ATOM     10  C   UNL     1      32.622 -24.632 -13.856  0.00  0.00    +0.060 C 
ATOM     11  C   UNL     1      30.367 -24.525 -14.599  0.00  0.00    +0.109 C 
ATOM     12  C   UNL     1      31.297 -25.032 -13.680  0.00  0.00    +0.029 C 
ATOM     13  C   UNL     1      28.927 -24.897 -14.492  0.00  0.00    +0.208 C 
ATOM     14  C   UNL     1      34.802 -24.260 -13.768  0.00  0.00    +0.182 C 
ATOM     15  C   UNL     1      28.459 -23.586 -16.353  0.00  0.00    +0.248 C 
ATOM     16  H   UNL     1      30.014 -22.589 -17.256  0.00  0.00    +0.156 HD
ATOM     17  H   UNL     1      33.839 -25.506 -12.374  0.00  0.00    +0.148 HD
ATOM     18  H   UNL     1      34.944 -23.000 -15.400  0.00  0.00    +0.148 HD
ATOM     19  H   UNL     1      27.968 -22.450 -17.988  0.00  0.00    +0.146 HD
ATOM     20  H   UNL     1      26.652 -23.261 -17.266  0.00  0.00    +0.146 HD
ENDROOT
BRANCH   7  21
ATOM     21  C   UNL     1      32.506 -22.363 -16.891  0.00  0.00    +0.034 C 
BRANCH  21  22
ATOM     22  C   UNL     1      33.468 -23.004 -17.907  0.00  0.00    +0.031 C 
BRANCH  22  23
ATOM     23  C   UNL     1      34.205 -21.993 -18.751  0.00  0.00    -0.022 C 
ATOM     24  C   UNL     1      35.589 -21.946 -18.702  0.00  0.00    -0.001 C 
ATOM     25  C   UNL     1      33.484 -21.128 -19.558  0.00  0.00    -0.001 C 
ATOM     26  C   UNL     1      36.271 -21.012 -19.481  0.00  0.00    +0.037 C 
ATOM     27  C   UNL     1      34.166 -20.192 -20.338  0.00  0.00    +0.037 C 
ATOM     28  C   UNL     1      35.559 -20.134 -20.299  0.00  0.00    +0.139 C 
BRANCH  28  29
ATOM     29  O   UNL     1      36.223 -19.222 -21.058  0.00  0.00    -0.471 OA
ATOM     30  C   UNL     1      35.629 -17.931 -21.192  0.00  0.00    +0.252 C 
ENDBRANCH  28  29
ENDBRANCH  22  23
ENDBRANCH  21  22
ENDBRANCH   7  21
TORSDOF 4
ENDMDL
MODEL 3
REMARK VINA RESULT:     -10.7      1.284      3.875
REMARK  Name = 5326930
REMARK  4 active torsions:
REMARK  status: ('A' for Active; 'I' for Inactive)
REMARK    1  A    between atoms: C_7  and  C_21
REMARK    2  A    between atoms: C_21  and  C_22
REMARK    3  A    between atoms: C_22  and  C_23
REMARK    4  A    between atoms: C_28  and  O_29
REMARK                            x       y       z     vdW  Elec       q    Type
REMARK                         _______ _______ _______ _____ _____    ______ ____
ROOT
ATOM      1  O   UNL     1      30.718 -25.103 -12.337  0.00  0.00    -0.209 OA
ATOM      2  N   UNL     1      30.498 -23.492 -15.998  0.00  0.00    -0.275 N 
ATOM      3  N   UNL     1      35.561 -23.745 -13.860  0.00  0.00    -0.315 N 
ATOM      4  N   UNL     1      35.405 -22.858 -15.891  0.00  0.00    -0.316 N 
ATOM      5  N   UNL     1      29.423 -24.484 -14.121  0.00  0.00    -0.302 NA
ATOM      6  N   UNL     1      28.226 -23.802 -16.017  0.00  0.00    -0.320 N 
ATOM      7  C   UNL     1      32.906 -23.118 -16.083  0.00  0.00    +0.007 C 
ATOM      8  C   UNL     1      31.764 -23.579 -15.410  0.00  0.00    +0.060 C 
ATOM      9  C   UNL     1      34.157 -23.229 -15.449  0.00  0.00    +0.056 C 
ATOM     10  C   UNL     1      34.227 -23.788 -14.177  0.00  0.00    +0.060 C 
ATOM     11  C   UNL     1      31.876 -24.138 -14.128  0.00  0.00    +0.109 C 
ATOM     12  C   UNL     1      33.114 -24.257 -13.478  0.00  0.00    +0.029 C 
ATOM     13  C   UNL     1      30.630 -24.612 -13.459  0.00  0.00    +0.208 C 
ATOM     14  C   UNL     1      36.223 -23.181 -14.915  0.00  0.00    +0.182 C 
ATOM     15  C   UNL     1      29.396 -23.952 -15.315  0.00  0.00    +0.248 C 
ATOM     16  H   UNL     1      30.396 -23.103 -16.897  0.00  0.00    +0.156 HD
ATOM     17  H   UNL     1      35.968 -24.063 -13.023  0.00  0.00    +0.148 HD
ATOM     18  H   UNL     1      35.636 -22.440 -16.753  0.00  0.00    +0.148 HD
ATOM     19  H   UNL     1      28.239 -23.398 -16.914  0.00  0.00    +0.146 HD
ATOM     20  H   UNL     1      27.374 -24.098 -15.622  0.00  0.00    +0.146 HD
ENDROOT
BRANCH   7  21
ATOM     21  C   UNL     1      32.794 -22.521 -17.451  0.00  0.00    +0.034 C 
BRANCH  21  22
ATOM     22  C   UNL     1      33.923 -22.942 -18.410  0.00  0.00    +0.031 C 
BRANCH  22  23
ATOM     23  C   UNL     1      34.515 -21.787 -19.178  0.00  0.00    -0.022 C 
ATOM     24  C   UNL     1      35.886 -21.590 -19.162  0.00  0.00    -0.001 C 
ATOM     25  C   UNL     1      33.675 -20.941 -19.885  0.00  0.00    -0.001 C 
ATOM     26  C   UNL     1      36.434 -20.522 -19.872  0.00  0.00    +0.037 C 
ATOM     27  C   UNL     1      34.223 -19.871 -20.596  0.00  0.00    +0.037 C 
ATOM     28  C   UNL     1      35.602 -19.663 -20.589  0.00  0.00    +0.139 C 
BRANCH  28  29
ATOM     29  O   UNL     1      36.135 -18.619 -21.281  0.00  0.00    -0.471 OA
ATOM     30  C   UNL     1      35.388 -18.126 -22.392  0.00  0.00    +0.252 C 
ENDBRANCH  28  29
ENDBRANCH  22  23
ENDBRANCH  21  22
ENDBRANCH   7  21
TORSDOF 4
ENDMDL
MODEL 4
REMARK VINA RESULT:     -10.5      3.137      6.173
REMARK  Name = 5326930
REMARK  4 active torsions:
REMARK  status: ('A' for Active; 'I' for Inactive)
REMARK    1  A    between atoms: C_7  and  C_21
REMARK    2  A    between atoms: C_21  and  C_22
REMARK    3  A    between atoms: C_22  and  C_23
REMARK    4  A    between atoms: C_28  and  O_29
REMARK                            x       y       z     vdW  Elec       q    Type
REMARK                         _______ _______ _______ _____ _____    ______ ____
ROOT
ATOM      1  O   UNL     1      37.397 -21.864 -16.725  0.00  0.00    -0.209 OA
ATOM      2  N   UNL     1      33.829 -23.536 -16.002  0.00  0.00    -0.275 N 
ATOM      3  N   UNL     1      37.313 -23.535 -11.743  0.00  0.00    -0.315 N 
ATOM      4  N   UNL     1      35.324 -24.454 -11.374  0.00  0.00    -0.316 N 
ATOM      5  N   UNL     1      35.321 -22.443 -17.500  0.00  0.00    -0.302 NA
ATOM      6  N   UNL     1      33.167 -23.094 -18.152  0.00  0.00    -0.320 N 
ATOM      7  C   UNL     1      34.431 -24.051 -13.696  0.00  0.00    +0.007 C 
ATOM      8  C   UNL     1      34.752 -23.510 -14.951  0.00  0.00    +0.060 C 
ATOM      9  C   UNL     1      35.393 -24.001 -12.671  0.00  0.00    +0.056 C 
ATOM     10  C   UNL     1      36.631 -23.420 -12.929  0.00  0.00    +0.060 C 
ATOM     11  C   UNL     1      36.011 -22.932 -15.172  0.00  0.00    +0.109 C 
ATOM     12  C   UNL     1      36.984 -22.872 -14.163  0.00  0.00    +0.029 C 
ATOM     13  C   UNL     1      36.297 -22.372 -16.524  0.00  0.00    +0.208 C 
ATOM     14  C   UNL     1      36.491 -24.159 -10.848  0.00  0.00    +0.182 C 
ATOM     15  C   UNL     1      34.171 -22.997 -17.222  0.00  0.00    +0.248 C 
ATOM     16  H   UNL     1      32.940 -23.937 -15.870  0.00  0.00    +0.156 HD
ATOM     17  H   UNL     1      38.230 -23.223 -11.571  0.00  0.00    +0.148 HD
ATOM     18  H   UNL     1      34.565 -24.903 -10.936  0.00  0.00    +0.148 HD
ATOM     19  H   UNL     1      32.311 -23.517 -17.911  0.00  0.00    +0.146 HD
ATOM     20  H   UNL     1      33.303 -22.740 -19.061  0.00  0.00    +0.146 HD
ENDROOT
BRANCH   7  21
ATOM     21  C   UNL     1      33.090 -24.670 -13.454  0.00  0.00    +0.034 C 
BRANCH  21  22
ATOM     22  C   UNL     1      31.972 -23.647 -13.177  0.00  0.00    +0.031 C 
BRANCH  22  23
ATOM     23  C   UNL     1      30.825 -23.739 -14.153  0.00  0.00    -0.022 C 
ATOM     24  C   UNL     1      30.001 -24.853 -14.130  0.00  0.00    -0.001 C 
ATOM     25  C   UNL     1      30.618 -22.709 -15.057  0.00  0.00    -0.001 C 
ATOM     26  C   UNL     1      28.941 -24.939 -15.032  0.00  0.00    +0.037 C 
ATOM     27  C   UNL     1      29.558 -22.795 -15.959  0.00  0.00    +0.037 C 
ATOM     28  C   UNL     1      28.719 -23.909 -15.947  0.00  0.00    +0.139 C 
BRANCH  28  29
ATOM     29  O   UNL     1      27.686 -23.993 -16.828  0.00  0.00    -0.471 OA
ATOM     30  C   UNL     1      27.085 -22.767 -17.244  0.00  0.00    +0.252 C 
ENDBRANCH  28  29
ENDBRANCH  22  23
ENDBRANCH  21  22
ENDBRANCH   7  21
TORSDOF 4
ENDMDL
MODEL 5
REMARK VINA RESULT:     -10.3      1.407      3.758
REMARK  Name = 5326930
REMARK  4 active torsions:
REMARK  status: ('A' for Active; 'I' for Inactive)
REMARK    1  A    between atoms: C_7  and  C_21
REMARK    2  A    between atoms: C_21  and  C_22
REMARK    3  A    between atoms: C_22  and  C_23
REMARK    4  A    between atoms: C_28  and  O_29
REMARK                            x       y       z     vdW  Elec       q    Type
REMARK                         _______ _______ _______ _____ _____    ______ ____
ROOT
ATOM      1  O   UNL     1      30.837 -24.831 -12.430  0.00  0.00    -0.209 OA
ATOM      2  N   UNL     1      32.259 -23.102 -15.752  0.00  0.00    -0.275 N 
ATOM      3  N   UNL     1      36.085 -24.750 -12.158  0.00  0.00    -0.315 N 
ATOM      4  N   UNL     1      36.841 -23.789 -14.012  0.00  0.00    -0.316 N 
ATOM      5  N   UNL     1      30.409 -23.835 -14.447  0.00  0.00    -0.302 NA
ATOM      6  N   UNL     1      30.123 -22.801 -16.530  0.00  0.00    -0.320 N 
ATOM      7  C   UNL     1      34.569 -23.375 -15.020  0.00  0.00    +0.007 C 
ATOM      8  C   UNL     1      33.192 -23.539 -14.805  0.00  0.00    +0.060 C 
ATOM      9  C   UNL     1      35.467 -23.831 -14.038  0.00  0.00    +0.056 C 
ATOM     10  C   UNL     1      34.966 -24.430 -12.886  0.00  0.00    +0.060 C 
ATOM     11  C   UNL     1      32.726 -24.148 -13.630  0.00  0.00    +0.109 C 
ATOM     12  C   UNL     1      33.605 -24.610 -12.639  0.00  0.00    +0.029 C 
ATOM     13  C   UNL     1      31.253 -24.298 -13.455  0.00  0.00    +0.208 C 
ATOM     14  C   UNL     1      37.178 -24.347 -12.871  0.00  0.00    +0.182 C 
ATOM     15  C   UNL     1      30.914 -23.277 -15.515  0.00  0.00    +0.248 C 
ATOM     16  H   UNL     1      32.563 -22.672 -16.583  0.00  0.00    +0.156 HD
ATOM     17  H   UNL     1      36.096 -25.191 -11.278  0.00  0.00    +0.148 HD
ATOM     18  H   UNL     1      37.443 -23.419 -14.699  0.00  0.00    +0.148 HD
ATOM     19  H   UNL     1      30.535 -22.386 -17.322  0.00  0.00    +0.146 HD
ATOM     20  H   UNL     1      29.143 -22.874 -16.465  0.00  0.00    +0.146 HD
ENDROOT
BRANCH   7  21
ATOM     21  C   UNL     1      35.072 -22.726 -16.271  0.00  0.00    +0.034 C 
BRANCH  21  22
ATOM     22  C   UNL     1      34.128 -22.881 -17.477  0.00  0.00    +0.031 C 
BRANCH  22  23
ATOM     23  C   UNL     1      34.407 -21.893 -18.583  0.00  0.00    -0.022 C 
ATOM     24  C   UNL     1      35.717 -21.548 -18.872  0.00  0.00    -0.001 C 
ATOM     25  C   UNL     1      33.347 -21.346 -19.289  0.00  0.00    -0.001 C 
ATOM     26  C   UNL     1      35.976 -20.635 -19.894  0.00  0.00    +0.037 C 
ATOM     27  C   UNL     1      33.605 -20.432 -20.311  0.00  0.00    +0.037 C 
ATOM     28  C   UNL     1      34.919 -20.077 -20.613  0.00  0.00    +0.139 C 
BRANCH  28  29
ATOM     29  O   UNL     1      35.170 -19.185 -21.610  0.00  0.00    -0.471 OA
ATOM     30  C   UNL     1      34.434 -19.339 -22.822  0.00  0.00    +0.252 C 
ENDBRANCH  28  29
ENDBRANCH  22  23
ENDBRANCH  21  22
ENDBRANCH   7  21
TORSDOF 4
ENDMDL
MODEL 6
REMARK VINA RESULT:     -10.2      3.214      5.604
REMARK  Name = 5326930
REMARK  4 active torsions:
REMARK  status: ('A' for Active; 'I' for Inactive)
REMARK    1  A    between atoms: C_7  and  C_21
REMARK    2  A    between atoms: C_21  and  C_22
REMARK    3  A    between atoms: C_22  and  C_23
REMARK    4  A    between atoms: C_28  and  O_29
REMARK                            x       y       z     vdW  Elec       q    Type
REMARK                         _______ _______ _______ _____ _____    ______ ____
ROOT
ATOM      1  O   UNL     1      37.930 -22.917 -13.343  0.00  0.00    -0.209 OA
ATOM      2  N   UNL     1      34.526 -24.610 -12.081  0.00  0.00    -0.275 N 
ATOM      3  N   UNL     1      34.403 -22.679 -17.232  0.00  0.00    -0.315 N 
ATOM      4  N   UNL     1      32.530 -23.625 -16.502  0.00  0.00    -0.316 N 
ATOM      5  N   UNL     1      36.779 -23.970 -11.665  0.00  0.00    -0.302 NA
ATOM      6  N   UNL     1      35.480 -25.054 -10.045  0.00  0.00    -0.320 N 
ATOM      7  C   UNL     1      33.414 -24.189 -14.211  0.00  0.00    +0.007 C 
ATOM      8  C   UNL     1      34.546 -24.103 -13.385  0.00  0.00    +0.060 C 
ATOM      9  C   UNL     1      33.486 -23.664 -15.514  0.00  0.00    +0.056 C 
ATOM     10  C   UNL     1      34.671 -23.076 -15.946  0.00  0.00    +0.060 C 
ATOM     11  C   UNL     1      35.723 -23.503 -13.857  0.00  0.00    +0.109 C 
ATOM     12  C   UNL     1      35.815 -22.974 -15.153  0.00  0.00    +0.029 C 
ATOM     13  C   UNL     1      36.896 -23.440 -12.937  0.00  0.00    +0.208 C 
ATOM     14  C   UNL     1      33.113 -23.028 -17.517  0.00  0.00    +0.182 C 
ATOM     15  C   UNL     1      35.650 -24.513 -11.294  0.00  0.00    +0.248 C 
ATOM     16  H   UNL     1      33.710 -25.035 -11.729  0.00  0.00    +0.156 HD
ATOM     17  H   UNL     1      35.029 -22.223 -17.839  0.00  0.00    +0.148 HD
ATOM     18  H   UNL     1      31.609 -23.970 -16.459  0.00  0.00    +0.148 HD
ATOM     19  H   UNL     1      34.617 -25.456  -9.795  0.00  0.00    +0.146 HD
ATOM     20  H   UNL     1      36.222 -25.039  -9.397  0.00  0.00    +0.146 HD
ENDROOT
BRANCH   7  21
ATOM     21  C   UNL     1      32.156 -24.827 -13.713  0.00  0.00    +0.034 C 
BRANCH  21  22
ATOM     22  C   UNL     1      31.053 -23.821 -13.336  0.00  0.00    +0.031 C 
BRANCH  22  23
ATOM     23  C   UNL     1      29.983 -23.686 -14.392  0.00  0.00    -0.022 C 
ATOM     24  C   UNL     1      29.585 -24.806 -15.103  0.00  0.00    -0.001 C 
ATOM     25  C   UNL     1      29.421 -22.443 -14.633  0.00  0.00    -0.001 C 
ATOM     26  C   UNL     1      28.597 -24.682 -16.080  0.00  0.00    +0.037 C 
ATOM     27  C   UNL     1      28.432 -22.318 -15.610  0.00  0.00    +0.037 C 
ATOM     28  C   UNL     1      28.020 -23.437 -16.333  0.00  0.00    +0.139 C 
BRANCH  28  29
ATOM     29  O   UNL     1      27.057 -23.315 -17.286  0.00  0.00    -0.471 OA
ATOM     30  C   UNL     1      26.450 -22.032 -17.437  0.00  0.00    +0.252 C 
ENDBRANCH  28  29
ENDBRANCH  22  23
ENDBRANCH  21  22
ENDBRANCH   7  21
TORSDOF 4
ENDMDL
MODEL 7
REMARK VINA RESULT:     -10.1      3.183      7.508
REMARK  Name = 5326930
REMARK  4 active torsions:
REMARK  status: ('A' for Active; 'I' for Inactive)
REMARK    1  A    between atoms: C_7  and  C_21
REMARK    2  A    between atoms: C_21  and  C_22
REMARK    3  A    between atoms: C_22  and  C_23
REMARK    4  A    between atoms: C_28  and  O_29
REMARK                            x       y       z     vdW  Elec       q    Type
REMARK                         _______ _______ _______ _____ _____    ______ ____
ROOT
ATOM      1  O   UNL     1      33.418 -19.412 -21.879  0.00  0.00    -0.209 OA
ATOM      2  N   UNL     1      36.834 -20.163 -19.926  0.00  0.00    -0.275 N 
ATOM      3  N   UNL     1      32.392 -22.724 -17.930  0.00  0.00    -0.315 N 
ATOM      4  N   UNL     1      34.304 -23.120 -16.869  0.00  0.00    -0.316 N 
ATOM      5  N   UNL     1      35.672 -19.056 -21.683  0.00  0.00    -0.302 NA
ATOM      6  N   UNL     1      37.977 -18.787 -21.361  0.00  0.00    -0.320 N 
ATOM      7  C   UNL     1      35.717 -21.647 -18.347  0.00  0.00    +0.007 C 
ATOM      8  C   UNL     1      35.675 -20.790 -19.458  0.00  0.00    +0.060 C 
ATOM      9  C   UNL     1      34.524 -22.254 -17.915  0.00  0.00    +0.056 C 
ATOM     10  C   UNL     1      33.340 -21.989 -18.597  0.00  0.00    +0.060 C 
ATOM     11  C   UNL     1      34.461 -20.548 -20.119  0.00  0.00    +0.109 C 
ATOM     12  C   UNL     1      33.261 -21.143 -19.704  0.00  0.00    +0.029 C 
ATOM     13  C   UNL     1      34.476 -19.629 -21.294  0.00  0.00    +0.208 C 
ATOM     14  C   UNL     1      33.017 -23.381 -16.907  0.00  0.00    +0.182 C 
ATOM     15  C   UNL     1      36.763 -19.328 -21.018  0.00  0.00    +0.248 C 
ATOM     16  H   UNL     1      37.696 -20.318 -19.477  0.00  0.00    +0.156 HD
ATOM     17  H   UNL     1      31.434 -22.768 -18.150  0.00  0.00    +0.148 HD
ATOM     18  H   UNL     1      34.967 -23.470 -16.231  0.00  0.00    +0.148 HD
ATOM     19  H   UNL     1      38.781 -19.012 -20.840  0.00  0.00    +0.146 HD
ATOM     20  H   UNL     1      38.043 -18.174 -22.129  0.00  0.00    +0.146 HD
ENDROOT
BRANCH   7  21
ATOM     21  C   UNL     1      37.007 -21.910 -17.636  0.00  0.00    +0.034 C 
BRANCH  21  22
ATOM     22  C   UNL     1      37.007 -21.472 -16.160  0.00  0.00    +0.031 C 
BRANCH  22  23
ATOM     23  C   UNL     1      37.360 -22.588 -15.208  0.00  0.00    -0.022 C 
ATOM     24  C   UNL     1      38.457 -23.390 -15.478  0.00  0.00    -0.001 C 
ATOM     25  C   UNL     1      36.580 -22.791 -14.081  0.00  0.00    -0.001 C 
ATOM     26  C   UNL     1      38.785 -24.421 -14.598  0.00  0.00    +0.037 C 
ATOM     27  C   UNL     1      36.907 -23.823 -13.200  0.00  0.00    +0.037 C 
ATOM     28  C   UNL     1      38.009 -24.638 -13.459  0.00  0.00    +0.139 C 
BRANCH  28  29
ATOM     29  O   UNL     1      38.327 -25.645 -12.600  0.00  0.00    -0.471 OA
ATOM     30  C   UNL     1      37.268 -26.508 -12.190  0.00  0.00    +0.252 C 
ENDBRANCH  28  29
ENDBRANCH  22  23
ENDBRANCH  21  22
ENDBRANCH   7  21
TORSDOF 4
ENDMDL
MODEL 8
REMARK VINA RESULT:      -9.9      2.958      6.764
REMARK  Name = 5326930
REMARK  4 active torsions:
REMARK  status: ('A' for Active; 'I' for Inactive)
REMARK    1  A    between atoms: C_7  and  C_21
REMARK    2  A    between atoms: C_21  and  C_22
REMARK    3  A    between atoms: C_22  and  C_23
REMARK    4  A    between atoms: C_28  and  O_29
REMARK                            x       y       z     vdW  Elec       q    Type
REMARK                         _______ _______ _______ _____ _____    ______ ____
ROOT
ATOM      1  O   UNL     1      37.018 -20.573 -19.292  0.00  0.00    -0.209 OA
ATOM      2  N   UNL     1      33.639 -22.333 -18.055  0.00  0.00    -0.275 N 
ATOM      3  N   UNL     1      38.017 -23.154 -14.825  0.00  0.00    -0.315 N 
ATOM      4  N   UNL     1      36.126 -24.116 -14.165  0.00  0.00    -0.316 N 
ATOM      5  N   UNL     1      34.793 -20.985 -19.641  0.00  0.00    -0.302 NA
ATOM      6  N   UNL     1      32.516 -21.490 -19.867  0.00  0.00    -0.320 N 
ATOM      7  C   UNL     1      34.736 -23.278 -16.093  0.00  0.00    +0.007 C 
ATOM      8  C   UNL     1      34.782 -22.512 -17.268  0.00  0.00    +0.060 C 
ATOM      9  C   UNL     1      35.913 -23.427 -15.336  0.00  0.00    +0.056 C 
ATOM     10  C   UNL     1      37.084 -22.814 -15.772  0.00  0.00    +0.060 C 
ATOM     11  C   UNL     1      35.982 -21.909 -17.674  0.00  0.00    +0.109 C 
ATOM     12  C   UNL     1      37.166 -22.046 -16.933  0.00  0.00    +0.029 C 
ATOM     13  C   UNL     1      35.972 -21.105 -18.930  0.00  0.00    +0.208 C 
ATOM     14  C   UNL     1      37.397 -23.932 -13.888  0.00  0.00    +0.182 C 
ATOM     15  C   UNL     1      33.713 -21.576 -19.202  0.00  0.00    +0.248 C 
ATOM     16  H   UNL     1      32.787 -22.747 -17.789  0.00  0.00    +0.156 HD
ATOM     17  H   UNL     1      38.964 -22.886 -14.823  0.00  0.00    +0.148 HD
ATOM     18  H   UNL     1      35.469 -24.636 -13.647  0.00  0.00    +0.148 HD
ATOM     19  H   UNL     1      31.720 -21.946 -19.510  0.00  0.00    +0.146 HD
ATOM     20  H   UNL     1      32.453 -20.972 -20.702  0.00  0.00    +0.146 HD
ENDROOT
BRANCH   7  21
ATOM     21  C   UNL     1      33.460 -23.924 -15.654  0.00  0.00    +0.034 C 
BRANCH  21  22
ATOM     22  C   UNL     1      32.662 -23.097 -14.630  0.00  0.00    +0.031 C 
BRANCH  22  23
ATOM     23  C   UNL     1      31.175 -23.103 -14.887  0.00  0.00    -0.022 C 
ATOM     24  C   UNL     1      30.309 -23.444 -13.861  0.00  0.00    -0.001 C 
ATOM     25  C   UNL     1      30.703 -22.768 -16.146  0.00  0.00    -0.001 C 
ATOM     26  C   UNL     1      28.935 -23.450 -14.098  0.00  0.00    +0.037 C 
ATOM     27  C   UNL     1      29.328 -22.773 -16.384  0.00  0.00    +0.037 C 
ATOM     28  C   UNL     1      28.444 -23.115 -15.360  0.00  0.00    +0.139 C 
BRANCH  28  29
ATOM     29  O   UNL     1      27.104 -23.121 -15.592  0.00  0.00    -0.471 OA
ATOM     30  C   UNL     1      26.593 -22.128 -16.481  0.00  0.00    +0.252 C 
ENDBRANCH  28  29
ENDBRANCH  22  23
ENDBRANCH  21  22
ENDBRANCH   7  21
TORSDOF 4
ENDMDL
MODEL 9
REMARK VINA RESULT:      -9.9      3.252      5.942
REMARK  Name = 5326930
REMARK  4 active torsions:
REMARK  status: ('A' for Active; 'I' for Inactive)
REMARK    1  A    between atoms: C_7  and  C_21
REMARK    2  A    between atoms: C_21  and  C_22
REMARK    3  A    between atoms: C_22  and  C_23
REMARK    4  A    between atoms: C_28  and  O_29
REMARK                            x       y       z     vdW  Elec       q    Type
REMARK                         _______ _______ _______ _____ _____    ______ ____
ROOT
ATOM      1  O   UNL     1      38.286 -22.495 -15.513  0.00  0.00    -0.209 OA
ATOM      2  N   UNL     1      34.852 -24.196 -14.348  0.00  0.00    -0.275 N 
ATOM      3  N   UNL     1      34.596 -21.437 -19.101  0.00  0.00    -0.315 N 
ATOM      4  N   UNL     1      32.707 -22.393 -18.428  0.00  0.00    -0.316 N 
ATOM      5  N   UNL     1      37.158 -23.749 -13.965  0.00  0.00    -0.302 NA
ATOM      6  N   UNL     1      35.876 -25.018 -12.469  0.00  0.00    -0.320 N 
ATOM      7  C   UNL     1      33.666 -23.372 -16.313  0.00  0.00    +0.007 C 
ATOM      8  C   UNL     1      34.839 -23.482 -15.551  0.00  0.00    +0.060 C 
ATOM      9  C   UNL     1      33.705 -22.644 -17.516  0.00  0.00    +0.056 C 
ATOM     10  C   UNL     1      34.901 -22.054 -17.914  0.00  0.00    +0.060 C 
ATOM     11  C   UNL     1      36.026 -22.873 -15.987  0.00  0.00    +0.109 C 
ATOM     12  C   UNL     1      36.086 -22.143 -17.183  0.00  0.00    +0.029 C 
ATOM     13  C   UNL     1      37.244 -23.024 -15.139  0.00  0.00    +0.208 C 
ATOM     14  C   UNL     1      33.275 -21.668 -19.364  0.00  0.00    +0.182 C 
ATOM     15  C   UNL     1      36.017 -24.288 -13.622  0.00  0.00    +0.248 C 
ATOM     16  H   UNL     1      34.031 -24.630 -14.023  0.00  0.00    +0.156 HD
ATOM     17  H   UNL     1      35.218 -20.920 -19.661  0.00  0.00    +0.148 HD
ATOM     18  H   UNL     1      31.769 -22.693 -18.388  0.00  0.00    +0.148 HD
ATOM     19  H   UNL     1      35.003 -25.411 -12.238  0.00  0.00    +0.146 HD
ATOM     20  H   UNL     1      36.648 -25.148 -11.871  0.00  0.00    +0.146 HD
ENDROOT
BRANCH   7  21
ATOM     21  C   UNL     1      32.397 -24.018 -15.854  0.00  0.00    +0.034 C 
BRANCH  21  22
ATOM     22  C   UNL     1      31.604 -23.181 -14.833  0.00  0.00    +0.031 C 
BRANCH  22  23
ATOM     23  C   UNL     1      30.157 -22.989 -15.215  0.00  0.00    -0.022 C 
ATOM     24  C   UNL     1      29.719 -23.419 -16.457  0.00  0.00    -0.001 C 
ATOM     25  C   UNL     1      29.292 -22.384 -14.317  0.00  0.00    -0.001 C 
ATOM     26  C   UNL     1      28.382 -23.242 -16.811  0.00  0.00    +0.037 C 
ATOM     27  C   UNL     1      27.954 -22.206 -14.671  0.00  0.00    +0.037 C 
ATOM     28  C   UNL     1      27.499 -22.636 -15.918  0.00  0.00    +0.139 C 
BRANCH  28  29
ATOM     29  O   UNL     1      26.194 -22.461 -16.263  0.00  0.00    -0.471 OA
ATOM     30  C   UNL     1      25.896 -21.395 -17.162  0.00  0.00    +0.252 C 
ENDBRANCH  28  29
ENDBRANCH  22  23
ENDBRANCH  21  22
ENDBRANCH   7  21
TORSDOF 4
ENDMDL
