MODEL 1
REMARK VINA RESULT:     -11.6      0.000      0.000
REMARK  Name = 9924495
REMARK  4 active torsions:
REMARK  status: ('A' for Active; 'I' for Inactive)
REMARK    1  A    between atoms: N_2  and  C_22
REMARK    2  A    between atoms: C_3  and  C_14
REMARK    3  A    between atoms: C_4  and  C_9
REMARK    4  A    between atoms: C_15  and  C_21
REMARK                            x       y       z     vdW  Elec       q    Type
REMARK                         _______ _______ _______ _____ _____    ______ ____
ROOT
ATOM      1  O   UNL     1      36.693 -22.963 -16.141  0.00  0.00    -0.269 OA
ATOM      2  N   UNL     1      34.440 -22.712 -16.783  0.00  0.00    -0.233 N 
ATOM      3  C   UNL     1      35.087 -23.792 -14.638  0.00  0.00    +0.055 C 
ATOM      4  C   UNL     1      32.765 -23.723 -15.376  0.00  0.00    +0.033 C 
ATOM      5  C   UNL     1      35.490 -23.098 -15.915  0.00  0.00    +0.257 C 
ATOM      6  C   UNL     1      33.793 -24.077 -14.425  0.00  0.00    +0.007 C 
ATOM      7  C   UNL     1      33.122 -23.056 -16.486  0.00  0.00    +0.074 C 
ENDROOT
BRANCH   4   9
ATOM      8  N   UNL     1      31.069 -25.012 -14.275  0.00  0.00    -0.244 NA
ATOM      9  C   UNL     1      31.336 -24.021 -15.155  0.00  0.00    +0.083 C 
ATOM     10  C   UNL     1      30.368 -23.303 -15.835  0.00  0.00    +0.019 C 
ATOM     11  C   UNL     1      29.035 -23.621 -15.595  0.00  0.00    +0.003 C 
ATOM     12  C   UNL     1      29.763 -25.293 -14.068  0.00  0.00    +0.099 C 
ATOM     13  C   UNL     1      28.719 -24.633 -14.696  0.00  0.00    +0.021 C 
ENDBRANCH   4   9
BRANCH   3  14
ATOM     14  C   UNL     1      36.091 -24.157 -13.623  0.00  0.00    +0.014 C 
ATOM     15  C   UNL     1      36.799 -25.357 -13.682  0.00  0.00    +0.069 C 
ATOM     16  C   UNL     1      36.326 -23.260 -12.581  0.00  0.00    +0.001 C 
ATOM     17  C   UNL     1      37.740 -25.662 -12.699  0.00  0.00    +0.010 C 
ATOM     18  C   UNL     1      37.268 -23.563 -11.597  0.00  0.00    +0.000 C 
ATOM     19  C   UNL     1      37.975 -24.764 -11.657  0.00  0.00    +0.001 C 
BRANCH  15  21
ATOM     20  N   UNL     1      36.410 -27.065 -15.591  0.00  0.00    -0.191 NA
ATOM     21  C   UNL     1      36.585 -26.302 -14.737  0.00  0.00    +0.100 C 
ENDBRANCH  15  21
ENDBRANCH   3  14
BRANCH   2  22
ATOM     22  C   UNL     1      34.748 -21.981 -17.998  0.00  0.00    +0.058 C 
ATOM     23  C   UNL     1      33.715 -21.520 -18.805  0.00  0.00    +0.015 C 
ATOM     24  C   UNL     1      36.075 -21.749 -18.342  0.00  0.00    +0.015 C 
ATOM     25  C   UNL     1      34.013 -20.817 -19.972  0.00  0.00    +0.001 C 
ATOM     26  C   UNL     1      36.372 -21.047 -19.510  0.00  0.00    +0.001 C 
ATOM     27  C   UNL     1      35.341 -20.581 -20.325  0.00  0.00    +0.000 C 
ENDBRANCH   2  22
TORSDOF 4
ENDMDL
MODEL 2
REMARK VINA RESULT:     -11.5      1.212      5.194
REMARK  Name = 9924495
REMARK  4 active torsions:
REMARK  status: ('A' for Active; 'I' for Inactive)
REMARK    1  A    between atoms: N_2  and  C_22
REMARK    2  A    between atoms: C_3  and  C_14
REMARK    3  A    between atoms: C_4  and  C_9
REMARK    4  A    between atoms: C_15  and  C_21
REMARK                            x       y       z     vdW  Elec       q    Type
REMARK                         _______ _______ _______ _____ _____    ______ ____
ROOT
ATOM      1  O   UNL     1      33.276 -24.553 -12.930  0.00  0.00    -0.269 OA
ATOM      2  N   UNL     1      32.669 -23.780 -15.072  0.00  0.00    -0.233 N 
ATOM      3  C   UNL     1      35.037 -23.833 -14.312  0.00  0.00    +0.055 C 
ATOM      4  C   UNL     1      34.410 -22.844 -16.450  0.00  0.00    +0.033 C 
ATOM      5  C   UNL     1      33.580 -24.111 -14.039  0.00  0.00    +0.257 C 
ATOM      6  C   UNL     1      35.387 -23.226 -15.456  0.00  0.00    +0.007 C 
ATOM      7  C   UNL     1      33.120 -23.143 -16.228  0.00  0.00    +0.074 C 
ENDROOT
BRANCH   4   9
ATOM      8  N   UNL     1      36.102 -22.039 -17.946  0.00  0.00    -0.244 NA
ATOM      9  C   UNL     1      34.778 -22.183 -17.718  0.00  0.00    +0.083 C 
ATOM     10  C   UNL     1      33.788 -21.752 -18.584  0.00  0.00    +0.019 C 
ATOM     11  C   UNL     1      34.184 -21.133 -19.766  0.00  0.00    +0.003 C 
ATOM     12  C   UNL     1      36.448 -21.433 -19.104  0.00  0.00    +0.099 C 
ATOM     13  C   UNL     1      35.536 -20.968 -20.038  0.00  0.00    +0.021 C 
ENDBRANCH   4   9
BRANCH   3  14
ATOM     14  C   UNL     1      36.077 -24.221 -13.343  0.00  0.00    +0.014 C 
ATOM     15  C   UNL     1      36.820 -25.392 -13.487  0.00  0.00    +0.069 C 
ATOM     16  C   UNL     1      36.309 -23.377 -12.257  0.00  0.00    +0.001 C 
ATOM     17  C   UNL     1      37.795 -25.721 -12.545  0.00  0.00    +0.010 C 
ATOM     18  C   UNL     1      37.284 -23.705 -11.315  0.00  0.00    +0.000 C 
ATOM     19  C   UNL     1      38.027 -24.876 -11.459  0.00  0.00    +0.001 C 
BRANCH  15  21
ATOM     20  N   UNL     1      36.438 -27.003 -15.480  0.00  0.00    -0.191 NA
ATOM     21  C   UNL     1      36.609 -26.284 -14.589  0.00  0.00    +0.100 C 
ENDBRANCH  15  21
ENDBRANCH   3  14
BRANCH   2  22
ATOM     22  C   UNL     1      31.259 -24.081 -14.906  0.00  0.00    +0.058 C 
ATOM     23  C   UNL     1      30.873 -25.316 -14.401  0.00  0.00    +0.015 C 
ATOM     24  C   UNL     1      30.308 -23.128 -15.254  0.00  0.00    +0.015 C 
ATOM     25  C   UNL     1      29.518 -25.604 -14.241  0.00  0.00    +0.001 C 
ATOM     26  C   UNL     1      28.953 -23.416 -15.094  0.00  0.00    +0.001 C 
ATOM     27  C   UNL     1      28.558 -24.654 -14.587  0.00  0.00    +0.000 C 
ENDBRANCH   2  22
TORSDOF 4
ENDMDL
MODEL 3
REMARK VINA RESULT:      -9.8      1.606      2.306
REMARK  Name = 9924495
REMARK  4 active torsions:
REMARK  status: ('A' for Active; 'I' for Inactive)
REMARK    1  A    between atoms: N_2  and  C_22
REMARK    2  A    between atoms: C_3  and  C_14
REMARK    3  A    between atoms: C_4  and  C_9
REMARK    4  A    between atoms: C_15  and  C_21
REMARK                            x       y       z     vdW  Elec       q    Type
REMARK                         _______ _______ _______ _____ _____    ______ ____
ROOT
ATOM      1  O   UNL     1      36.132 -22.636 -17.101  0.00  0.00    -0.269 OA
ATOM      2  N   UNL     1      33.873 -22.250 -17.653  0.00  0.00    -0.233 N 
ATOM      3  C   UNL     1      34.537 -23.471 -15.590  0.00  0.00    +0.055 C 
ATOM      4  C   UNL     1      32.199 -23.260 -16.243  0.00  0.00    +0.033 C 
ATOM      5  C   UNL     1      34.932 -22.729 -16.842  0.00  0.00    +0.257 C 
ATOM      6  C   UNL     1      33.240 -23.709 -15.348  0.00  0.00    +0.007 C 
ATOM      7  C   UNL     1      32.551 -22.551 -17.329  0.00  0.00    +0.074 C 
ENDROOT
BRANCH   4   9
ATOM      8  N   UNL     1      29.906 -22.656 -16.592  0.00  0.00    -0.244 NA
ATOM      9  C   UNL     1      30.766 -23.505 -15.989  0.00  0.00    +0.083 C 
ATOM     10  C   UNL     1      30.379 -24.553 -15.172  0.00  0.00    +0.019 C 
ATOM     11  C   UNL     1      29.017 -24.745 -14.961  0.00  0.00    +0.003 C 
ATOM     12  C   UNL     1      28.590 -22.872 -16.364  0.00  0.00    +0.099 C 
ATOM     13  C   UNL     1      28.100 -23.892 -15.564  0.00  0.00    +0.021 C 
ENDBRANCH   4   9
BRANCH   3  14
ATOM     14  C   UNL     1      35.556 -23.934 -14.630  0.00  0.00    +0.014 C 
ATOM     15  C   UNL     1      35.232 -24.279 -13.319  0.00  0.00    +0.069 C 
ATOM     16  C   UNL     1      36.878 -24.022 -15.068  0.00  0.00    +0.001 C 
ATOM     17  C   UNL     1      36.229 -24.711 -12.444  0.00  0.00    +0.010 C 
ATOM     18  C   UNL     1      37.875 -24.454 -14.194  0.00  0.00    +0.000 C 
ATOM     19  C   UNL     1      37.550 -24.800 -12.882  0.00  0.00    +0.001 C 
BRANCH  15  21
ATOM     20  N   UNL     1      32.798 -24.139 -12.442  0.00  0.00    -0.191 NA
ATOM     21  C   UNL     1      33.886 -24.201 -12.833  0.00  0.00    +0.100 C 
ENDBRANCH  15  21
ENDBRANCH   3  14
BRANCH   2  22
ATOM     22  C   UNL     1      34.176 -21.471 -18.838  0.00  0.00    +0.058 C 
ATOM     23  C   UNL     1      35.500 -21.263 -19.205  0.00  0.00    +0.015 C 
ATOM     24  C   UNL     1      33.138 -20.940 -19.596  0.00  0.00    +0.015 C 
ATOM     25  C   UNL     1      35.791 -20.514 -20.345  0.00  0.00    +0.001 C 
ATOM     26  C   UNL     1      33.429 -20.191 -20.736  0.00  0.00    +0.001 C 
ATOM     27  C   UNL     1      34.756 -19.978 -21.111  0.00  0.00    +0.000 C 
ENDBRANCH   2  22
TORSDOF 4
ENDMDL
MODEL 4
REMARK VINA RESULT:      -9.6      1.541      6.343
REMARK  Name = 9924495
REMARK  4 active torsions:
REMARK  status: ('A' for Active; 'I' for Inactive)
REMARK    1  A    between atoms: N_2  and  C_22
REMARK    2  A    between atoms: C_3  and  C_14
REMARK    3  A    between atoms: C_4  and  C_9
REMARK    4  A    between atoms: C_15  and  C_21
REMARK                            x       y       z     vdW  Elec       q    Type
REMARK                         _______ _______ _______ _____ _____    ______ ____
ROOT
ATOM      1  O   UNL     1      32.131 -22.526 -17.714  0.00  0.00    -0.269 OA
ATOM      2  N   UNL     1      32.362 -23.603 -15.631  0.00  0.00    -0.233 N 
ATOM      3  C   UNL     1      34.326 -22.767 -16.908  0.00  0.00    +0.055 C 
ATOM      4  C   UNL     1      34.599 -24.055 -14.857  0.00  0.00    +0.033 C 
ATOM      5  C   UNL     1      32.832 -22.933 -16.787  0.00  0.00    +0.257 C 
ATOM      6  C   UNL     1      35.125 -23.319 -15.983  0.00  0.00    +0.007 C 
ATOM      7  C   UNL     1      33.266 -24.152 -14.722  0.00  0.00    +0.074 C 
ENDROOT
BRANCH   4   9
ATOM      8  N   UNL     1      36.399 -25.526 -14.273  0.00  0.00    -0.244 NA
ATOM      9  C   UNL     1      35.463 -24.661 -13.825  0.00  0.00    +0.083 C 
ATOM     10  C   UNL     1      35.283 -24.332 -12.493  0.00  0.00    +0.019 C 
ATOM     11  C   UNL     1      36.120 -24.929 -11.556  0.00  0.00    +0.003 C 
ATOM     12  C   UNL     1      37.194 -26.088 -13.334  0.00  0.00    +0.099 C 
ATOM     13  C   UNL     1      37.096 -25.824 -11.977  0.00  0.00    +0.021 C 
ENDBRANCH   4   9
BRANCH   3  14
ATOM     14  C   UNL     1      34.916 -22.008 -18.025  0.00  0.00    +0.014 C 
ATOM     15  C   UNL     1      36.266 -21.661 -18.049  0.00  0.00    +0.069 C 
ATOM     16  C   UNL     1      34.082 -21.635 -19.078  0.00  0.00    +0.001 C 
ATOM     17  C   UNL     1      36.783 -20.940 -19.126  0.00  0.00    +0.010 C 
ATOM     18  C   UNL     1      34.597 -20.915 -20.156  0.00  0.00    +0.000 C 
ATOM     19  C   UNL     1      35.948 -20.568 -20.180  0.00  0.00    +0.001 C 
BRANCH  15  21
ATOM     20  N   UNL     1      37.873 -22.320 -16.126  0.00  0.00    -0.191 NA
ATOM     21  C   UNL     1      37.154 -22.025 -16.985  0.00  0.00    +0.100 C 
ENDBRANCH  15  21
ENDBRANCH   3  14
BRANCH   2  22
ATOM     22  C   UNL     1      30.934 -23.741 -15.414  0.00  0.00    +0.058 C 
ATOM     23  C   UNL     1      30.079 -22.711 -15.788  0.00  0.00    +0.015 C 
ATOM     24  C   UNL     1      30.435 -24.903 -14.837  0.00  0.00    +0.015 C 
ATOM     25  C   UNL     1      28.706 -22.844 -15.580  0.00  0.00    +0.001 C 
ATOM     26  C   UNL     1      29.063 -25.036 -14.629  0.00  0.00    +0.001 C 
ATOM     27  C   UNL     1      28.198 -24.007 -15.001  0.00  0.00    +0.000 C 
ENDBRANCH   2  22
TORSDOF 4
ENDMDL
MODEL 5
REMARK VINA RESULT:      -9.5      1.879      5.533
REMARK  Name = 9924495
REMARK  4 active torsions:
REMARK  status: ('A' for Active; 'I' for Inactive)
REMARK    1  A    between atoms: N_2  and  C_22
REMARK    2  A    between atoms: C_3  and  C_14
REMARK    3  A    between atoms: C_4  and  C_9
REMARK    4  A    between atoms: C_15  and  C_21
REMARK                            x       y       z     vdW  Elec       q    Type
REMARK                         _______ _______ _______ _____ _____    ______ ____
ROOT
ATOM      1  O   UNL     1      33.460 -24.660 -14.009  0.00  0.00    -0.269 OA
ATOM      2  N   UNL     1      32.424 -23.573 -15.825  0.00  0.00    -0.233 N 
ATOM      3  C   UNL     1      34.896 -23.795 -15.657  0.00  0.00    +0.055 C 
ATOM      4  C   UNL     1      33.855 -22.493 -17.436  0.00  0.00    +0.033 C 
ATOM      5  C   UNL     1      33.527 -24.072 -15.089  0.00  0.00    +0.257 C 
ATOM      6  C   UNL     1      35.009 -23.039 -16.759  0.00  0.00    +0.007 C 
ATOM      7  C   UNL     1      32.635 -22.789 -16.958  0.00  0.00    +0.074 C 
ENDROOT
BRANCH   4   9
ATOM      8  N   UNL     1      32.790 -21.280 -19.208  0.00  0.00    -0.244 NA
ATOM      9  C   UNL     1      33.960 -21.667 -18.654  0.00  0.00    +0.083 C 
ATOM     10  C   UNL     1      35.206 -21.339 -19.161  0.00  0.00    +0.019 C 
ATOM     11  C   UNL     1      35.255 -20.559 -20.312  0.00  0.00    +0.003 C 
ATOM     12  C   UNL     1      32.877 -20.524 -20.326  0.00  0.00    +0.099 C 
ATOM     13  C   UNL     1      34.073 -20.141 -20.911  0.00  0.00    +0.021 C 
ENDBRANCH   4   9
BRANCH   3  14
ATOM     14  C   UNL     1      36.106 -24.344 -15.020  0.00  0.00    +0.014 C 
ATOM     15  C   UNL     1      37.296 -23.621 -14.950  0.00  0.00    +0.069 C 
ATOM     16  C   UNL     1      36.037 -25.628 -14.479  0.00  0.00    +0.001 C 
ATOM     17  C   UNL     1      38.418 -24.181 -14.339  0.00  0.00    +0.010 C 
ATOM     18  C   UNL     1      37.159 -26.188 -13.867  0.00  0.00    +0.000 C 
ATOM     19  C   UNL     1      38.349 -25.464 -13.796  0.00  0.00    +0.001 C 
BRANCH  15  21
ATOM     20  N   UNL     1      37.494 -21.233 -15.934  0.00  0.00    -0.191 NA
ATOM     21  C   UNL     1      37.405 -22.300 -15.495  0.00  0.00    +0.100 C 
ENDBRANCH  15  21
ENDBRANCH   3  14
BRANCH   2  22
ATOM     22  C   UNL     1      31.075 -23.858 -15.374  0.00  0.00    +0.058 C 
ATOM     23  C   UNL     1      30.787 -25.089 -14.797  0.00  0.00    +0.015 C 
ATOM     24  C   UNL     1      30.083 -22.895 -15.521  0.00  0.00    +0.015 C 
ATOM     25  C   UNL     1      29.490 -25.362 -14.363  0.00  0.00    +0.001 C 
ATOM     26  C   UNL     1      28.786 -23.168 -15.087  0.00  0.00    +0.001 C 
ATOM     27  C   UNL     1      28.490 -24.402 -14.508  0.00  0.00    +0.000 C 
ENDBRANCH   2  22
TORSDOF 4
ENDMDL
MODEL 6
REMARK VINA RESULT:      -9.0      1.397      5.571
REMARK  Name = 9924495
REMARK  4 active torsions:
REMARK  status: ('A' for Active; 'I' for Inactive)
REMARK    1  A    between atoms: N_2  and  C_22
REMARK    2  A    between atoms: C_3  and  C_14
REMARK    3  A    between atoms: C_4  and  C_9
REMARK    4  A    between atoms: C_15  and  C_21
REMARK                            x       y       z     vdW  Elec       q    Type
REMARK                         _______ _______ _______ _____ _____    ______ ____
ROOT
ATOM      1  O   UNL     1      31.840 -21.950 -17.655  0.00  0.00    -0.269 OA
ATOM      2  N   UNL     1      34.071 -22.565 -17.209  0.00  0.00    -0.233 N 
ATOM      3  C   UNL     1      32.169 -23.436 -15.863  0.00  0.00    +0.055 C 
ATOM      4  C   UNL     1      34.480 -23.924 -15.260  0.00  0.00    +0.033 C 
ATOM      5  C   UNL     1      32.669 -22.593 -17.009  0.00  0.00    +0.257 C 
ATOM      6  C   UNL     1      33.054 -24.039 -15.056  0.00  0.00    +0.007 C 
ATOM      7  C   UNL     1      34.920 -23.218 -16.315  0.00  0.00    +0.074 C 
ENDROOT
BRANCH   4   9
ATOM      8  N   UNL     1      36.366 -25.382 -15.011  0.00  0.00    -0.244 NA
ATOM      9  C   UNL     1      35.468 -24.588 -14.388  0.00  0.00    +0.083 C 
ATOM     10  C   UNL     1      35.432 -24.379 -13.020  0.00  0.00    +0.019 C 
ATOM     11  C   UNL     1      36.383 -25.027 -12.239  0.00  0.00    +0.003 C 
ATOM     12  C   UNL     1      37.275 -25.995 -14.220  0.00  0.00    +0.099 C 
ATOM     13  C   UNL     1      37.325 -25.852 -12.842  0.00  0.00    +0.021 C 
ENDBRANCH   4   9
BRANCH   3  14
ATOM     14  C   UNL     1      30.725 -23.607 -15.620  0.00  0.00    +0.014 C 
ATOM     15  C   UNL     1      30.239 -24.280 -14.501  0.00  0.00    +0.069 C 
ATOM     16  C   UNL     1      29.836 -23.070 -16.552  0.00  0.00    +0.001 C 
ATOM     17  C   UNL     1      28.864 -24.419 -14.312  0.00  0.00    +0.010 C 
ATOM     18  C   UNL     1      28.461 -23.208 -16.363  0.00  0.00    +0.000 C 
ATOM     19  C   UNL     1      27.975 -23.882 -15.243  0.00  0.00    +0.001 C 
BRANCH  15  21
ATOM     20  N   UNL     1      31.836 -25.301 -12.734  0.00  0.00    -0.191 NA
ATOM     21  C   UNL     1      31.122 -24.844 -13.523  0.00  0.00    +0.100 C 
ENDBRANCH  15  21
ENDBRANCH   3  14
BRANCH   2  22
ATOM     22  C   UNL     1      34.619 -21.829 -18.332  0.00  0.00    +0.058 C 
ATOM     23  C   UNL     1      33.762 -21.244 -19.256  0.00  0.00    +0.015 C 
ATOM     24  C   UNL     1      35.998 -21.715 -18.472  0.00  0.00    +0.015 C 
ATOM     25  C   UNL     1      34.290 -20.535 -20.335  0.00  0.00    +0.001 C 
ATOM     26  C   UNL     1      36.525 -21.006 -19.551  0.00  0.00    +0.001 C 
ATOM     27  C   UNL     1      35.671 -20.416 -20.483  0.00  0.00    +0.000 C 
ENDBRANCH   2  22
TORSDOF 4
ENDMDL
MODEL 7
REMARK VINA RESULT:      -8.9      1.071      5.679
REMARK  Name = 9924495
REMARK  4 active torsions:
REMARK  status: ('A' for Active; 'I' for Inactive)
REMARK    1  A    between atoms: N_2  and  C_22
REMARK    2  A    between atoms: C_3  and  C_14
REMARK    3  A    between atoms: C_4  and  C_9
REMARK    4  A    between atoms: C_15  and  C_21
REMARK                            x       y       z     vdW  Elec       q    Type
REMARK                         _______ _______ _______ _____ _____    ______ ____
ROOT
ATOM      1  O   UNL     1      37.096 -22.786 -15.741  0.00  0.00    -0.269 OA
ATOM      2  N   UNL     1      35.490 -23.935 -14.455  0.00  0.00    -0.233 N 
ATOM      3  C   UNL     1      34.891 -22.747 -16.556  0.00  0.00    +0.055 C 
ATOM      4  C   UNL     1      33.186 -23.756 -15.137  0.00  0.00    +0.033 C 
ATOM      5  C   UNL     1      35.940 -23.171 -15.560  0.00  0.00    +0.257 C 
ATOM      6  C   UNL     1      33.602 -23.034 -16.316  0.00  0.00    +0.007 C 
ATOM      7  C   UNL     1      34.129 -24.181 -14.280  0.00  0.00    +0.074 C 
ENDROOT
BRANCH   4   9
ATOM      8  N   UNL     1      31.564 -25.075 -13.963  0.00  0.00    -0.244 NA
ATOM      9  C   UNL     1      31.774 -24.088 -14.862  0.00  0.00    +0.083 C 
ATOM     10  C   UNL     1      30.763 -23.402 -15.513  0.00  0.00    +0.019 C 
ATOM     11  C   UNL     1      29.449 -23.751 -15.222  0.00  0.00    +0.003 C 
ATOM     12  C   UNL     1      30.274 -25.387 -13.705  0.00  0.00    +0.099 C 
ATOM     13  C   UNL     1      29.191 -24.761 -14.302  0.00  0.00    +0.021 C 
ENDBRANCH   4   9
BRANCH   3  14
ATOM     14  C   UNL     1      35.262 -22.026 -17.787  0.00  0.00    +0.014 C 
ATOM     15  C   UNL     1      34.304 -21.557 -18.685  0.00  0.00    +0.069 C 
ATOM     16  C   UNL     1      36.618 -21.818 -18.042  0.00  0.00    +0.001 C 
ATOM     17  C   UNL     1      34.701 -20.880 -19.839  0.00  0.00    +0.010 C 
ATOM     18  C   UNL     1      37.015 -21.141 -19.195  0.00  0.00    +0.000 C 
ATOM     19  C   UNL     1      36.057 -20.671 -20.093  0.00  0.00    +0.001 C 
BRANCH  15  21
ATOM     20  N   UNL     1      31.771 -21.910 -18.271  0.00  0.00    -0.191 NA
ATOM     21  C   UNL     1      32.903 -21.752 -18.457  0.00  0.00    +0.100 C 
ENDBRANCH  15  21
ENDBRANCH   3  14
BRANCH   2  22
ATOM     22  C   UNL     1      36.453 -24.435 -13.491  0.00  0.00    +0.058 C 
ATOM     23  C   UNL     1      36.776 -23.665 -12.380  0.00  0.00    +0.015 C 
ATOM     24  C   UNL     1      37.040 -25.679 -13.688  0.00  0.00    +0.015 C 
ATOM     25  C   UNL     1      37.701 -24.146 -11.453  0.00  0.00    +0.001 C 
ATOM     26  C   UNL     1      37.965 -26.160 -12.761  0.00  0.00    +0.001 C 
ATOM     27  C   UNL     1      38.295 -25.393 -11.643  0.00  0.00    +0.000 C 
ENDBRANCH   2  22
TORSDOF 4
ENDMDL
MODEL 8
REMARK VINA RESULT:      -8.8      1.839      2.402
REMARK  Name = 9924495
REMARK  4 active torsions:
REMARK  status: ('A' for Active; 'I' for Inactive)
REMARK    1  A    between atoms: N_2  and  C_22
REMARK    2  A    between atoms: C_3  and  C_14
REMARK    3  A    between atoms: C_4  and  C_9
REMARK    4  A    between atoms: C_15  and  C_21
REMARK                            x       y       z     vdW  Elec       q    Type
REMARK                         _______ _______ _______ _____ _____    ______ ____
ROOT
ATOM      1  O   UNL     1      36.145 -22.727 -17.719  0.00  0.00    -0.269 OA
ATOM      2  N   UNL     1      33.865 -22.170 -17.936  0.00  0.00    -0.233 N 
ATOM      3  C   UNL     1      34.711 -23.555 -16.051  0.00  0.00    +0.055 C 
ATOM      4  C   UNL     1      32.327 -23.159 -16.367  0.00  0.00    +0.033 C 
ATOM      5  C   UNL     1      34.986 -22.763 -17.304  0.00  0.00    +0.257 C 
ATOM      6  C   UNL     1      33.443 -23.727 -15.647  0.00  0.00    +0.007 C 
ATOM      7  C   UNL     1      32.580 -22.408 -17.451  0.00  0.00    +0.074 C 
ENDROOT
BRANCH   4   9
ATOM      8  N   UNL     1      30.012 -22.569 -16.574  0.00  0.00    -0.244 NA
ATOM      9  C   UNL     1      30.926 -23.331 -15.933  0.00  0.00    +0.083 C 
ATOM     10  C   UNL     1      30.621 -24.228 -14.924  0.00  0.00    +0.019 C 
ATOM     11  C   UNL     1      29.287 -24.354 -14.548  0.00  0.00    +0.003 C 
ATOM     12  C   UNL     1      28.727 -22.719 -16.181  0.00  0.00    +0.099 C 
ATOM     13  C   UNL     1      28.317 -23.589 -15.184  0.00  0.00    +0.021 C 
ENDBRANCH   4   9
BRANCH   3  14
ATOM     14  C   UNL     1      35.813 -24.138 -15.265  0.00  0.00    +0.014 C 
ATOM     15  C   UNL     1      36.981 -23.428 -14.992  0.00  0.00    +0.069 C 
ATOM     16  C   UNL     1      35.662 -25.441 -14.790  0.00  0.00    +0.001 C 
ATOM     17  C   UNL     1      38.000 -24.020 -14.245  0.00  0.00    +0.010 C 
ATOM     18  C   UNL     1      36.679 -26.033 -14.042  0.00  0.00    +0.000 C 
ATOM     19  C   UNL     1      37.848 -25.322 -13.769  0.00  0.00    +0.001 C 
BRANCH  15  21
ATOM     20  N   UNL     1      37.326 -21.006 -15.846  0.00  0.00    -0.191 NA
ATOM     21  C   UNL     1      37.172 -22.088 -15.464  0.00  0.00    +0.100 C 
ENDBRANCH  15  21
ENDBRANCH   3  14
BRANCH   2  22
ATOM     22  C   UNL     1      34.062 -21.339 -19.109  0.00  0.00    +0.058 C 
ATOM     23  C   UNL     1      32.960 -20.873 -19.815  0.00  0.00    +0.015 C 
ATOM     24  C   UNL     1      35.352 -21.014 -19.513  0.00  0.00    +0.015 C 
ATOM     25  C   UNL     1      33.150 -20.074 -20.942  0.00  0.00    +0.001 C 
ATOM     26  C   UNL     1      35.542 -20.215 -20.640  0.00  0.00    +0.001 C 
ATOM     27  C   UNL     1      34.440 -19.745 -21.355  0.00  0.00    +0.000 C 
ENDBRANCH   2  22
TORSDOF 4
ENDMDL
MODEL 9
REMARK VINA RESULT:      -8.7      1.681      6.688
REMARK  Name = 9924495
REMARK  4 active torsions:
REMARK  status: ('A' for Active; 'I' for Inactive)
REMARK    1  A    between atoms: N_2  and  C_22
REMARK    2  A    between atoms: C_3  and  C_14
REMARK    3  A    between atoms: C_4  and  C_9
REMARK    4  A    between atoms: C_15  and  C_21
REMARK                            x       y       z     vdW  Elec       q    Type
REMARK                         _______ _______ _______ _____ _____    ______ ____
ROOT
ATOM      1  O   UNL     1      33.824 -24.878 -12.867  0.00  0.00    -0.269 OA
ATOM      2  N   UNL     1      35.420 -23.738 -14.173  0.00  0.00    -0.233 N 
ATOM      3  C   UNL     1      33.034 -23.905 -14.856  0.00  0.00    +0.055 C 
ATOM      4  C   UNL     1      34.706 -22.898 -16.316  0.00  0.00    +0.033 C 
ATOM      5  C   UNL     1      34.122 -24.207 -13.856  0.00  0.00    +0.257 C 
ATOM      6  C   UNL     1      33.351 -23.295 -16.008  0.00  0.00    +0.007 C 
ATOM      7  C   UNL     1      35.662 -23.119 -15.399  0.00  0.00    +0.074 C 
ENDROOT
BRANCH   4   9
ATOM      8  N   UNL     1      36.379 -21.906 -17.718  0.00  0.00    -0.244 NA
ATOM      9  C   UNL     1      35.072 -22.219 -17.575  0.00  0.00    +0.083 C 
ATOM     10  C   UNL     1      34.097 -21.938 -18.517  0.00  0.00    +0.019 C 
ATOM     11  C   UNL     1      34.490 -21.295 -19.686  0.00  0.00    +0.003 C 
ATOM     12  C   UNL     1      36.723 -21.282 -18.867  0.00  0.00    +0.099 C 
ATOM     13  C   UNL     1      35.825 -20.958 -19.872  0.00  0.00    +0.021 C 
ENDBRANCH   4   9
BRANCH   3  14
ATOM     14  C   UNL     1      31.632 -24.267 -14.584  0.00  0.00    +0.014 C 
ATOM     15  C   UNL     1      30.576 -23.740 -15.325  0.00  0.00    +0.069 C 
ATOM     16  C   UNL     1      31.376 -25.167 -13.549  0.00  0.00    +0.001 C 
ATOM     17  C   UNL     1      29.263 -24.110 -15.032  0.00  0.00    +0.010 C 
ATOM     18  C   UNL     1      30.064 -25.539 -13.255  0.00  0.00    +0.000 C 
ATOM     19  C   UNL     1      29.007 -25.010 -13.998  0.00  0.00    +0.001 C 
BRANCH  15  21
ATOM     20  N   UNL     1      30.980 -22.063 -17.259  0.00  0.00    -0.191 NA
ATOM     21  C   UNL     1      30.799 -22.813 -16.395  0.00  0.00    +0.100 C 
ENDBRANCH  15  21
ENDBRANCH   3  14
BRANCH   2  22
ATOM     22  C   UNL     1      36.503 -23.934 -13.227  0.00  0.00    +0.058 C 
ATOM     23  C   UNL     1      37.486 -24.880 -13.493  0.00  0.00    +0.015 C 
ATOM     24  C   UNL     1      36.547 -23.172 -12.066  0.00  0.00    +0.015 C 
ATOM     25  C   UNL     1      38.526 -25.067 -12.583  0.00  0.00    +0.001 C 
ATOM     26  C   UNL     1      37.587 -23.360 -11.156  0.00  0.00    +0.001 C 
ATOM     27  C   UNL     1      38.577 -24.308 -11.415  0.00  0.00    +0.000 C 
ENDBRANCH   2  22
TORSDOF 4
ENDMDL
