MODEL 1
REMARK VINA RESULT:     -12.0      0.000      0.000
REMARK  Name = 16750097
REMARK  3 active torsions:
REMARK  status: ('A' for Active; 'I' for Inactive)
REMARK    1  A    between atoms: N_3  and  C_10
REMARK    2  A    between atoms: N_3  and  C_23
REMARK    3  A    between atoms: C_23  and  C_24
REMARK                            x       y       z     vdW  Elec       q    Type
REMARK                         _______ _______ _______ _____ _____    ______ ____
ROOT
ATOM      1  O   UNL     1      33.759 -15.519 -25.745  0.00  0.00    -0.209 OA
ATOM      2  N   UNL     1      35.414 -18.975 -22.151  0.00  0.00    -0.305 N 
ATOM      3  N   UNL     1      35.656 -17.887 -20.229  0.00  0.00    -0.305 N 
ATOM      4  N   UNL     1      34.213 -13.608 -22.255  0.00  0.00    -0.275 N 
ATOM      5  N   UNL     1      33.627 -13.563 -24.561  0.00  0.00    -0.302 NA
ATOM      6  N   UNL     1      33.541 -11.641 -23.224  0.00  0.00    -0.320 N 
ATOM      7  C   UNL     1      35.063 -17.677 -22.419  0.00  0.00    +0.061 C 
ATOM      8  C   UNL     1      35.222 -17.018 -21.204  0.00  0.00    +0.061 C 
ATOM      9  C   UNL     1      35.761 -19.051 -20.831  0.00  0.00    +0.208 C 
ATOM     10  C   UNL     1      34.506 -14.975 -22.281  0.00  0.00    +0.064 C 
ATOM     11  C   UNL     1      34.357 -15.674 -23.488  0.00  0.00    +0.110 C 
ATOM     12  C   UNL     1      34.633 -17.046 -23.588  0.00  0.00    +0.030 C 
ATOM     13  C   UNL     1      34.940 -15.644 -21.125  0.00  0.00    +0.031 C 
ATOM     14  C   UNL     1      33.892 -14.915 -24.685  0.00  0.00    +0.208 C 
ATOM     15  C   UNL     1      33.789 -12.979 -23.402  0.00  0.00    +0.248 C 
ATOM     16  H   UNL     1      35.417 -19.721 -22.794  0.00  0.00    +0.150 HD
ATOM     17  H   UNL     1      35.847 -17.681 -19.286  0.00  0.00    +0.150 HD
ATOM     18  H   UNL     1      34.310 -13.098 -21.419  0.00  0.00    +0.156 HD
ATOM     19  H   UNL     1      33.673 -11.230 -22.339  0.00  0.00    +0.146 HD
ATOM     20  H   UNL     1      33.234 -11.092 -23.981  0.00  0.00    +0.146 HD
ENDROOT
BRANCH   9  21
ATOM     21  N   UNL     1      36.148 -20.247 -20.337  0.00  0.00    -0.263 NA
ATOM     22  H   UNL     1      37.113 -20.436 -20.297  0.00  0.00    +0.127 HD
BRANCH  21  23
ATOM     23  C   UNL     1      35.238 -21.274 -19.860  0.00  0.00    +0.098 C 
BRANCH  23  24
ATOM     24  C   UNL     1      35.629 -21.725 -18.480  0.00  0.00    -0.006 C 
ATOM     25  C   UNL     1      34.706 -22.309 -17.599  0.00  0.00    -0.003 C 
ATOM     26  C   UNL     1      35.136 -22.713 -16.312  0.00  0.00    -0.000 C 
ATOM     27  C   UNL     1      36.958 -21.541 -18.099  0.00  0.00    -0.003 C 
ATOM     28  C   UNL     1      33.363 -22.502 -17.965  0.00  0.00    -0.000 C 
ATOM     29  C   UNL     1      36.478 -22.519 -15.945  0.00  0.00    -0.000 C 
ATOM     30  C   UNL     1      37.382 -21.937 -16.835  0.00  0.00    -0.000 C 
ATOM     31  C   UNL     1      34.213 -23.297 -15.431  0.00  0.00    -0.000 C 
ATOM     32  C   UNL     1      32.459 -23.084 -17.075  0.00  0.00    -0.000 C 
ATOM     33  C   UNL     1      32.884 -23.482 -15.811  0.00  0.00    -0.000 C 
ENDBRANCH  23  24
ENDBRANCH  21  23
ENDBRANCH   9  21
TORSDOF 3
ENDMDL
MODEL 2
REMARK VINA RESULT:     -11.7      2.879      9.306
REMARK  Name = 16750097
REMARK  3 active torsions:
REMARK  status: ('A' for Active; 'I' for Inactive)
REMARK    1  A    between atoms: N_3  and  C_10
REMARK    2  A    between atoms: N_3  and  C_23
REMARK    3  A    between atoms: C_23  and  C_24
REMARK                            x       y       z     vdW  Elec       q    Type
REMARK                         _______ _______ _______ _____ _____    ______ ____
ROOT
ATOM      1  O   UNL     1      33.125 -22.343 -19.154  0.00  0.00    -0.209 OA
ATOM      2  N   UNL     1      34.324 -18.679 -22.723  0.00  0.00    -0.305 N 
ATOM      3  N   UNL     1      36.395 -17.986 -22.310  0.00  0.00    -0.305 N 
ATOM      4  N   UNL     1      36.852 -21.057 -18.455  0.00  0.00    -0.275 N 
ATOM      5  N   UNL     1      35.025 -22.470 -17.883  0.00  0.00    -0.302 NA
ATOM      6  N   UNL     1      37.032 -22.490 -16.674  0.00  0.00    -0.320 N 
ATOM      7  C   UNL     1      34.741 -19.400 -21.634  0.00  0.00    +0.061 C 
ATOM      8  C   UNL     1      36.036 -18.951 -21.396  0.00  0.00    +0.061 C 
ATOM      9  C   UNL     1      35.346 -17.848 -23.090  0.00  0.00    +0.208 C 
ATOM     10  C   UNL     1      36.166 -20.483 -19.530  0.00  0.00    +0.064 C 
ATOM     11  C   UNL     1      34.859 -20.912 -19.802  0.00  0.00    +0.110 C 
ATOM     12  C   UNL     1      34.111 -20.379 -20.864  0.00  0.00    +0.030 C 
ATOM     13  C   UNL     1      36.768 -19.496 -20.328  0.00  0.00    +0.031 C 
ATOM     14  C   UNL     1      34.268 -21.962 -18.923  0.00  0.00    +0.208 C 
ATOM     15  C   UNL     1      36.238 -22.022 -17.691  0.00  0.00    +0.248 C 
ATOM     16  H   UNL     1      33.447 -18.746 -23.163  0.00  0.00    +0.150 HD
ATOM     17  H   UNL     1      37.251 -17.504 -22.366  0.00  0.00    +0.150 HD
ATOM     18  H   UNL     1      37.771 -20.771 -18.246  0.00  0.00    +0.156 HD
ATOM     19  H   UNL     1      37.941 -22.132 -16.555  0.00  0.00    +0.146 HD
ATOM     20  H   UNL     1      36.691 -23.183 -16.063  0.00  0.00    +0.146 HD
ENDROOT
BRANCH   9  21
ATOM     21  N   UNL     1      35.160 -17.032 -24.150  0.00  0.00    -0.263 NA
ATOM     22  H   UNL     1      35.898 -16.943 -24.796  0.00  0.00    +0.127 HD
BRANCH  21  23
ATOM     23  C   UNL     1      33.946 -16.277 -24.406  0.00  0.00    +0.098 C 
BRANCH  23  24
ATOM     24  C   UNL     1      33.959 -14.982 -23.641  0.00  0.00    -0.006 C 
ATOM     25  C   UNL     1      33.753 -13.744 -24.269  0.00  0.00    -0.003 C 
ATOM     26  C   UNL     1      33.778 -12.561 -23.493  0.00  0.00    -0.000 C 
ATOM     27  C   UNL     1      34.187 -15.053 -22.266  0.00  0.00    -0.003 C 
ATOM     28  C   UNL     1      33.524 -13.653 -25.652  0.00  0.00    -0.000 C 
ATOM     29  C   UNL     1      34.009 -12.651 -22.111  0.00  0.00    -0.000 C 
ATOM     30  C   UNL     1      34.211 -13.891 -21.502  0.00  0.00    -0.000 C 
ATOM     31  C   UNL     1      33.573 -11.322 -24.122  0.00  0.00    -0.000 C 
ATOM     32  C   UNL     1      33.322 -12.414 -26.260  0.00  0.00    -0.000 C 
ATOM     33  C   UNL     1      33.345 -11.250 -25.496  0.00  0.00    -0.000 C 
ENDBRANCH  23  24
ENDBRANCH  21  23
ENDBRANCH   9  21
TORSDOF 3
ENDMDL
MODEL 3
REMARK VINA RESULT:     -11.7      0.815      2.010
REMARK  Name = 16750097
REMARK  3 active torsions:
REMARK  status: ('A' for Active; 'I' for Inactive)
REMARK    1  A    between atoms: N_3  and  C_10
REMARK    2  A    between atoms: N_3  and  C_23
REMARK    3  A    between atoms: C_23  and  C_24
REMARK                            x       y       z     vdW  Elec       q    Type
REMARK                         _______ _______ _______ _____ _____    ______ ____
ROOT
ATOM      1  O   UNL     1      33.709 -14.667 -25.878  0.00  0.00    -0.209 OA
ATOM      2  N   UNL     1      35.359 -18.527 -22.718  0.00  0.00    -0.305 N 
ATOM      3  N   UNL     1      35.486 -17.705 -20.658  0.00  0.00    -0.305 N 
ATOM      4  N   UNL     1      33.957 -13.239 -22.145  0.00  0.00    -0.275 N 
ATOM      5  N   UNL     1      33.458 -12.898 -24.447  0.00  0.00    -0.302 NA
ATOM      6  N   UNL     1      33.248 -11.180 -22.867  0.00  0.00    -0.320 N 
ATOM      7  C   UNL     1      34.969 -17.216 -22.822  0.00  0.00    +0.061 C 
ATOM      8  C   UNL     1      35.056 -16.725 -21.523  0.00  0.00    +0.061 C 
ATOM      9  C   UNL     1      35.658 -18.771 -21.407  0.00  0.00    +0.208 C 
ATOM     10  C   UNL     1      34.303 -14.578 -22.343  0.00  0.00    +0.064 C 
ATOM     11  C   UNL     1      34.227 -15.111 -23.640  0.00  0.00    +0.110 C 
ATOM     12  C   UNL     1      34.559 -16.446 -23.912  0.00  0.00    +0.030 C 
ATOM     13  C   UNL     1      34.719 -15.385 -21.271  0.00  0.00    +0.031 C 
ATOM     14  C   UNL     1      33.779 -14.210 -24.741  0.00  0.00    +0.208 C 
ATOM     15  C   UNL     1      33.553 -12.472 -23.214  0.00  0.00    +0.248 C 
ATOM     16  H   UNL     1      35.414 -19.177 -23.455  0.00  0.00    +0.150 HD
ATOM     17  H   UNL     1      35.634 -17.624 -19.688  0.00  0.00    +0.150 HD
ATOM     18  H   UNL     1      34.003 -12.845 -21.244  0.00  0.00    +0.156 HD
ATOM     19  H   UNL     1      33.330 -10.890 -21.929  0.00  0.00    +0.146 HD
ATOM     20  H   UNL     1      32.948 -10.544 -23.555  0.00  0.00    +0.146 HD
ENDROOT
BRANCH   9  21
ATOM     21  N   UNL     1      36.072 -20.010 -21.063  0.00  0.00    -0.263 NA
ATOM     22  H   UNL     1      36.035 -20.713 -21.752  0.00  0.00    +0.127 HD
BRANCH  21  23
ATOM     23  C   UNL     1      36.568 -20.378 -19.749  0.00  0.00    +0.098 C 
BRANCH  23  24
ATOM     24  C   UNL     1      35.542 -21.189 -19.006  0.00  0.00    -0.006 C 
ATOM     25  C   UNL     1      35.835 -21.826 -17.790  0.00  0.00    -0.003 C 
ATOM     26  C   UNL     1      34.825 -22.575 -17.139  0.00  0.00    -0.000 C 
ATOM     27  C   UNL     1      34.271 -21.289 -19.573  0.00  0.00    -0.003 C 
ATOM     28  C   UNL     1      37.109 -21.737 -17.204  0.00  0.00    -0.000 C 
ATOM     29  C   UNL     1      33.552 -22.664 -17.725  0.00  0.00    -0.000 C 
ATOM     30  C   UNL     1      33.278 -22.024 -18.935  0.00  0.00    -0.000 C 
ATOM     31  C   UNL     1      35.118 -23.212 -15.923  0.00  0.00    -0.000 C 
ATOM     32  C   UNL     1      37.382 -22.378 -15.995  0.00  0.00    -0.000 C 
ATOM     33  C   UNL     1      36.389 -23.113 -15.355  0.00  0.00    -0.000 C 
ENDBRANCH  23  24
ENDBRANCH  21  23
ENDBRANCH   9  21
TORSDOF 3
ENDMDL
MODEL 4
REMARK VINA RESULT:     -11.5      4.013      9.801
REMARK  Name = 16750097
REMARK  3 active torsions:
REMARK  status: ('A' for Active; 'I' for Inactive)
REMARK    1  A    between atoms: N_3  and  C_10
REMARK    2  A    between atoms: N_3  and  C_23
REMARK    3  A    between atoms: C_23  and  C_24
REMARK                            x       y       z     vdW  Elec       q    Type
REMARK                         _______ _______ _______ _____ _____    ______ ____
ROOT
ATOM      1  O   UNL     1      37.621 -22.955 -13.952  0.00  0.00    -0.209 OA
ATOM      2  N   UNL     1      36.778 -20.915 -18.721  0.00  0.00    -0.305 N 
ATOM      3  N   UNL     1      34.716 -21.467 -19.335  0.00  0.00    -0.305 N 
ATOM      4  N   UNL     1      33.911 -23.920 -15.113  0.00  0.00    -0.275 N 
ATOM      5  N   UNL     1      35.645 -24.014 -13.485  0.00  0.00    -0.302 NA
ATOM      6  N   UNL     1      33.571 -25.050 -13.146  0.00  0.00    -0.320 N 
ATOM      7  C   UNL     1      36.270 -21.650 -17.680  0.00  0.00    +0.061 C 
ATOM      8  C   UNL     1      34.982 -21.981 -18.087  0.00  0.00    +0.061 C 
ATOM      9  C   UNL     1      35.813 -20.834 -19.685  0.00  0.00    +0.208 C 
ATOM     10  C   UNL     1      34.682 -23.157 -15.995  0.00  0.00    +0.064 C 
ATOM     11  C   UNL     1      35.986 -22.801 -15.619  0.00  0.00    +0.110 C 
ATOM     12  C   UNL     1      36.815 -22.037 -16.454  0.00  0.00    +0.030 C 
ATOM     13  C   UNL     1      34.167 -22.747 -17.236  0.00  0.00    +0.031 C 
ATOM     14  C   UNL     1      36.482 -23.262 -14.290  0.00  0.00    +0.208 C 
ATOM     15  C   UNL     1      34.441 -24.306 -13.903  0.00  0.00    +0.248 C 
ATOM     16  H   UNL     1      37.677 -20.518 -18.766  0.00  0.00    +0.150 HD
ATOM     17  H   UNL     1      33.884 -21.554 -19.854  0.00  0.00    +0.150 HD
ATOM     18  H   UNL     1      32.994 -24.180 -15.356  0.00  0.00    +0.156 HD
ATOM     19  H   UNL     1      32.671 -25.253 -13.489  0.00  0.00    +0.146 HD
ATOM     20  H   UNL     1      33.848 -25.380 -12.261  0.00  0.00    +0.146 HD
ENDROOT
BRANCH   9  21
ATOM     21  N   UNL     1      36.094 -20.151 -20.816  0.00  0.00    -0.263 NA
ATOM     22  H   UNL     1      36.466 -20.655 -21.576  0.00  0.00    +0.127 HD
BRANCH  21  23
ATOM     23  C   UNL     1      35.883 -18.725 -20.991  0.00  0.00    +0.098 C 
BRANCH  23  24
ATOM     24  C   UNL     1      35.196 -18.450 -22.300  0.00  0.00    -0.006 C 
ATOM     25  C   UNL     1      34.824 -17.153 -22.687  0.00  0.00    -0.003 C 
ATOM     26  C   UNL     1      34.180 -16.959 -23.933  0.00  0.00    -0.000 C 
ATOM     27  C   UNL     1      34.937 -19.541 -23.129  0.00  0.00    -0.003 C 
ATOM     28  C   UNL     1      35.076 -16.042 -21.865  0.00  0.00    -0.000 C 
ATOM     29  C   UNL     1      33.927 -18.070 -24.754  0.00  0.00    -0.000 C 
ATOM     30  C   UNL     1      34.305 -19.352 -24.354  0.00  0.00    -0.000 C 
ATOM     31  C   UNL     1      33.808 -15.662 -24.320  0.00  0.00    -0.000 C 
ATOM     32  C   UNL     1      34.698 -14.759 -22.266  0.00  0.00    -0.000 C 
ATOM     33  C   UNL     1      34.066 -14.570 -23.491  0.00  0.00    -0.000 C 
ENDBRANCH  23  24
ENDBRANCH  21  23
ENDBRANCH   9  21
TORSDOF 3
ENDMDL
MODEL 5
REMARK VINA RESULT:     -11.5      3.606     10.982
REMARK  Name = 16750097
REMARK  3 active torsions:
REMARK  status: ('A' for Active; 'I' for Inactive)
REMARK    1  A    between atoms: N_3  and  C_10
REMARK    2  A    between atoms: N_3  and  C_23
REMARK    3  A    between atoms: C_23  and  C_24
REMARK                            x       y       z     vdW  Elec       q    Type
REMARK                         _______ _______ _______ _____ _____    ______ ____
ROOT
ATOM      1  O   UNL     1      34.568 -19.453 -24.258  0.00  0.00    -0.209 OA
ATOM      2  N   UNL     1      33.740 -14.271 -24.511  0.00  0.00    -0.305 N 
ATOM      3  N   UNL     1      34.310 -13.400 -22.548  0.00  0.00    -0.305 N 
ATOM      4  N   UNL     1      35.580 -17.828 -20.740  0.00  0.00    -0.275 N 
ATOM      5  N   UNL     1      35.361 -19.748 -22.130  0.00  0.00    -0.302 NA
ATOM      6  N   UNL     1      36.158 -19.895 -19.932  0.00  0.00    -0.320 N 
ATOM      7  C   UNL     1      34.160 -15.330 -23.748  0.00  0.00    +0.061 C 
ATOM      8  C   UNL     1      34.511 -14.761 -22.528  0.00  0.00    +0.061 C 
ATOM      9  C   UNL     1      33.847 -13.140 -23.750  0.00  0.00    +0.208 C 
ATOM     10  C   UNL     1      35.106 -16.966 -21.732  0.00  0.00    +0.064 C 
ATOM     11  C   UNL     1      34.743 -17.503 -22.977  0.00  0.00    +0.110 C 
ATOM     12  C   UNL     1      34.259 -16.697 -24.018  0.00  0.00    +0.030 C 
ATOM     13  C   UNL     1      34.993 -15.585 -21.498  0.00  0.00    +0.031 C 
ATOM     14  C   UNL     1      34.882 -18.975 -23.172  0.00  0.00    +0.208 C 
ATOM     15  C   UNL     1      35.680 -19.176 -20.998  0.00  0.00    +0.248 C 
ATOM     16  H   UNL     1      33.418 -14.315 -25.440  0.00  0.00    +0.150 HD
ATOM     17  H   UNL     1      34.476 -12.760 -21.819  0.00  0.00    +0.150 HD
ATOM     18  H   UNL     1      35.841 -17.473 -19.860  0.00  0.00    +0.156 HD
ATOM     19  H   UNL     1      36.390 -19.436 -19.092  0.00  0.00    +0.146 HD
ATOM     20  H   UNL     1      36.269 -20.871 -20.006  0.00  0.00    +0.146 HD
ENDROOT
BRANCH   9  21
ATOM     21  N   UNL     1      33.484 -11.961 -24.300  0.00  0.00    -0.263 NA
ATOM     22  H   UNL     1      32.672 -11.946 -24.858  0.00  0.00    +0.127 HD
BRANCH  21  23
ATOM     23  C   UNL     1      34.205 -10.713 -24.125  0.00  0.00    +0.098 C 
BRANCH  23  24
ATOM     24  C   UNL     1      33.373  -9.726 -23.354  0.00  0.00    -0.006 C 
ATOM     25  C   UNL     1      33.579  -8.341 -23.453  0.00  0.00    -0.003 C 
ATOM     26  C   UNL     1      32.761  -7.463 -22.701  0.00  0.00    -0.000 C 
ATOM     27  C   UNL     1      32.375 -10.239 -22.525  0.00  0.00    -0.003 C 
ATOM     28  C   UNL     1      34.579  -7.806 -24.281  0.00  0.00    -0.000 C 
ATOM     29  C   UNL     1      31.762  -7.998 -21.872  0.00  0.00    -0.000 C 
ATOM     30  C   UNL     1      31.570  -9.378 -21.787  0.00  0.00    -0.000 C 
ATOM     31  C   UNL     1      32.968  -6.078 -22.800  0.00  0.00    -0.000 C 
ATOM     32  C   UNL     1      34.771  -6.426 -24.366  0.00  0.00    -0.000 C 
ATOM     33  C   UNL     1      33.966  -5.564 -23.627  0.00  0.00    -0.000 C 
ENDBRANCH  23  24
ENDBRANCH  21  23
ENDBRANCH   9  21
TORSDOF 3
ENDMDL
MODEL 6
REMARK VINA RESULT:     -11.4      3.773      9.442
REMARK  Name = 16750097
REMARK  3 active torsions:
REMARK  status: ('A' for Active; 'I' for Inactive)
REMARK    1  A    between atoms: N_3  and  C_10
REMARK    2  A    between atoms: N_3  and  C_23
REMARK    3  A    between atoms: C_23  and  C_24
REMARK                            x       y       z     vdW  Elec       q    Type
REMARK                         _______ _______ _______ _____ _____    ______ ____
ROOT
ATOM      1  O   UNL     1      30.237 -22.901 -16.632  0.00  0.00    -0.209 OA
ATOM      2  N   UNL     1      34.067 -20.946 -19.653  0.00  0.00    -0.305 N 
ATOM      3  N   UNL     1      36.008 -21.561 -18.763  0.00  0.00    -0.305 N 
ATOM      4  N   UNL     1      33.765 -23.980 -15.074  0.00  0.00    -0.275 N 
ATOM      5  N   UNL     1      31.387 -24.005 -14.988  0.00  0.00    -0.302 NA
ATOM      6  N   UNL     1      32.695 -25.091 -13.376  0.00  0.00    -0.320 N 
ATOM      7  C   UNL     1      33.744 -21.680 -18.540  0.00  0.00    +0.061 C 
ATOM      8  C   UNL     1      34.972 -22.053 -18.003  0.00  0.00    +0.061 C 
ATOM      9  C   UNL     1      35.430 -20.903 -19.744  0.00  0.00    +0.208 C 
ATOM     10  C   UNL     1      33.788 -23.208 -16.239  0.00  0.00    +0.064 C 
ATOM     11  C   UNL     1      32.569 -22.813 -16.811  0.00  0.00    +0.110 C 
ATOM     12  C   UNL     1      32.516 -22.037 -17.978  0.00  0.00    +0.030 C 
ATOM     13  C   UNL     1      35.003 -22.830 -16.833  0.00  0.00    +0.031 C 
ATOM     14  C   UNL     1      31.308 -23.241 -16.139  0.00  0.00    +0.208 C 
ATOM     15  C   UNL     1      32.560 -24.336 -14.514  0.00  0.00    +0.248 C 
ATOM     16  H   UNL     1      33.431 -20.525 -20.275  0.00  0.00    +0.150 HD
ATOM     17  H   UNL     1      36.973 -21.677 -18.607  0.00  0.00    +0.150 HD
ATOM     18  H   UNL     1      34.608 -24.269 -14.656  0.00  0.00    +0.156 HD
ATOM     19  H   UNL     1      33.592 -25.323 -13.044  0.00  0.00    +0.146 HD
ATOM     20  H   UNL     1      31.896 -25.400 -12.892  0.00  0.00    +0.146 HD
ENDROOT
BRANCH   9  21
ATOM     21  N   UNL     1      35.983 -20.225 -20.773  0.00  0.00    -0.263 NA
ATOM     22  H   UNL     1      36.500 -20.739 -21.435  0.00  0.00    +0.127 HD
BRANCH  21  23
ATOM     23  C   UNL     1      35.866 -18.792 -20.973  0.00  0.00    +0.098 C 
BRANCH  23  24
ATOM     24  C   UNL     1      35.200 -18.495 -22.288  0.00  0.00    -0.006 C 
ATOM     25  C   UNL     1      34.832 -17.192 -22.659  0.00  0.00    -0.003 C 
ATOM     26  C   UNL     1      34.208 -16.979 -23.912  0.00  0.00    -0.000 C 
ATOM     27  C   UNL     1      34.957 -19.573 -23.140  0.00  0.00    -0.003 C 
ATOM     28  C   UNL     1      35.069 -16.095 -21.815  0.00  0.00    -0.000 C 
ATOM     29  C   UNL     1      33.971 -18.076 -24.756  0.00  0.00    -0.000 C 
ATOM     30  C   UNL     1      34.344 -19.364 -24.371  0.00  0.00    -0.000 C 
ATOM     31  C   UNL     1      33.840 -15.676 -24.283  0.00  0.00    -0.000 C 
ATOM     32  C   UNL     1      34.695 -14.807 -22.199  0.00  0.00    -0.000 C 
ATOM     33  C   UNL     1      34.083 -14.598 -23.432  0.00  0.00    -0.000 C 
ENDBRANCH  23  24
ENDBRANCH  21  23
ENDBRANCH   9  21
TORSDOF 3
ENDMDL
MODEL 7
REMARK VINA RESULT:     -11.4      3.100      5.537
REMARK  Name = 16750097
REMARK  3 active torsions:
REMARK  status: ('A' for Active; 'I' for Inactive)
REMARK    1  A    between atoms: N_3  and  C_10
REMARK    2  A    between atoms: N_3  and  C_23
REMARK    3  A    between atoms: C_23  and  C_24
REMARK                            x       y       z     vdW  Elec       q    Type
REMARK                         _______ _______ _______ _____ _____    ______ ____
ROOT
ATOM      1  O   UNL     1      37.946 -19.020 -21.008  0.00  0.00    -0.209 OA
ATOM      2  N   UNL     1      35.123 -22.196 -17.918  0.00  0.00    -0.305 N 
ATOM      3  N   UNL     1      33.031 -22.179 -18.664  0.00  0.00    -0.305 N 
ATOM      4  N   UNL     1      34.158 -19.027 -22.309  0.00  0.00    -0.275 N 
ATOM      5  N   UNL     1      36.401 -18.258 -22.517  0.00  0.00    -0.302 NA
ATOM      6  N   UNL     1      34.713 -17.564 -23.987  0.00  0.00    -0.320 N 
ATOM      7  C   UNL     1      35.127 -21.351 -18.998  0.00  0.00    +0.061 C 
ATOM      8  C   UNL     1      33.810 -21.358 -19.447  0.00  0.00    +0.061 C 
ATOM      9  C   UNL     1      33.849 -22.665 -17.758  0.00  0.00    +0.208 C 
ATOM     10  C   UNL     1      34.455 -19.817 -21.195  0.00  0.00    +0.064 C 
ATOM     11  C   UNL     1      35.773 -19.837 -20.714  0.00  0.00    +0.110 C 
ATOM     12  C   UNL     1      36.143 -20.606 -19.600  0.00  0.00    +0.030 C 
ATOM     13  C   UNL     1      33.460 -20.580 -20.563  0.00  0.00    +0.031 C 
ATOM     14  C   UNL     1      36.790 -19.008 -21.422  0.00  0.00    +0.208 C 
ATOM     15  C   UNL     1      35.154 -18.289 -22.908  0.00  0.00    +0.248 C 
ATOM     16  H   UNL     1      35.899 -22.425 -17.357  0.00  0.00    +0.150 HD
ATOM     17  H   UNL     1      32.068 -22.362 -18.762  0.00  0.00    +0.150 HD
ATOM     18  H   UNL     1      33.241 -18.998 -22.664  0.00  0.00    +0.156 HD
ATOM     19  H   UNL     1      33.768 -17.609 -24.257  0.00  0.00    +0.146 HD
ATOM     20  H   UNL     1      35.343 -16.999 -24.490  0.00  0.00    +0.146 HD
ENDROOT
BRANCH   9  21
ATOM     21  N   UNL     1      33.604 -23.522 -16.744  0.00  0.00    -0.263 NA
ATOM     22  H   UNL     1      33.432 -24.465 -16.971  0.00  0.00    +0.127 HD
BRANCH  21  23
ATOM     23  C   UNL     1      33.577 -23.151 -15.340  0.00  0.00    +0.098 C 
BRANCH  23  24
ATOM     24  C   UNL     1      32.463 -23.865 -14.626  0.00  0.00    -0.006 C 
ATOM     25  C   UNL     1      31.120 -23.718 -15.007  0.00  0.00    -0.003 C 
ATOM     26  C   UNL     1      30.117 -24.419 -14.295  0.00  0.00    -0.000 C 
ATOM     27  C   UNL     1      32.813 -24.691 -13.558  0.00  0.00    -0.003 C 
ATOM     28  C   UNL     1      30.748 -22.891 -16.080  0.00  0.00    -0.000 C 
ATOM     29  C   UNL     1      30.488 -25.245 -13.221  0.00  0.00    -0.000 C 
ATOM     30  C   UNL     1      31.828 -25.380 -12.857  0.00  0.00    -0.000 C 
ATOM     31  C   UNL     1      28.774 -24.271 -14.675  0.00  0.00    -0.000 C 
ATOM     32  C   UNL     1      29.408 -22.756 -16.444  0.00  0.00    -0.000 C 
ATOM     33  C   UNL     1      28.423 -23.446 -15.743  0.00  0.00    -0.000 C 
ENDBRANCH  23  24
ENDBRANCH  21  23
ENDBRANCH   9  21
TORSDOF 3
ENDMDL
MODEL 8
REMARK VINA RESULT:     -11.4      2.761      4.574
REMARK  Name = 16750097
REMARK  3 active torsions:
REMARK  status: ('A' for Active; 'I' for Inactive)
REMARK    1  A    between atoms: N_3  and  C_10
REMARK    2  A    between atoms: N_3  and  C_23
REMARK    3  A    between atoms: C_23  and  C_24
REMARK                            x       y       z     vdW  Elec       q    Type
REMARK                         _______ _______ _______ _____ _____    ______ ____
ROOT
ATOM      1  O   UNL     1      31.513 -11.136 -19.885  0.00  0.00    -0.209 OA
ATOM      2  N   UNL     1      34.138 -15.205 -21.924  0.00  0.00    -0.305 N 
ATOM      3  N   UNL     1      34.753 -14.647 -23.985  0.00  0.00    -0.305 N 
ATOM      4  N   UNL     1      32.648 -10.184 -23.606  0.00  0.00    -0.275 N 
ATOM      5  N   UNL     1      31.547  -9.597 -21.580  0.00  0.00    -0.302 NA
ATOM      6  N   UNL     1      31.661  -8.124 -23.398  0.00  0.00    -0.320 N 
ATOM      7  C   UNL     1      33.663 -13.933 -22.117  0.00  0.00    +0.061 C 
ATOM      8  C   UNL     1      34.060 -13.607 -23.409  0.00  0.00    +0.061 C 
ATOM      9  C   UNL     1      34.782 -15.589 -23.068  0.00  0.00    +0.208 C 
ATOM     10  C   UNL     1      33.003 -11.450 -23.131  0.00  0.00    +0.064 C 
ATOM     11  C   UNL     1      32.621 -11.815 -21.831  0.00  0.00    +0.110 C 
ATOM     12  C   UNL     1      32.942 -13.069 -21.290  0.00  0.00    +0.030 C 
ATOM     13  C   UNL     1      33.729 -12.346 -23.933  0.00  0.00    +0.031 C 
ATOM     14  C   UNL     1      31.851 -10.826 -21.023  0.00  0.00    +0.208 C 
ATOM     15  C   UNL     1      31.937  -9.327 -22.798  0.00  0.00    +0.248 C 
ATOM     16  H   UNL     1      34.035 -15.747 -21.109  0.00  0.00    +0.150 HD
ATOM     17  H   UNL     1      35.143 -14.679 -24.888  0.00  0.00    +0.150 HD
ATOM     18  H   UNL     1      32.906  -9.907 -24.514  0.00  0.00    +0.156 HD
ATOM     19  H   UNL     1      31.969  -7.951 -24.318  0.00  0.00    +0.146 HD
ATOM     20  H   UNL     1      31.155  -7.435 -22.910  0.00  0.00    +0.146 HD
ENDROOT
BRANCH   9  21
ATOM     21  N   UNL     1      35.335 -16.820 -23.111  0.00  0.00    -0.263 NA
ATOM     22  H   UNL     1      36.281 -16.888 -23.377  0.00  0.00    +0.127 HD
BRANCH  21  23
ATOM     23  C   UNL     1      34.633 -18.050 -22.790  0.00  0.00    +0.098 C 
BRANCH  23  24
ATOM     24  C   UNL     1      35.384 -18.828 -21.745  0.00  0.00    -0.006 C 
ATOM     25  C   UNL     1      34.742 -19.741 -20.893  0.00  0.00    -0.003 C 
ATOM     26  C   UNL     1      35.506 -20.443 -19.929  0.00  0.00    -0.000 C 
ATOM     27  C   UNL     1      36.759 -18.610 -21.649  0.00  0.00    -0.003 C 
ATOM     28  C   UNL     1      33.360 -19.973 -20.974  0.00  0.00    -0.000 C 
ATOM     29  C   UNL     1      36.888 -20.210 -19.846  0.00  0.00    -0.000 C 
ATOM     30  C   UNL     1      37.510 -19.300 -20.702  0.00  0.00    -0.000 C 
ATOM     31  C   UNL     1      34.864 -21.355 -19.077  0.00  0.00    -0.000 C 
ATOM     32  C   UNL     1      32.739 -20.883 -20.118  0.00  0.00    -0.000 C 
ATOM     33  C   UNL     1      33.490 -21.574 -19.172  0.00  0.00    -0.000 C 
ENDBRANCH  23  24
ENDBRANCH  21  23
ENDBRANCH   9  21
TORSDOF 3
ENDMDL
MODEL 9
REMARK VINA RESULT:     -11.4      3.653      9.229
REMARK  Name = 16750097
REMARK  3 active torsions:
REMARK  status: ('A' for Active; 'I' for Inactive)
REMARK    1  A    between atoms: N_3  and  C_10
REMARK    2  A    between atoms: N_3  and  C_23
REMARK    3  A    between atoms: C_23  and  C_24
REMARK                            x       y       z     vdW  Elec       q    Type
REMARK                         _______ _______ _______ _____ _____    ______ ____
ROOT
ATOM      1  O   UNL     1      35.252 -23.872 -15.758  0.00  0.00    -0.209 OA
ATOM      2  N   UNL     1      35.791 -20.658 -19.880  0.00  0.00    -0.305 N 
ATOM      3  N   UNL     1      33.755 -20.106 -20.575  0.00  0.00    -0.305 N 
ATOM      4  N   UNL     1      31.606 -22.842 -17.055  0.00  0.00    -0.275 N 
ATOM      5  N   UNL     1      32.980 -24.042 -15.527  0.00  0.00    -0.302 NA
ATOM      6  N   UNL     1      30.641 -24.121 -15.413  0.00  0.00    -0.320 N 
ATOM      7  C   UNL     1      34.927 -21.311 -19.038  0.00  0.00    +0.061 C 
ATOM      8  C   UNL     1      33.662 -20.950 -19.492  0.00  0.00    +0.061 C 
ATOM      9  C   UNL     1      35.044 -19.952 -20.780  0.00  0.00    +0.208 C 
ATOM     10  C   UNL     1      32.704 -22.313 -17.740  0.00  0.00    +0.064 C 
ATOM     11  C   UNL     1      33.995 -22.654 -17.311  0.00  0.00    +0.110 C 
ATOM     12  C   UNL     1      35.142 -22.161 -17.951  0.00  0.00    +0.030 C 
ATOM     13  C   UNL     1      32.526 -21.455 -18.837  0.00  0.00    +0.031 C 
ATOM     14  C   UNL     1      34.126 -23.569 -16.141  0.00  0.00    +0.208 C 
ATOM     15  C   UNL     1      31.809 -23.680 -15.983  0.00  0.00    +0.248 C 
ATOM     16  H   UNL     1      36.774 -20.692 -19.843  0.00  0.00    +0.150 HD
ATOM     17  H   UNL     1      33.015 -19.704 -21.086  0.00  0.00    +0.150 HD
ATOM     18  H   UNL     1      30.691 -22.616 -17.338  0.00  0.00    +0.156 HD
ATOM     19  H   UNL     1      29.775 -23.830 -15.780  0.00  0.00    +0.146 HD
ATOM     20  H   UNL     1      30.670 -24.727 -14.638  0.00  0.00    +0.146 HD
ENDROOT
BRANCH   9  21
ATOM     21  N   UNL     1      35.688 -19.225 -21.718  0.00  0.00    -0.263 NA
ATOM     22  H   UNL     1      35.925 -19.673 -22.563  0.00  0.00    +0.127 HD
BRANCH  21  23
ATOM     23  C   UNL     1      36.056 -17.828 -21.568  0.00  0.00    +0.098 C 
BRANCH  23  24
ATOM     24  C   UNL     1      35.272 -16.971 -22.522  0.00  0.00    -0.006 C 
ATOM     25  C   UNL     1      34.656 -15.777 -22.116  0.00  0.00    -0.003 C 
ATOM     26  C   UNL     1      33.931 -15.014 -23.063  0.00  0.00    -0.000 C 
ATOM     27  C   UNL     1      35.174 -17.408 -23.844  0.00  0.00    -0.003 C 
ATOM     28  C   UNL     1      34.742 -15.321 -20.790  0.00  0.00    -0.000 C 
ATOM     29  C   UNL     1      33.843 -15.470 -24.389  0.00  0.00    -0.000 C 
ATOM     30  C   UNL     1      34.463 -16.659 -24.775  0.00  0.00    -0.000 C 
ATOM     31  C   UNL     1      33.315 -13.820 -22.657  0.00  0.00    -0.000 C 
ATOM     32  C   UNL     1      34.123 -14.132 -20.404  0.00  0.00    -0.000 C 
ATOM     33  C   UNL     1      33.411 -13.382 -21.336  0.00  0.00    -0.000 C 
ENDBRANCH  23  24
ENDBRANCH  21  23
ENDBRANCH   9  21
TORSDOF 3
ENDMDL
