MODEL 1
REMARK VINA RESULT:     -12.5      0.000      0.000
REMARK  Name = 9998128
REMARK  2 active torsions:
REMARK  status: ('A' for Active; 'I' for Inactive)
REMARK    1  A    between atoms: N_1  and  C_15
REMARK    2  A    between atoms: C_7  and  C_24
REMARK                            x       y       z     vdW  Elec       q    Type
REMARK                         _______ _______ _______ _____ _____    ______ ____
ROOT
ATOM      1  N   UNL     1      35.778 -22.953 -15.852  0.00  0.00    -0.290 N 
ATOM      2  N   UNL     1      33.436 -23.145 -15.971  0.00  0.00    -0.327 NA
ATOM      3  N   UNL     1      32.231 -22.330 -17.892  0.00  0.00    -0.342 NA
ATOM      4  C   UNL     1      34.618 -22.114 -17.810  0.00  0.00    +0.143 C 
ATOM      5  C   UNL     1      34.572 -22.732 -16.563  0.00  0.00    +0.184 C 
ATOM      6  C   UNL     1      33.385 -21.930 -18.455  0.00  0.00    +0.133 C 
ATOM      7  C   UNL     1      32.319 -22.916 -16.680  0.00  0.00    +0.165 C 
ATOM      8  C   UNL     1      35.818 -21.691 -18.408  0.00  0.00    -0.011 C 
ATOM      9  C   UNL     1      33.390 -21.314 -19.705  0.00  0.00    +0.029 C 
ATOM     10  C   UNL     1      35.794 -21.080 -19.657  0.00  0.00    -0.004 C 
ATOM     11  C   UNL     1      34.578 -20.891 -20.306  0.00  0.00    +0.002 C 
ATOM     12  H   UNL     1      36.476 -22.282 -16.035  0.00  0.00    +0.154 HD
ENDROOT
BRANCH   1  15
ATOM     13  N   UNL     1      37.406 -26.624 -12.083  0.00  0.00    -0.236 N 
ATOM     14  N   UNL     1      37.884 -25.870 -11.079  0.00  0.00    -0.180 NA
ATOM     15  C   UNL     1      36.170 -23.942 -14.937  0.00  0.00    +0.050 C 
ATOM     16  C   UNL     1      37.128 -24.573 -12.806  0.00  0.00    +0.037 C 
ATOM     17  C   UNL     1      36.938 -25.907 -13.149  0.00  0.00    +0.067 C 
ATOM     18  C   UNL     1      36.741 -23.568 -13.709  0.00  0.00    +0.018 C 
ATOM     19  C   UNL     1      35.993 -25.295 -15.251  0.00  0.00    +0.016 C 
ATOM     20  C   UNL     1      36.373 -26.307 -14.363  0.00  0.00    +0.017 C 
ATOM     21  C   UNL     1      37.713 -24.622 -11.523  0.00  0.00    +0.119 C 
ATOM     22  H   UNL     1      37.395 -27.608 -12.053  0.00  0.00    +0.174 HD
ENDBRANCH   1  15
BRANCH   7  24
ATOM     23  N   UNL     1      29.968 -22.772 -16.600  0.00  0.00    -0.398 NA
ATOM     24  C   UNL     1      31.080 -23.343 -16.084  0.00  0.00    +0.197 C 
ATOM     25  C   UNL     1      31.063 -24.273 -15.054  0.00  0.00    +0.098 C 
ATOM     26  C   UNL     1      28.788 -23.152 -16.060  0.00  0.00    +0.110 C 
ATOM     27  C   UNL     1      29.831 -24.639 -14.524  0.00  0.00    -0.016 C 
ATOM     28  C   UNL     1      28.666 -24.072 -15.032  0.00  0.00    +0.023 C 
ATOM     29  C   UNL     1      27.559 -22.524 -16.628  0.00  0.00    +0.066 C 
ENDBRANCH   7  24
TORSDOF 2
ENDMDL
MODEL 2
REMARK VINA RESULT:     -12.0      1.908      6.863
REMARK  Name = 9998128
REMARK  2 active torsions:
REMARK  status: ('A' for Active; 'I' for Inactive)
REMARK    1  A    between atoms: N_1  and  C_15
REMARK    2  A    between atoms: C_7  and  C_24
REMARK                            x       y       z     vdW  Elec       q    Type
REMARK                         _______ _______ _______ _____ _____    ______ ____
ROOT
ATOM      1  N   UNL     1      33.420 -23.890 -13.562  0.00  0.00    -0.290 N 
ATOM      2  N   UNL     1      34.517 -23.048 -15.466  0.00  0.00    -0.327 NA
ATOM      3  N   UNL     1      36.905 -23.262 -15.703  0.00  0.00    -0.342 NA
ATOM      4  C   UNL     1      35.826 -24.133 -13.747  0.00  0.00    +0.143 C 
ATOM      5  C   UNL     1      34.622 -23.682 -14.283  0.00  0.00    +0.184 C 
ATOM      6  C   UNL     1      36.975 -23.892 -14.517  0.00  0.00    +0.133 C 
ATOM      7  C   UNL     1      35.680 -22.874 -16.113  0.00  0.00    +0.165 C 
ATOM      8  C   UNL     1      35.910 -24.792 -12.509  0.00  0.00    -0.011 C 
ATOM      9  C   UNL     1      38.198 -24.328 -14.014  0.00  0.00    +0.029 C 
ATOM     10  C   UNL     1      37.145 -25.218 -12.030  0.00  0.00    -0.004 C 
ATOM     11  C   UNL     1      38.290 -24.985 -12.784  0.00  0.00    +0.002 C 
ATOM     12  H   UNL     1      33.540 -23.905 -12.584  0.00  0.00    +0.154 HD
ENDROOT
BRANCH   1  15
ATOM     13  N   UNL     1      28.221 -24.380 -15.315  0.00  0.00    -0.236 N 
ATOM     14  N   UNL     1      28.031 -23.290 -16.078  0.00  0.00    -0.180 NA
ATOM     15  C   UNL     1      32.090 -24.078 -13.972  0.00  0.00    +0.050 C 
ATOM     16  C   UNL     1      30.147 -23.337 -15.209  0.00  0.00    +0.037 C 
ATOM     17  C   UNL     1      29.470 -24.467 -14.764  0.00  0.00    +0.067 C 
ATOM     18  C   UNL     1      31.479 -23.131 -14.811  0.00  0.00    +0.018 C 
ATOM     19  C   UNL     1      31.379 -25.205 -13.541  0.00  0.00    +0.016 C 
ATOM     20  C   UNL     1      30.053 -25.424 -13.929  0.00  0.00    +0.017 C 
ATOM     21  C   UNL     1      29.206 -22.659 -16.011  0.00  0.00    +0.119 C 
ATOM     22  H   UNL     1      27.522 -25.056 -15.166  0.00  0.00    +0.174 HD
ENDBRANCH   1  15
BRANCH   7  24
ATOM     23  N   UNL     1      34.371 -22.075 -17.903  0.00  0.00    -0.398 NA
ATOM     24  C   UNL     1      35.614 -22.199 -17.383  0.00  0.00    +0.197 C 
ATOM     25  C   UNL     1      36.760 -21.724 -18.004  0.00  0.00    +0.098 C 
ATOM     26  C   UNL     1      34.276 -21.447 -19.096  0.00  0.00    +0.110 C 
ATOM     27  C   UNL     1      36.622 -21.084 -19.229  0.00  0.00    -0.016 C 
ATOM     28  C   UNL     1      35.359 -20.938 -19.794  0.00  0.00    +0.023 C 
ATOM     29  C   UNL     1      32.906 -21.309 -19.672  0.00  0.00    +0.066 C 
ENDBRANCH   7  24
TORSDOF 2
ENDMDL
MODEL 3
REMARK VINA RESULT:     -11.4      1.949      6.118
REMARK  Name = 9998128
REMARK  2 active torsions:
REMARK  status: ('A' for Active; 'I' for Inactive)
REMARK    1  A    between atoms: N_1  and  C_15
REMARK    2  A    between atoms: C_7  and  C_24
REMARK                            x       y       z     vdW  Elec       q    Type
REMARK                         _______ _______ _______ _____ _____    ______ ____
ROOT
ATOM      1  N   UNL     1      35.264 -22.832 -16.907  0.00  0.00    -0.290 N 
ATOM      2  N   UNL     1      33.290 -23.520 -15.827  0.00  0.00    -0.327 NA
ATOM      3  N   UNL     1      33.312 -24.121 -13.493  0.00  0.00    -0.342 NA
ATOM      4  C   UNL     1      35.345 -23.426 -14.557  0.00  0.00    +0.143 C 
ATOM      5  C   UNL     1      34.610 -23.273 -15.730  0.00  0.00    +0.184 C 
ATOM      6  C   UNL     1      34.631 -23.865 -13.431  0.00  0.00    +0.133 C 
ATOM      7  C   UNL     1      32.713 -23.935 -14.687  0.00  0.00    +0.165 C 
ATOM      8  C   UNL     1      36.724 -23.162 -14.481  0.00  0.00    -0.011 C 
ATOM      9  C   UNL     1      35.332 -24.031 -12.239  0.00  0.00    +0.029 C 
ATOM     10  C   UNL     1      37.400 -23.335 -13.278  0.00  0.00    -0.004 C 
ATOM     11  C   UNL     1      36.703 -23.770 -12.155  0.00  0.00    +0.002 C 
ATOM     12  H   UNL     1      36.211 -23.099 -16.960  0.00  0.00    +0.154 HD
ENDROOT
BRANCH   1  15
ATOM     13  N   UNL     1      33.809 -19.839 -21.296  0.00  0.00    -0.236 N 
ATOM     14  N   UNL     1      34.972 -19.344 -21.752  0.00  0.00    -0.180 NA
ATOM     15  C   UNL     1      34.824 -22.089 -18.013  0.00  0.00    +0.050 C 
ATOM     16  C   UNL     1      35.294 -20.648 -19.899  0.00  0.00    +0.037 C 
ATOM     17  C   UNL     1      33.933 -20.630 -20.187  0.00  0.00    +0.067 C 
ATOM     18  C   UNL     1      35.755 -21.387 -18.797  0.00  0.00    +0.018 C 
ATOM     19  C   UNL     1      33.460 -22.048 -18.331  0.00  0.00    +0.016 C 
ATOM     20  C   UNL     1      32.985 -21.318 -19.425  0.00  0.00    +0.017 C 
ATOM     21  C   UNL     1      35.873 -19.839 -20.900  0.00  0.00    +0.119 C 
ATOM     22  H   UNL     1      32.943 -19.650 -21.724  0.00  0.00    +0.174 HD
ENDBRANCH   1  15
BRANCH   7  24
ATOM     23  N   UNL     1      30.580 -23.352 -15.503  0.00  0.00    -0.398 NA
ATOM     24  C   UNL     1      31.302 -24.210 -14.746  0.00  0.00    +0.197 C 
ATOM     25  C   UNL     1      30.752 -25.286 -14.063  0.00  0.00    +0.098 C 
ATOM     26  C   UNL     1      29.250 -23.584 -15.578  0.00  0.00    +0.110 C 
ATOM     27  C   UNL     1      29.381 -25.492 -14.164  0.00  0.00    -0.016 C 
ATOM     28  C   UNL     1      28.608 -24.629 -14.934  0.00  0.00    +0.023 C 
ATOM     29  C   UNL     1      28.452 -22.639 -16.412  0.00  0.00    +0.066 C 
ENDBRANCH   7  24
TORSDOF 2
ENDMDL
MODEL 4
REMARK VINA RESULT:     -11.2      1.939      6.034
REMARK  Name = 9998128
REMARK  2 active torsions:
REMARK  status: ('A' for Active; 'I' for Inactive)
REMARK    1  A    between atoms: N_1  and  C_15
REMARK    2  A    between atoms: C_7  and  C_24
REMARK                            x       y       z     vdW  Elec       q    Type
REMARK                         _______ _______ _______ _____ _____    ______ ____
ROOT
ATOM      1  N   UNL     1      36.002 -23.240 -15.666  0.00  0.00    -0.290 N 
ATOM      2  N   UNL     1      33.873 -23.813 -14.844  0.00  0.00    -0.327 NA
ATOM      3  N   UNL     1      33.553 -24.326 -12.512  0.00  0.00    -0.342 NA
ATOM      4  C   UNL     1      35.739 -23.747 -13.309  0.00  0.00    +0.143 C 
ATOM      5  C   UNL     1      35.177 -23.612 -14.576  0.00  0.00    +0.184 C 
ATOM      6  C   UNL     1      34.861 -24.117 -12.278  0.00  0.00    +0.133 C 
ATOM      7  C   UNL     1      33.130 -24.163 -13.782  0.00  0.00    +0.165 C 
ATOM      8  C   UNL     1      37.105 -23.532 -13.053  0.00  0.00    -0.011 C 
ATOM      9  C   UNL     1      35.386 -24.263 -10.997  0.00  0.00    +0.029 C 
ATOM     10  C   UNL     1      37.603 -23.684 -11.764  0.00  0.00    -0.004 C 
ATOM     11  C   UNL     1      36.743 -24.050 -10.734  0.00  0.00    +0.002 C 
ATOM     12  H   UNL     1      36.935 -23.543 -15.580  0.00  0.00    +0.154 HD
ENDROOT
BRANCH   1  15
ATOM     13  N   UNL     1      34.723 -20.497 -20.268  0.00  0.00    -0.236 N 
ATOM     14  N   UNL     1      33.394 -20.657 -20.383  0.00  0.00    -0.180 NA
ATOM     15  C   UNL     1      35.747 -22.523 -16.845  0.00  0.00    +0.050 C 
ATOM     16  C   UNL     1      34.200 -21.716 -18.521  0.00  0.00    +0.037 C 
ATOM     17  C   UNL     1      35.268 -21.108 -19.172  0.00  0.00    +0.067 C 
ATOM     18  C   UNL     1      34.434 -22.437 -17.339  0.00  0.00    +0.018 C 
ATOM     19  C   UNL     1      36.800 -21.899 -17.526  0.00  0.00    +0.016 C 
ATOM     20  C   UNL     1      36.583 -21.177 -18.705  0.00  0.00    +0.017 C 
ATOM     21  C   UNL     1      33.079 -21.399 -19.318  0.00  0.00    +0.119 C 
ATOM     22  H   UNL     1      35.257 -19.984 -20.916  0.00  0.00    +0.174 HD
ENDBRANCH   1  15
BRANCH   7  24
ATOM     23  N   UNL     1      31.169 -23.577 -14.951  0.00  0.00    -0.398 NA
ATOM     24  C   UNL     1      31.729 -24.388 -14.025  0.00  0.00    +0.197 C 
ATOM     25  C   UNL     1      31.032 -25.375 -13.341  0.00  0.00    +0.098 C 
ATOM     26  C   UNL     1      29.853 -23.764 -15.201  0.00  0.00    +0.110 C 
ATOM     27  C   UNL     1      29.681 -25.536 -13.624  0.00  0.00    -0.016 C 
ATOM     28  C   UNL     1      29.072 -24.720 -14.571  0.00  0.00    +0.023 C 
ATOM     29  C   UNL     1      29.233 -22.869 -16.221  0.00  0.00    +0.066 C 
ENDBRANCH   7  24
TORSDOF 2
ENDMDL
MODEL 5
REMARK VINA RESULT:     -10.8      2.044      7.376
REMARK  Name = 9998128
REMARK  2 active torsions:
REMARK  status: ('A' for Active; 'I' for Inactive)
REMARK    1  A    between atoms: N_1  and  C_15
REMARK    2  A    between atoms: C_7  and  C_24
REMARK                            x       y       z     vdW  Elec       q    Type
REMARK                         _______ _______ _______ _____ _____    ______ ____
ROOT
ATOM      1  N   UNL     1      32.126 -22.413 -16.967  0.00  0.00    -0.290 N 
ATOM      2  N   UNL     1      33.398 -23.130 -15.122  0.00  0.00    -0.327 NA
ATOM      3  N   UNL     1      32.475 -24.670 -13.515  0.00  0.00    -0.342 NA
ATOM      4  C   UNL     1      31.145 -23.964 -15.381  0.00  0.00    +0.143 C 
ATOM      5  C   UNL     1      32.229 -23.191 -15.787  0.00  0.00    +0.184 C 
ATOM      6  C   UNL     1      31.321 -24.709 -14.204  0.00  0.00    +0.133 C 
ATOM      7  C   UNL     1      33.451 -23.882 -14.012  0.00  0.00    +0.165 C 
ATOM      8  C   UNL     1      29.933 -24.012 -16.093  0.00  0.00    -0.011 C 
ATOM      9  C   UNL     1      30.258 -25.494 -13.766  0.00  0.00    +0.029 C 
ATOM     10  C   UNL     1      28.887 -24.805 -15.633  0.00  0.00    -0.004 C 
ATOM     11  C   UNL     1      29.050 -25.547 -14.468  0.00  0.00    +0.002 C 
ATOM     12  H   UNL     1      31.210 -22.103 -17.160  0.00  0.00    +0.154 HD
ENDROOT
BRANCH   1  15
ATOM     13  N   UNL     1      35.641 -20.636 -20.816  0.00  0.00    -0.236 N 
ATOM     14  N   UNL     1      34.886 -19.860 -21.613  0.00  0.00    -0.180 NA
ATOM     15  C   UNL     1      33.074 -21.998 -17.914  0.00  0.00    +0.050 C 
ATOM     16  C   UNL     1      33.652 -20.742 -19.900  0.00  0.00    +0.037 C 
ATOM     17  C   UNL     1      34.960 -21.195 -19.770  0.00  0.00    +0.067 C 
ATOM     18  C   UNL     1      32.687 -21.145 -18.961  0.00  0.00    +0.018 C 
ATOM     19  C   UNL     1      34.401 -22.436 -17.814  0.00  0.00    +0.016 C 
ATOM     20  C   UNL     1      35.373 -22.043 -18.740  0.00  0.00    +0.017 C 
ATOM     21  C   UNL     1      33.677 -19.927 -21.052  0.00  0.00    +0.119 C 
ATOM     22  H   UNL     1      36.601 -20.788 -20.973  0.00  0.00    +0.174 HD
ENDBRANCH   1  15
BRANCH   7  24
ATOM     23  N   UNL     1      34.592 -24.252 -11.982  0.00  0.00    -0.398 NA
ATOM     24  C   UNL     1      34.684 -23.846 -13.270  0.00  0.00    +0.197 C 
ATOM     25  C   UNL     1      35.865 -23.420 -13.861  0.00  0.00    +0.098 C 
ATOM     26  C   UNL     1      35.734 -24.230 -11.258  0.00  0.00    +0.110 C 
ATOM     27  C   UNL     1      37.018 -23.409 -13.085  0.00  0.00    -0.016 C 
ATOM     28  C   UNL     1      36.960 -23.821 -11.757  0.00  0.00    +0.023 C 
ATOM     29  C   UNL     1      35.634 -24.677  -9.839  0.00  0.00    +0.066 C 
ENDBRANCH   7  24
TORSDOF 2
ENDMDL
MODEL 6
REMARK VINA RESULT:     -10.6      1.556      6.854
REMARK  Name = 9998128
REMARK  2 active torsions:
REMARK  status: ('A' for Active; 'I' for Inactive)
REMARK    1  A    between atoms: N_1  and  C_15
REMARK    2  A    between atoms: C_7  and  C_24
REMARK                            x       y       z     vdW  Elec       q    Type
REMARK                         _______ _______ _______ _____ _____    ______ ____
ROOT
ATOM      1  N   UNL     1      32.335 -22.940 -17.039  0.00  0.00    -0.290 N 
ATOM      2  N   UNL     1      34.031 -23.493 -15.505  0.00  0.00    -0.327 NA
ATOM      3  N   UNL     1      36.331 -22.936 -15.961  0.00  0.00    -0.342 NA
ATOM      4  C   UNL     1      34.632 -22.355 -17.551  0.00  0.00    +0.143 C 
ATOM      5  C   UNL     1      33.707 -22.931 -16.684  0.00  0.00    +0.184 C 
ATOM      6  C   UNL     1      35.973 -22.382 -17.133  0.00  0.00    +0.133 C 
ATOM      7  C   UNL     1      35.341 -23.461 -15.211  0.00  0.00    +0.165 C 
ATOM      8  C   UNL     1      34.269 -21.774 -18.779  0.00  0.00    -0.011 C 
ATOM      9  C   UNL     1      36.928 -21.816 -17.974  0.00  0.00    +0.029 C 
ATOM     10  C   UNL     1      35.243 -21.215 -19.599  0.00  0.00    -0.004 C 
ATOM     11  C   UNL     1      36.575 -21.236 -19.196  0.00  0.00    +0.002 C 
ATOM     12  H   UNL     1      32.176 -22.973 -18.010  0.00  0.00    +0.154 HD
ENDROOT
BRANCH   1  15
ATOM     13  N   UNL     1      27.572 -22.782 -14.278  0.00  0.00    -0.236 N 
ATOM     14  N   UNL     1      26.647 -22.595 -15.235  0.00  0.00    -0.180 NA
ATOM     15  C   UNL     1      31.159 -22.910 -16.273  0.00  0.00    +0.050 C 
ATOM     16  C   UNL     1      28.753 -22.699 -16.124  0.00  0.00    +0.037 C 
ATOM     17  C   UNL     1      28.855 -22.853 -14.746  0.00  0.00    +0.067 C 
ATOM     18  C   UNL     1      29.919 -22.727 -16.908  0.00  0.00    +0.018 C 
ATOM     19  C   UNL     1      31.226 -23.061 -14.882  0.00  0.00    +0.016 C 
ATOM     20  C   UNL     1      30.075 -23.037 -14.088  0.00  0.00    +0.017 C 
ATOM     21  C   UNL     1      27.370 -22.545 -16.357  0.00  0.00    +0.119 C 
ATOM     22  H   UNL     1      27.344 -22.861 -13.324  0.00  0.00    +0.174 HD
ENDBRANCH   1  15
BRANCH   7  24
ATOM     23  N   UNL     1      36.954 -24.632 -13.952  0.00  0.00    -0.398 NA
ATOM     24  C   UNL     1      35.732 -24.051 -13.957  0.00  0.00    +0.197 C 
ATOM     25  C   UNL     1      34.893 -24.012 -12.853  0.00  0.00    +0.098 C 
ATOM     26  C   UNL     1      37.350 -25.196 -12.789  0.00  0.00    +0.110 C 
ATOM     27  C   UNL     1      35.334 -24.603 -11.675  0.00  0.00    -0.016 C 
ATOM     28  C   UNL     1      36.586 -25.208 -11.633  0.00  0.00    +0.023 C 
ATOM     29  C   UNL     1      38.698 -25.837 -12.781  0.00  0.00    +0.066 C 
ENDBRANCH   7  24
TORSDOF 2
ENDMDL
MODEL 7
REMARK VINA RESULT:     -10.2      1.801      6.118
REMARK  Name = 9998128
REMARK  2 active torsions:
REMARK  status: ('A' for Active; 'I' for Inactive)
REMARK    1  A    between atoms: N_1  and  C_15
REMARK    2  A    between atoms: C_7  and  C_24
REMARK                            x       y       z     vdW  Elec       q    Type
REMARK                         _______ _______ _______ _____ _____    ______ ____
ROOT
ATOM      1  N   UNL     1      33.139 -23.160 -17.100  0.00  0.00    -0.290 N 
ATOM      2  N   UNL     1      35.184 -23.355 -15.953  0.00  0.00    -0.327 NA
ATOM      3  N   UNL     1      37.162 -22.249 -16.769  0.00  0.00    -0.342 NA
ATOM      4  C   UNL     1      35.098 -22.025 -17.969  0.00  0.00    +0.143 C 
ATOM      5  C   UNL     1      34.516 -22.840 -17.001  0.00  0.00    +0.184 C 
ATOM      6  C   UNL     1      36.465 -21.749 -17.805  0.00  0.00    +0.133 C 
ATOM      7  C   UNL     1      36.484 -23.025 -15.899  0.00  0.00    +0.165 C 
ATOM      8  C   UNL     1      34.379 -21.498 -19.056  0.00  0.00    -0.011 C 
ATOM      9  C   UNL     1      37.084 -20.938 -18.754  0.00  0.00    +0.029 C 
ATOM     10  C   UNL     1      35.021 -20.690 -19.989  0.00  0.00    -0.004 C 
ATOM     11  C   UNL     1      36.376 -20.410 -19.837  0.00  0.00    +0.002 C 
ATOM     12  H   UNL     1      32.803 -23.191 -18.026  0.00  0.00    +0.154 HD
ENDROOT
BRANCH   1  15
ATOM     13  N   UNL     1      29.503 -24.399 -13.153  0.00  0.00    -0.236 N 
ATOM     14  N   UNL     1      30.234 -25.043 -12.228  0.00  0.00    -0.180 NA
ATOM     15  C   UNL     1      32.160 -23.442 -16.134  0.00  0.00    +0.050 C 
ATOM     16  C   UNL     1      31.522 -24.406 -14.009  0.00  0.00    +0.037 C 
ATOM     17  C   UNL     1      30.216 -23.990 -14.246  0.00  0.00    +0.067 C 
ATOM     18  C   UNL     1      32.516 -24.131 -14.963  0.00  0.00    +0.018 C 
ATOM     19  C   UNL     1      30.835 -23.039 -16.342  0.00  0.00    +0.016 C 
ATOM     20  C   UNL     1      29.834 -23.304 -15.402  0.00  0.00    +0.017 C 
ATOM     21  C   UNL     1      31.462 -25.045 -12.752  0.00  0.00    +0.119 C 
ATOM     22  H   UNL     1      28.537 -24.235 -13.052  0.00  0.00    +0.174 HD
ENDBRANCH   1  15
BRANCH   7  24
ATOM     23  N   UNL     1      36.834 -23.138 -13.571  0.00  0.00    -0.398 NA
ATOM     24  C   UNL     1      37.237 -23.555 -14.793  0.00  0.00    +0.197 C 
ATOM     25  C   UNL     1      38.295 -24.430 -14.999  0.00  0.00    +0.098 C 
ATOM     26  C   UNL     1      37.522 -23.619 -12.511  0.00  0.00    +0.110 C 
ATOM     27  C   UNL     1      38.978 -24.902 -13.885  0.00  0.00    -0.016 C 
ATOM     28  C   UNL     1      38.590 -24.494 -12.613  0.00  0.00    +0.023 C 
ATOM     29  C   UNL     1      37.079 -23.159 -11.162  0.00  0.00    +0.066 C 
ENDBRANCH   7  24
TORSDOF 2
ENDMDL
MODEL 8
REMARK VINA RESULT:      -9.5      2.153      6.745
REMARK  Name = 9998128
REMARK  2 active torsions:
REMARK  status: ('A' for Active; 'I' for Inactive)
REMARK    1  A    between atoms: N_1  and  C_15
REMARK    2  A    between atoms: C_7  and  C_24
REMARK                            x       y       z     vdW  Elec       q    Type
REMARK                         _______ _______ _______ _____ _____    ______ ____
ROOT
ATOM      1  N   UNL     1      34.003 -23.371 -14.581  0.00  0.00    -0.290 N 
ATOM      2  N   UNL     1      34.761 -22.361 -16.566  0.00  0.00    -0.327 NA
ATOM      3  N   UNL     1      37.099 -22.393 -17.148  0.00  0.00    -0.342 NA
ATOM      4  C   UNL     1      36.368 -23.434 -15.115  0.00  0.00    +0.143 C 
ATOM      5  C   UNL     1      35.074 -23.043 -15.449  0.00  0.00    +0.184 C 
ATOM      6  C   UNL     1      37.377 -23.075 -16.022  0.00  0.00    +0.133 C 
ATOM      7  C   UNL     1      35.806 -22.073 -17.359  0.00  0.00    +0.165 C 
ATOM      8  C   UNL     1      36.671 -24.146 -13.941  0.00  0.00    -0.011 C 
ATOM      9  C   UNL     1      38.685 -23.448 -15.722  0.00  0.00    +0.029 C 
ATOM     10  C   UNL     1      37.985 -24.506 -13.665  0.00  0.00    -0.004 C 
ATOM     11  C   UNL     1      38.994 -24.156 -14.557  0.00  0.00    +0.002 C 
ATOM     12  H   UNL     1      34.263 -23.426 -13.632  0.00  0.00    +0.154 HD
ENDROOT
BRANCH   1  15
ATOM     13  N   UNL     1      28.673 -24.581 -15.264  0.00  0.00    -0.236 N 
ATOM     14  N   UNL     1      28.416 -25.476 -14.295  0.00  0.00    -0.180 NA
ATOM     15  C   UNL     1      32.643 -23.632 -14.811  0.00  0.00    +0.050 C 
ATOM     16  C   UNL     1      30.600 -24.795 -14.238  0.00  0.00    +0.037 C 
ATOM     17  C   UNL     1      29.966 -24.133 -15.284  0.00  0.00    +0.067 C 
ATOM     18  C   UNL     1      31.960 -24.546 -13.991  0.00  0.00    +0.018 C 
ATOM     19  C   UNL     1      31.974 -22.983 -15.856  0.00  0.00    +0.016 C 
ATOM     20  C   UNL     1      30.619 -23.220 -16.115  0.00  0.00    +0.017 C 
ATOM     21  C   UNL     1      29.591 -25.604 -13.674  0.00  0.00    +0.119 C 
ATOM     22  H   UNL     1      27.990 -24.275 -15.903  0.00  0.00    +0.174 HD
ENDBRANCH   1  15
BRANCH   7  24
ATOM     23  N   UNL     1      36.532 -20.587 -19.038  0.00  0.00    -0.398 NA
ATOM     24  C   UNL     1      35.515 -21.344 -18.565  0.00  0.00    +0.197 C 
ATOM     25  C   UNL     1      34.272 -21.431 -19.174  0.00  0.00    +0.098 C 
ATOM     26  C   UNL     1      36.290 -19.889 -20.170  0.00  0.00    +0.110 C 
ATOM     27  C   UNL     1      34.060 -20.699 -20.337  0.00  0.00    -0.016 C 
ATOM     28  C   UNL     1      35.084 -19.911 -20.852  0.00  0.00    +0.023 C 
ATOM     29  C   UNL     1      37.410 -19.054 -20.693  0.00  0.00    +0.066 C 
ENDBRANCH   7  24
TORSDOF 2
ENDMDL
