MODEL 1
REMARK VINA RESULT:     -11.2      0.000      0.000
REMARK  Name = 11224409
REMARK  8 active torsions:
REMARK  status: ('A' for Active; 'I' for Inactive)
REMARK    1  A    between atoms: C_2  and  N_10
REMARK    2  A    between atoms: C_5  and  C_20
REMARK    3  A    between atoms: C_11  and  C_14
REMARK    4  A    between atoms: C_14  and  N_16
REMARK    5  A    between atoms: C_21  and  C_26
REMARK    6  A    between atoms: C_26  and  N_27
REMARK    7  A    between atoms: N_27  and  C_30
REMARK    8  A    between atoms: C_30  and  C_34
REMARK                            x       y       z     vdW  Elec       q    Type
REMARK                         _______ _______ _______ _____ _____    ______ ____
ROOT
ATOM      1  F   UNL     1      31.558 -12.516 -21.118  0.00  0.00    -0.204 F 
ATOM      2  C   UNL     1      32.269  -9.070 -22.029  0.00  0.00    +0.059 C 
ATOM      3  C   UNL     1      31.708 -10.175 -21.388  0.00  0.00    +0.045 C 
ATOM      4  C   UNL     1      33.227  -9.255 -23.026  0.00  0.00    +0.015 C 
ATOM      5  C   UNL     1      33.064 -11.648 -22.740  0.00  0.00    +0.028 C 
ATOM      6  C   UNL     1      32.106 -11.464 -21.744  0.00  0.00    +0.141 C 
ATOM      7  C   UNL     1      33.625 -10.544 -23.382  0.00  0.00    +0.004 C 
ENDROOT
BRANCH   2  10
ATOM      8  O   UNL     1      31.508  -5.852 -20.504  0.00  0.00    -0.434 OA
ATOM      9  O   UNL     1      32.586  -7.531 -19.425  0.00  0.00    -0.226 OA
ATOM     10  N   UNL     1      31.863  -7.755 -21.666  0.00  0.00    -0.221 N 
ATOM     11  C   UNL     1      31.147  -5.562 -21.861  0.00  0.00    +0.210 C 
ATOM     12  C   UNL     1      31.068  -6.919 -22.526  0.00  0.00    +0.147 C 
ATOM     13  C   UNL     1      32.056  -7.114 -20.445  0.00  0.00    +0.409 C 
BRANCH  11  14
ATOM     14  C   UNL     1      32.209  -4.656 -22.469  0.00  0.00    +0.135 C 
BRANCH  14  16
ATOM     15  O   UNL     1      34.297  -5.142 -24.427  0.00  0.00    -0.275 OA
ATOM     16  N   UNL     1      32.092  -4.607 -23.896  0.00  0.00    -0.301 N 
ATOM     17  C   UNL     1      33.151  -4.855 -24.764  0.00  0.00    +0.223 C 
ATOM     18  C   UNL     1      32.748  -4.761 -26.211  0.00  0.00    +0.095 C 
ATOM     19  H   UNL     1      31.215  -4.385 -24.284  0.00  0.00    +0.150 HD
ENDBRANCH  14  16
ENDBRANCH  11  14
ENDBRANCH   2  10
BRANCH   5  20
ATOM     20  C   UNL     1      33.479 -12.983 -23.113  0.00  0.00    +0.002 C 
ATOM     21  C   UNL     1      34.278 -15.558 -23.830  0.00  0.00    -0.044 C 
ATOM     22  C   UNL     1      34.164 -13.781 -22.197  0.00  0.00    -0.000 C 
ATOM     23  C   UNL     1      33.193 -13.473 -24.388  0.00  0.00    -0.000 C 
ATOM     24  C   UNL     1      34.562 -15.069 -22.555  0.00  0.00    -0.006 C 
ATOM     25  C   UNL     1      33.593 -14.760 -24.747  0.00  0.00    -0.006 C 
BRANCH  21  26
ATOM     26  C   UNL     1      34.704 -16.935 -24.212  0.00  0.00    -0.054 C 
BRANCH  26  27
ATOM     27  N   UNL     1      35.555 -17.558 -23.197  0.00  0.00    +0.390 N 
ATOM     28  H   UNL     1      35.703 -16.898 -22.433  0.00  0.00    -0.083 HD
ATOM     29  H   UNL     1      36.446 -17.809 -23.625  0.00  0.00    -0.083 HD
BRANCH  27  30
ATOM     30  C   UNL     1      34.932 -18.763 -22.673  0.00  0.00    -0.031 C 
BRANCH  30  34
ATOM     31  N   UNL     1      36.791 -18.746 -21.039  0.00  0.00    -0.170 NA
ATOM     32  N   UNL     1      37.008 -19.438 -19.910  0.00  0.00    -0.157 N 
ATOM     33  N   UNL     1      36.087 -20.335 -19.520  0.00  0.00    -0.162 NA
ATOM     34  C   UNL     1      35.610 -19.244 -21.418  0.00  0.00    +0.077 C 
ATOM     35  C   UNL     1      35.183 -20.209 -20.495  0.00  0.00    +0.133 C 
ATOM     36  H   UNL     1      37.825 -19.292 -19.380  0.00  0.00    +0.197 HD
ENDBRANCH  30  34
ENDBRANCH  27  30
ENDBRANCH  26  27
ENDBRANCH  21  26
ENDBRANCH   5  20
TORSDOF 8
ENDMDL
MODEL 2
REMARK VINA RESULT:     -11.1      8.323     14.969
REMARK  Name = 11224409
REMARK  8 active torsions:
REMARK  status: ('A' for Active; 'I' for Inactive)
REMARK    1  A    between atoms: C_2  and  N_10
REMARK    2  A    between atoms: C_5  and  C_20
REMARK    3  A    between atoms: C_11  and  C_14
REMARK    4  A    between atoms: C_14  and  N_16
REMARK    5  A    between atoms: C_21  and  C_26
REMARK    6  A    between atoms: C_26  and  N_27
REMARK    7  A    between atoms: N_27  and  C_30
REMARK    8  A    between atoms: C_30  and  C_34
REMARK                            x       y       z     vdW  Elec       q    Type
REMARK                         _______ _______ _______ _____ _____    ______ ____
ROOT
ATOM      1  F   UNL     1      33.447 -22.398 -18.143  0.00  0.00    -0.204 F 
ATOM      2  C   UNL     1      36.149 -23.173 -15.839  0.00  0.00    +0.059 C 
ATOM      3  C   UNL     1      34.886 -23.156 -16.432  0.00  0.00    +0.045 C 
ATOM      4  C   UNL     1      37.193 -22.438 -16.402  0.00  0.00    +0.015 C 
ATOM      5  C   UNL     1      35.710 -21.669 -18.148  0.00  0.00    +0.028 C 
ATOM      6  C   UNL     1      34.667 -22.404 -17.586  0.00  0.00    +0.141 C 
ATOM      7  C   UNL     1      36.974 -21.686 -17.557  0.00  0.00    +0.004 C 
ENDROOT
BRANCH   2  10
ATOM      8  O   UNL     1      36.498 -25.654 -13.197  0.00  0.00    -0.434 OA
ATOM      9  O   UNL     1      35.731 -26.133 -15.278  0.00  0.00    -0.226 OA
ATOM     10  N   UNL     1      36.372 -23.941 -14.661  0.00  0.00    -0.221 N 
ATOM     11  C   UNL     1      37.159 -24.547 -12.570  0.00  0.00    +0.210 C 
ATOM     12  C   UNL     1      36.763 -23.350 -13.409  0.00  0.00    +0.147 C 
ATOM     13  C   UNL     1      36.163 -25.307 -14.487  0.00  0.00    +0.409 C 
BRANCH  11  14
ATOM     14  C   UNL     1      38.658 -24.808 -12.567  0.00  0.00    +0.135 C 
BRANCH  14  16
ATOM     15  O   UNL     1      40.969 -24.942 -14.321  0.00  0.00    -0.275 OA
ATOM     16  N   UNL     1      39.003 -25.862 -13.474  0.00  0.00    -0.301 N 
ATOM     17  C   UNL     1      40.136 -25.843 -14.281  0.00  0.00    +0.223 C 
ATOM     18  C   UNL     1      40.270 -27.087 -15.120  0.00  0.00    +0.095 C 
ATOM     19  H   UNL     1      38.404 -26.643 -13.529  0.00  0.00    +0.150 HD
ENDBRANCH  14  16
ENDBRANCH  11  14
ENDBRANCH   2  10
BRANCH   5  20
ATOM     20  C   UNL     1      35.487 -20.887 -19.345  0.00  0.00    +0.002 C 
ATOM     21  C   UNL     1      35.058 -19.382 -21.654  0.00  0.00    -0.044 C 
ATOM     22  C   UNL     1      36.555 -20.233 -19.959  0.00  0.00    -0.000 C 
ATOM     23  C   UNL     1      34.205 -20.789 -19.886  0.00  0.00    -0.000 C 
ATOM     24  C   UNL     1      36.340 -19.481 -21.114  0.00  0.00    -0.006 C 
ATOM     25  C   UNL     1      33.990 -20.036 -21.040  0.00  0.00    -0.006 C 
BRANCH  21  26
ATOM     26  C   UNL     1      34.830 -18.578 -22.889  0.00  0.00    -0.054 C 
BRANCH  26  27
ATOM     27  N   UNL     1      35.670 -17.380 -22.939  0.00  0.00    +0.390 N 
ATOM     28  H   UNL     1      35.769 -17.080 -23.909  0.00  0.00    -0.083 HD
ATOM     29  H   UNL     1      36.583 -17.604 -22.544  0.00  0.00    -0.083 HD
BRANCH  27  30
ATOM     30  C   UNL     1      35.076 -16.303 -22.164  0.00  0.00    -0.031 C 
BRANCH  30  34
ATOM     31  N   UNL     1      33.867 -15.641 -24.219  0.00  0.00    -0.170 NA
ATOM     32  N   UNL     1      33.386 -14.462 -24.645  0.00  0.00    -0.157 N 
ATOM     33  N   UNL     1      33.552 -13.382 -23.865  0.00  0.00    -0.162 NA
ATOM     34  C   UNL     1      34.397 -15.288 -23.044  0.00  0.00    +0.077 C 
ATOM     35  C   UNL     1      34.206 -13.916 -22.829  0.00  0.00    +0.133 C 
ATOM     36  H   UNL     1      32.923 -14.391 -25.511  0.00  0.00    +0.197 HD
ENDBRANCH  30  34
ENDBRANCH  27  30
ENDBRANCH  26  27
ENDBRANCH  21  26
ENDBRANCH   5  20
TORSDOF 8
ENDMDL
MODEL 3
REMARK VINA RESULT:     -11.1      8.493     15.057
REMARK  Name = 11224409
REMARK  8 active torsions:
REMARK  status: ('A' for Active; 'I' for Inactive)
REMARK    1  A    between atoms: C_2  and  N_10
REMARK    2  A    between atoms: C_5  and  C_20
REMARK    3  A    between atoms: C_11  and  C_14
REMARK    4  A    between atoms: C_14  and  N_16
REMARK    5  A    between atoms: C_21  and  C_26
REMARK    6  A    between atoms: C_26  and  N_27
REMARK    7  A    between atoms: N_27  and  C_30
REMARK    8  A    between atoms: C_30  and  C_34
REMARK                            x       y       z     vdW  Elec       q    Type
REMARK                         _______ _______ _______ _____ _____    ______ ____
ROOT
ATOM      1  F   UNL     1      37.499 -21.188 -17.813  0.00  0.00    -0.204 F 
ATOM      2  C   UNL     1      35.745 -23.447 -15.570  0.00  0.00    +0.059 C 
ATOM      3  C   UNL     1      36.758 -22.665 -16.127  0.00  0.00    +0.045 C 
ATOM      4  C   UNL     1      34.490 -23.497 -16.177  0.00  0.00    +0.015 C 
ATOM      5  C   UNL     1      35.260 -21.985 -17.896  0.00  0.00    +0.028 C 
ATOM      6  C   UNL     1      36.515 -21.935 -17.290  0.00  0.00    +0.141 C 
ATOM      7  C   UNL     1      34.247 -22.766 -17.339  0.00  0.00    +0.004 C 
ENDROOT
BRANCH   2  10
ATOM      8  O   UNL     1      36.320 -25.894 -12.935  0.00  0.00    -0.434 OA
ATOM      9  O   UNL     1      35.924 -26.447 -15.099  0.00  0.00    -0.226 OA
ATOM     10  N   UNL     1      35.993 -24.193 -14.383  0.00  0.00    -0.221 N 
ATOM     11  C   UNL     1      36.645 -24.695 -12.219  0.00  0.00    +0.210 C 
ATOM     12  C   UNL     1      36.097 -23.581 -13.085  0.00  0.00    +0.147 C 
ATOM     13  C   UNL     1      36.070 -25.577 -14.252  0.00  0.00    +0.409 C 
BRANCH  11  14
ATOM     14  C   UNL     1      38.155 -24.625 -12.037  0.00  0.00    +0.135 C 
BRANCH  14  16
ATOM     15  O   UNL     1      39.546 -24.286 -14.563  0.00  0.00    -0.275 OA
ATOM     16  N   UNL     1      38.817 -25.635 -12.809  0.00  0.00    -0.301 N 
ATOM     17  C   UNL     1      39.462 -25.382 -14.015  0.00  0.00    +0.223 C 
ATOM     18  C   UNL     1      40.095 -26.615 -14.604  0.00  0.00    +0.095 C 
ATOM     19  H   UNL     1      38.815 -26.559 -12.467  0.00  0.00    +0.150 HD
ENDBRANCH  14  16
ENDBRANCH  11  14
ENDBRANCH   2  10
BRANCH   5  20
ATOM     20  C   UNL     1      35.004 -21.229 -19.103  0.00  0.00    +0.002 C 
ATOM     21  C   UNL     1      34.510 -19.770 -21.428  0.00  0.00    -0.044 C 
ATOM     22  C   UNL     1      33.696 -21.058 -19.554  0.00  0.00    -0.000 C 
ATOM     23  C   UNL     1      36.066 -20.670 -19.815  0.00  0.00    -0.000 C 
ATOM     24  C   UNL     1      33.448 -20.328 -20.717  0.00  0.00    -0.006 C 
ATOM     25  C   UNL     1      35.819 -19.941 -20.977  0.00  0.00    -0.006 C 
BRANCH  21  26
ATOM     26  C   UNL     1      34.245 -18.989 -22.671  0.00  0.00    -0.054 C 
BRANCH  26  27
ATOM     27  N   UNL     1      34.986 -17.727 -22.706  0.00  0.00    +0.390 N 
ATOM     28  H   UNL     1      35.951 -17.896 -22.420  0.00  0.00    -0.083 HD
ATOM     29  H   UNL     1      34.540 -17.067 -22.069  0.00  0.00    -0.083 HD
BRANCH  27  30
ATOM     30  C   UNL     1      34.978 -17.163 -24.046  0.00  0.00    -0.031 C 
BRANCH  30  34
ATOM     31  N   UNL     1      33.679 -15.402 -25.202  0.00  0.00    -0.170 NA
ATOM     32  N   UNL     1      33.211 -14.211 -24.798  0.00  0.00    -0.157 N 
ATOM     33  N   UNL     1      33.450 -13.823 -23.535  0.00  0.00    -0.162 NA
ATOM     34  C   UNL     1      34.282 -15.828 -24.088  0.00  0.00    +0.077 C 
ATOM     35  C   UNL     1      34.143 -14.869 -23.076  0.00  0.00    +0.133 C 
ATOM     36  H   UNL     1      32.703 -13.634 -25.414  0.00  0.00    +0.197 HD
ENDBRANCH  30  34
ENDBRANCH  27  30
ENDBRANCH  26  27
ENDBRANCH  21  26
ENDBRANCH   5  20
TORSDOF 8
ENDMDL
MODEL 4
REMARK VINA RESULT:     -10.9      6.425     10.825
REMARK  Name = 11224409
REMARK  8 active torsions:
REMARK  status: ('A' for Active; 'I' for Inactive)
REMARK    1  A    between atoms: C_2  and  N_10
REMARK    2  A    between atoms: C_5  and  C_20
REMARK    3  A    between atoms: C_11  and  C_14
REMARK    4  A    between atoms: C_14  and  N_16
REMARK    5  A    between atoms: C_21  and  C_26
REMARK    6  A    between atoms: C_26  and  N_27
REMARK    7  A    between atoms: N_27  and  C_30
REMARK    8  A    between atoms: C_30  and  C_34
REMARK                            x       y       z     vdW  Elec       q    Type
REMARK                         _______ _______ _______ _____ _____    ______ ____
ROOT
ATOM      1  F   UNL     1      37.030 -20.678 -19.224  0.00  0.00    -0.204 F 
ATOM      2  C   UNL     1      34.738 -19.302 -21.687  0.00  0.00    +0.059 C 
ATOM      3  C   UNL     1      35.918 -19.585 -20.996  0.00  0.00    +0.045 C 
ATOM      4  C   UNL     1      33.530 -19.851 -21.256  0.00  0.00    +0.015 C 
ATOM      5  C   UNL     1      34.680 -20.964 -19.446  0.00  0.00    +0.028 C 
ATOM      6  C   UNL     1      35.888 -20.415 -19.876  0.00  0.00    +0.141 C 
ATOM      7  C   UNL     1      33.501 -20.682 -20.136  0.00  0.00    +0.004 C 
ENDROOT
BRANCH   2  10
ATOM      8  O   UNL     1      34.614 -17.683 -24.945  0.00  0.00    -0.434 OA
ATOM      9  O   UNL     1      34.101 -19.867 -24.607  0.00  0.00    -0.226 OA
ATOM     10  N   UNL     1      34.768 -18.454 -22.829  0.00  0.00    -0.221 N 
ATOM     11  C   UNL     1      34.823 -16.531 -24.117  0.00  0.00    +0.210 C 
ATOM     12  C   UNL     1      35.257 -17.102 -22.784  0.00  0.00    +0.147 C 
ATOM     13  C   UNL     1      34.449 -18.790 -24.143  0.00  0.00    +0.409 C 
BRANCH  11  14
ATOM     14  C   UNL     1      33.524 -15.741 -24.037  0.00  0.00    +0.135 C 
BRANCH  14  16
ATOM     15  O   UNL     1      33.018 -13.460 -25.761  0.00  0.00    -0.275 OA
ATOM     16  N   UNL     1      33.774 -14.360 -23.749  0.00  0.00    -0.301 N 
ATOM     17  C   UNL     1      33.500 -13.326 -24.639  0.00  0.00    +0.223 C 
ATOM     18  C   UNL     1      33.836 -11.972 -24.075  0.00  0.00    +0.095 C 
ATOM     19  H   UNL     1      34.163 -14.130 -22.874  0.00  0.00    +0.150 HD
ENDBRANCH  14  16
ENDBRANCH  11  14
ENDBRANCH   2  10
BRANCH   5  20
ATOM     20  C   UNL     1      34.645 -21.826 -18.285  0.00  0.00    +0.002 C 
ATOM     21  C   UNL     1      34.578 -23.490 -16.047  0.00  0.00    -0.044 C 
ATOM     22  C   UNL     1      33.478 -22.519 -17.965  0.00  0.00    -0.000 C 
ATOM     23  C   UNL     1      35.780 -21.966 -17.484  0.00  0.00    -0.000 C 
ATOM     24  C   UNL     1      33.444 -23.352 -16.847  0.00  0.00    -0.006 C 
ATOM     25  C   UNL     1      35.746 -22.797 -16.365  0.00  0.00    -0.006 C 
BRANCH  21  26
ATOM     26  C   UNL     1      34.542 -24.381 -14.851  0.00  0.00    -0.054 C 
BRANCH  26  27
ATOM     27  N   UNL     1      34.537 -23.629 -13.595  0.00  0.00    +0.390 N 
ATOM     28  H   UNL     1      33.696 -23.054 -13.551  0.00  0.00    -0.083 HD
ATOM     29  H   UNL     1      35.369 -23.040 -13.562  0.00  0.00    -0.083 HD
BRANCH  27  30
ATOM     30  C   UNL     1      34.559 -24.532 -12.455  0.00  0.00    -0.031 C 
BRANCH  30  34
ATOM     31  N   UNL     1      35.523 -24.569 -10.176  0.00  0.00    -0.170 NA
ATOM     32  N   UNL     1      36.597 -23.969  -9.639  0.00  0.00    -0.157 N 
ATOM     33  N   UNL     1      37.349 -23.177 -10.422  0.00  0.00    -0.162 NA
ATOM     34  C   UNL     1      35.587 -24.121 -11.434  0.00  0.00    +0.077 C 
ATOM     35  C   UNL     1      36.695 -23.275 -11.583  0.00  0.00    +0.133 C 
ATOM     36  H   UNL     1      36.829 -24.106  -8.692  0.00  0.00    +0.197 HD
ENDBRANCH  30  34
ENDBRANCH  27  30
ENDBRANCH  26  27
ENDBRANCH  21  26
ENDBRANCH   5  20
TORSDOF 8
ENDMDL
MODEL 5
REMARK VINA RESULT:     -10.7      1.531      1.873
REMARK  Name = 11224409
REMARK  8 active torsions:
REMARK  status: ('A' for Active; 'I' for Inactive)
REMARK    1  A    between atoms: C_2  and  N_10
REMARK    2  A    between atoms: C_5  and  C_20
REMARK    3  A    between atoms: C_11  and  C_14
REMARK    4  A    between atoms: C_14  and  N_16
REMARK    5  A    between atoms: C_21  and  C_26
REMARK    6  A    between atoms: C_26  and  N_27
REMARK    7  A    between atoms: N_27  and  C_30
REMARK    8  A    between atoms: C_30  and  C_34
REMARK                            x       y       z     vdW  Elec       q    Type
REMARK                         _______ _______ _______ _____ _____    ______ ____
ROOT
ATOM      1  F   UNL     1      31.895 -13.313 -21.051  0.00  0.00    -0.204 F 
ATOM      2  C   UNL     1      32.415 -10.040 -22.544  0.00  0.00    +0.059 C 
ATOM      3  C   UNL     1      31.924 -11.047 -21.711  0.00  0.00    +0.045 C 
ATOM      4  C   UNL     1      33.360 -10.346 -23.523  0.00  0.00    +0.015 C 
ATOM      5  C   UNL     1      33.321 -12.663 -22.839  0.00  0.00    +0.028 C 
ATOM      6  C   UNL     1      32.377 -12.358 -21.859  0.00  0.00    +0.141 C 
ATOM      7  C   UNL     1      33.814 -11.657 -23.671  0.00  0.00    +0.004 C 
ENDROOT
BRANCH   2  10
ATOM      8  O   UNL     1      31.485  -6.668 -21.535  0.00  0.00    -0.434 OA
ATOM      9  O   UNL     1      32.561  -8.134 -20.178  0.00  0.00    -0.226 OA
ATOM     10  N   UNL     1      31.952  -8.703 -22.393  0.00  0.00    -0.221 N 
ATOM     11  C   UNL     1      31.180  -6.588 -22.934  0.00  0.00    +0.210 C 
ATOM     12  C   UNL     1      31.175  -8.029 -23.398  0.00  0.00    +0.147 C 
ATOM     13  C   UNL     1      32.068  -7.887 -21.270  0.00  0.00    +0.409 C 
BRANCH  11  14
ATOM     14  C   UNL     1      32.242  -5.741 -23.620  0.00  0.00    +0.135 C 
BRANCH  14  16
ATOM     15  O   UNL     1      31.767  -3.116 -22.473  0.00  0.00    -0.275 OA
ATOM     16  N   UNL     1      31.658  -4.601 -24.265  0.00  0.00    -0.301 N 
ATOM     17  C   UNL     1      31.467  -3.376 -23.636  0.00  0.00    +0.223 C 
ATOM     18  C   UNL     1      30.858  -2.345 -24.549  0.00  0.00    +0.095 C 
ATOM     19  H   UNL     1      31.376  -4.692 -25.204  0.00  0.00    +0.150 HD
ENDBRANCH  14  16
ENDBRANCH  11  14
ENDBRANCH   2  10
BRANCH   5  20
ATOM     20  C   UNL     1      33.794 -14.021 -22.996  0.00  0.00    +0.002 C 
ATOM     21  C   UNL     1      34.704 -16.641 -23.298  0.00  0.00    -0.044 C 
ATOM     22  C   UNL     1      34.491 -14.641 -21.959  0.00  0.00    -0.000 C 
ATOM     23  C   UNL     1      33.552 -14.712 -24.184  0.00  0.00    -0.000 C 
ATOM     24  C   UNL     1      34.945 -15.952 -22.110  0.00  0.00    -0.006 C 
ATOM     25  C   UNL     1      34.007 -16.021 -24.336  0.00  0.00    -0.006 C 
BRANCH  21  26
ATOM     26  C   UNL     1      35.189 -18.042 -23.458  0.00  0.00    -0.054 C 
BRANCH  26  27
ATOM     27  N   UNL     1      34.455 -18.987 -22.615  0.00  0.00    +0.390 N 
ATOM     28  H   UNL     1      34.245 -19.826 -23.156  0.00  0.00    -0.083 HD
ATOM     29  H   UNL     1      33.593 -18.544 -22.300  0.00  0.00    -0.083 HD
BRANCH  27  30
ATOM     30  C   UNL     1      35.244 -19.356 -21.450  0.00  0.00    -0.031 C 
BRANCH  30  34
ATOM     31  N   UNL     1      35.065 -20.893 -19.519  0.00  0.00    -0.170 NA
ATOM     32  N   UNL     1      34.013 -21.467 -18.915  0.00  0.00    -0.157 N 
ATOM     33  N   UNL     1      32.782 -21.210 -19.389  0.00  0.00    -0.162 NA
ATOM     34  C   UNL     1      34.454 -20.194 -20.480  0.00  0.00    +0.077 C 
ATOM     35  C   UNL     1      33.068 -20.387 -20.401  0.00  0.00    +0.133 C 
ATOM     36  H   UNL     1      34.140 -22.064 -18.142  0.00  0.00    +0.197 HD
ENDBRANCH  30  34
ENDBRANCH  27  30
ENDBRANCH  26  27
ENDBRANCH  21  26
ENDBRANCH   5  20
TORSDOF 8
ENDMDL
MODEL 6
REMARK VINA RESULT:     -10.7      6.940     13.389
REMARK  Name = 11224409
REMARK  8 active torsions:
REMARK  status: ('A' for Active; 'I' for Inactive)
REMARK    1  A    between atoms: C_2  and  N_10
REMARK    2  A    between atoms: C_5  and  C_20
REMARK    3  A    between atoms: C_11  and  C_14
REMARK    4  A    between atoms: C_14  and  N_16
REMARK    5  A    between atoms: C_21  and  C_26
REMARK    6  A    between atoms: C_26  and  N_27
REMARK    7  A    between atoms: N_27  and  C_30
REMARK    8  A    between atoms: C_30  and  C_34
REMARK                            x       y       z     vdW  Elec       q    Type
REMARK                         _______ _______ _______ _____ _____    ______ ____
ROOT
ATOM      1  F   UNL     1      37.073 -20.151 -20.255  0.00  0.00    -0.204 F 
ATOM      2  C   UNL     1      34.607 -21.932 -18.266  0.00  0.00    +0.059 C 
ATOM      3  C   UNL     1      35.838 -21.482 -18.747  0.00  0.00    +0.045 C 
ATOM      4  C   UNL     1      33.423 -21.474 -18.844  0.00  0.00    +0.015 C 
ATOM      5  C   UNL     1      34.699 -20.117 -20.383  0.00  0.00    +0.028 C 
ATOM      6  C   UNL     1      35.883 -20.575 -19.805  0.00  0.00    +0.141 C 
ATOM      7  C   UNL     1      33.469 -20.566 -19.903  0.00  0.00    +0.004 C 
ENDROOT
BRANCH   2  10
ATOM      8  O   UNL     1      35.110 -24.076 -15.366  0.00  0.00    -0.434 OA
ATOM      9  O   UNL     1      36.658 -22.601 -16.122  0.00  0.00    -0.226 OA
ATOM     10  N   UNL     1      34.561 -22.859 -17.186  0.00  0.00    -0.221 N 
ATOM     11  C   UNL     1      33.718 -24.325 -15.606  0.00  0.00    +0.210 C 
ATOM     12  C   UNL     1      33.475 -23.783 -16.998  0.00  0.00    +0.147 C 
ATOM     13  C   UNL     1      35.548 -23.100 -16.233  0.00  0.00    +0.409 C 
BRANCH  11  14
ATOM     14  C   UNL     1      32.901 -23.617 -14.534  0.00  0.00    +0.135 C 
BRANCH  14  16
ATOM     15  O   UNL     1      30.236 -23.358 -15.659  0.00  0.00    -0.275 OA
ATOM     16  N   UNL     1      31.733 -24.373 -14.190  0.00  0.00    -0.301 N 
ATOM     17  C   UNL     1      30.489 -24.181 -14.783  0.00  0.00    +0.223 C 
ATOM     18  C   UNL     1      29.443 -25.125 -14.254  0.00  0.00    +0.095 C 
ATOM     19  H   UNL     1      31.815 -25.066 -13.495  0.00  0.00    +0.150 HD
ENDBRANCH  14  16
ENDBRANCH  11  14
ENDBRANCH   2  10
BRANCH   5  20
ATOM     20  C   UNL     1      34.741 -19.176 -21.481  0.00  0.00    +0.002 C 
ATOM     21  C   UNL     1      34.825 -17.362 -23.599  0.00  0.00    -0.044 C 
ATOM     22  C   UNL     1      35.316 -17.918 -21.300  0.00  0.00    -0.000 C 
ATOM     23  C   UNL     1      34.209 -19.527 -22.722  0.00  0.00    -0.000 C 
ATOM     24  C   UNL     1      35.358 -17.011 -22.359  0.00  0.00    -0.006 C 
ATOM     25  C   UNL     1      34.251 -18.621 -23.781  0.00  0.00    -0.006 C 
BRANCH  21  26
ATOM     26  C   UNL     1      34.872 -16.393 -24.731  0.00  0.00    -0.054 C 
BRANCH  26  27
ATOM     27  N   UNL     1      33.662 -15.572 -24.813  0.00  0.00    +0.390 N 
ATOM     28  H   UNL     1      32.843 -16.171 -24.706  0.00  0.00    -0.083 HD
ATOM     29  H   UNL     1      33.643 -15.106 -25.720  0.00  0.00    -0.083 HD
BRANCH  27  30
ATOM     30  C   UNL     1      33.654 -14.562 -23.767  0.00  0.00    -0.031 C 
BRANCH  30  34
ATOM     31  N   UNL     1      33.359 -12.967 -25.636  0.00  0.00    -0.170 NA
ATOM     32  N   UNL     1      33.375 -11.626 -25.692  0.00  0.00    -0.157 N 
ATOM     33  N   UNL     1      33.587 -10.940 -24.556  0.00  0.00    -0.162 NA
ATOM     34  C   UNL     1      33.582 -13.169 -24.334  0.00  0.00    +0.077 C 
ATOM     35  C   UNL     1      33.721 -11.938 -23.679  0.00  0.00    +0.133 C 
ATOM     36  H   UNL     1      33.236 -11.155 -26.545  0.00  0.00    +0.197 HD
ENDBRANCH  30  34
ENDBRANCH  27  30
ENDBRANCH  26  27
ENDBRANCH  21  26
ENDBRANCH   5  20
TORSDOF 8
ENDMDL
MODEL 7
REMARK VINA RESULT:     -10.5      5.937     10.586
REMARK  Name = 11224409
REMARK  8 active torsions:
REMARK  status: ('A' for Active; 'I' for Inactive)
REMARK    1  A    between atoms: C_2  and  N_10
REMARK    2  A    between atoms: C_5  and  C_20
REMARK    3  A    between atoms: C_11  and  C_14
REMARK    4  A    between atoms: C_14  and  N_16
REMARK    5  A    between atoms: C_21  and  C_26
REMARK    6  A    between atoms: C_26  and  N_27
REMARK    7  A    between atoms: N_27  and  C_30
REMARK    8  A    between atoms: C_30  and  C_34
REMARK                            x       y       z     vdW  Elec       q    Type
REMARK                         _______ _______ _______ _____ _____    ______ ____
ROOT
ATOM      1  F   UNL     1      37.005 -20.525 -19.388  0.00  0.00    -0.204 F 
ATOM      2  C   UNL     1      34.711 -19.163 -21.855  0.00  0.00    +0.059 C 
ATOM      3  C   UNL     1      35.889 -19.432 -21.158  0.00  0.00    +0.045 C 
ATOM      4  C   UNL     1      33.509 -19.738 -21.441  0.00  0.00    +0.015 C 
ATOM      5  C   UNL     1      34.663 -20.851 -19.634  0.00  0.00    +0.028 C 
ATOM      6  C   UNL     1      35.864 -20.276 -20.047  0.00  0.00    +0.141 C 
ATOM      7  C   UNL     1      33.485 -20.583 -20.331  0.00  0.00    +0.004 C 
ENDROOT
BRANCH   2  10
ATOM      8  O   UNL     1      34.397 -17.436 -25.045  0.00  0.00    -0.434 OA
ATOM      9  O   UNL     1      33.462 -19.457 -24.613  0.00  0.00    -0.226 OA
ATOM     10  N   UNL     1      34.736 -18.301 -22.988  0.00  0.00    -0.221 N 
ATOM     11  C   UNL     1      35.006 -16.394 -24.272  0.00  0.00    +0.210 C 
ATOM     12  C   UNL     1      35.523 -17.099 -23.035  0.00  0.00    +0.147 C 
ATOM     13  C   UNL     1      34.124 -18.506 -24.223  0.00  0.00    +0.409 C 
BRANCH  11  14
ATOM     14  C   UNL     1      33.959 -15.333 -23.964  0.00  0.00    +0.135 C 
BRANCH  14  16
ATOM     15  O   UNL     1      32.716 -13.024 -22.718  0.00  0.00    -0.275 OA
ATOM     16  N   UNL     1      33.970 -14.982 -22.574  0.00  0.00    -0.301 N 
ATOM     17  C   UNL     1      33.344 -13.850 -22.062  0.00  0.00    +0.223 C 
ATOM     18  C   UNL     1      33.490 -13.734 -20.568  0.00  0.00    +0.095 C 
ATOM     19  H   UNL     1      34.447 -15.574 -21.949  0.00  0.00    +0.150 HD
ENDBRANCH  14  16
ENDBRANCH  11  14
ENDBRANCH   2  10
BRANCH   5  20
ATOM     20  C   UNL     1      34.633 -21.727 -18.483  0.00  0.00    +0.002 C 
ATOM     21  C   UNL     1      34.575 -23.413 -16.262  0.00  0.00    -0.044 C 
ATOM     22  C   UNL     1      35.771 -21.877 -17.691  0.00  0.00    -0.000 C 
ATOM     23  C   UNL     1      33.465 -22.420 -18.163  0.00  0.00    -0.000 C 
ATOM     24  C   UNL     1      35.742 -22.720 -16.580  0.00  0.00    -0.006 C 
ATOM     25  C   UNL     1      33.436 -23.264 -17.053  0.00  0.00    -0.006 C 
BRANCH  21  26
ATOM     26  C   UNL     1      34.544 -24.314 -15.073  0.00  0.00    -0.054 C 
BRANCH  26  27
ATOM     27  N   UNL     1      35.844 -24.405 -14.408  0.00  0.00    +0.390 N 
ATOM     28  H   UNL     1      35.735 -24.158 -13.424  0.00  0.00    -0.083 HD
ATOM     29  H   UNL     1      36.491 -23.762 -14.863  0.00  0.00    -0.083 HD
BRANCH  27  30
ATOM     30  C   UNL     1      36.379 -25.754 -14.505  0.00  0.00    -0.031 C 
BRANCH  30  34
ATOM     31  N   UNL     1      38.505 -26.964 -14.132  0.00  0.00    -0.170 NA
ATOM     32  N   UNL     1      39.733 -26.549 -13.786  0.00  0.00    -0.157 N 
ATOM     33  N   UNL     1      39.932 -25.236 -13.582  0.00  0.00    -0.162 NA
ATOM     34  C   UNL     1      37.843 -25.804 -14.156  0.00  0.00    +0.077 C 
ATOM     35  C   UNL     1      38.710 -24.754 -13.822  0.00  0.00    +0.133 C 
ATOM     36  H   UNL     1      40.471 -27.192 -13.682  0.00  0.00    +0.197 HD
ENDBRANCH  30  34
ENDBRANCH  27  30
ENDBRANCH  26  27
ENDBRANCH  21  26
ENDBRANCH   5  20
TORSDOF 8
ENDMDL
MODEL 8
REMARK VINA RESULT:     -10.5      7.269     13.599
REMARK  Name = 11224409
REMARK  8 active torsions:
REMARK  status: ('A' for Active; 'I' for Inactive)
REMARK    1  A    between atoms: C_2  and  N_10
REMARK    2  A    between atoms: C_5  and  C_20
REMARK    3  A    between atoms: C_11  and  C_14
REMARK    4  A    between atoms: C_14  and  N_16
REMARK    5  A    between atoms: C_21  and  C_26
REMARK    6  A    between atoms: C_26  and  N_27
REMARK    7  A    between atoms: N_27  and  C_30
REMARK    8  A    between atoms: C_30  and  C_34
REMARK                            x       y       z     vdW  Elec       q    Type
REMARK                         _______ _______ _______ _____ _____    ______ ____
ROOT
ATOM      1  F   UNL     1      37.510 -19.908 -20.009  0.00  0.00    -0.204 F 
ATOM      2  C   UNL     1      35.358 -21.985 -17.943  0.00  0.00    +0.059 C 
ATOM      3  C   UNL     1      36.503 -21.372 -18.455  0.00  0.00    +0.045 C 
ATOM      4  C   UNL     1      34.112 -21.713 -18.507  0.00  0.00    +0.015 C 
ATOM      5  C   UNL     1      35.153 -20.218 -20.092  0.00  0.00    +0.028 C 
ATOM      6  C   UNL     1      36.400 -20.489 -19.529  0.00  0.00    +0.141 C 
ATOM      7  C   UNL     1      34.009 -20.829 -19.581  0.00  0.00    +0.004 C 
ENDROOT
BRANCH   2  10
ATOM      8  O   UNL     1      36.274 -24.100 -15.124  0.00  0.00    -0.434 OA
ATOM      9  O   UNL     1      37.732 -22.730 -16.194  0.00  0.00    -0.226 OA
ATOM     10  N   UNL     1      35.463 -22.887 -16.847  0.00  0.00    -0.221 N 
ATOM     11  C   UNL     1      34.851 -24.273 -15.097  0.00  0.00    +0.210 C 
ATOM     12  C   UNL     1      34.383 -23.743 -16.436  0.00  0.00    +0.147 C 
ATOM     13  C   UNL     1      36.595 -23.167 -16.085  0.00  0.00    +0.409 C 
BRANCH  11  14
ATOM     14  C   UNL     1      34.284 -23.500 -13.915  0.00  0.00    +0.135 C 
BRANCH  14  16
ATOM     15  O   UNL     1      34.667 -24.952 -11.430  0.00  0.00    -0.275 OA
ATOM     16  N   UNL     1      35.287 -23.270 -12.917  0.00  0.00    -0.301 N 
ATOM     17  C   UNL     1      35.398 -24.018 -11.750  0.00  0.00    +0.223 C 
ATOM     18  C   UNL     1      36.553 -23.582 -10.889  0.00  0.00    +0.095 C 
ATOM     19  H   UNL     1      35.933 -22.541 -13.066  0.00  0.00    +0.150 HD
ENDBRANCH  14  16
ENDBRANCH  11  14
ENDBRANCH   2  10
BRANCH   5  20
ATOM     20  C   UNL     1      35.042 -19.302 -21.207  0.00  0.00    +0.002 C 
ATOM     21  C   UNL     1      34.830 -17.537 -23.357  0.00  0.00    -0.044 C 
ATOM     22  C   UNL     1      35.539 -18.004 -21.095  0.00  0.00    -0.000 C 
ATOM     23  C   UNL     1      34.439 -19.718 -22.395  0.00  0.00    -0.000 C 
ATOM     24  C   UNL     1      35.433 -17.121 -22.171  0.00  0.00    -0.006 C 
ATOM     25  C   UNL     1      34.332 -18.836 -23.469  0.00  0.00    -0.006 C 
BRANCH  21  26
ATOM     26  C   UNL     1      34.717 -16.594 -24.506  0.00  0.00    -0.054 C 
BRANCH  26  27
ATOM     27  N   UNL     1      33.553 -15.713 -24.394  0.00  0.00    +0.390 N 
ATOM     28  H   UNL     1      32.947 -16.053 -23.648  0.00  0.00    -0.083 HD
ATOM     29  H   UNL     1      33.055 -15.713 -25.283  0.00  0.00    -0.083 HD
BRANCH  27  30
ATOM     30  C   UNL     1      33.967 -14.352 -24.089  0.00  0.00    -0.031 C 
BRANCH  30  34
ATOM     31  N   UNL     1      34.012 -14.361 -21.615  0.00  0.00    -0.170 NA
ATOM     32  N   UNL     1      33.278 -13.716 -20.695  0.00  0.00    -0.157 N 
ATOM     33  N   UNL     1      32.308 -12.887 -21.114  0.00  0.00    -0.162 NA
ATOM     34  C   UNL     1      33.463 -13.901 -22.743  0.00  0.00    +0.077 C 
ATOM     35  C   UNL     1      32.428 -13.007 -22.439  0.00  0.00    +0.133 C 
ATOM     36  H   UNL     1      33.446 -13.849 -19.734  0.00  0.00    +0.197 HD
ENDBRANCH  30  34
ENDBRANCH  27  30
ENDBRANCH  26  27
ENDBRANCH  21  26
ENDBRANCH   5  20
TORSDOF 8
ENDMDL
MODEL 9
REMARK VINA RESULT:     -10.4      6.267     10.894
REMARK  Name = 11224409
REMARK  8 active torsions:
REMARK  status: ('A' for Active; 'I' for Inactive)
REMARK    1  A    between atoms: C_2  and  N_10
REMARK    2  A    between atoms: C_5  and  C_20
REMARK    3  A    between atoms: C_11  and  C_14
REMARK    4  A    between atoms: C_14  and  N_16
REMARK    5  A    between atoms: C_21  and  C_26
REMARK    6  A    between atoms: C_26  and  N_27
REMARK    7  A    between atoms: N_27  and  C_30
REMARK    8  A    between atoms: C_30  and  C_34
REMARK                            x       y       z     vdW  Elec       q    Type
REMARK                         _______ _______ _______ _____ _____    ______ ____
ROOT
ATOM      1  F   UNL     1      36.932 -21.307 -19.289  0.00  0.00    -0.204 F 
ATOM      2  C   UNL     1      34.710 -19.529 -21.550  0.00  0.00    +0.059 C 
ATOM      3  C   UNL     1      35.878 -20.024 -20.966  0.00  0.00    +0.045 C 
ATOM      4  C   UNL     1      33.468 -19.852 -21.004  0.00  0.00    +0.015 C 
ATOM      5  C   UNL     1      34.559 -21.162 -19.293  0.00  0.00    +0.028 C 
ATOM      6  C   UNL     1      35.801 -20.840 -19.838  0.00  0.00    +0.141 C 
ATOM      7  C   UNL     1      33.391 -20.669 -19.876  0.00  0.00    +0.004 C 
ENDROOT
BRANCH   2  10
ATOM      8  O   UNL     1      34.736 -17.957 -24.834  0.00  0.00    -0.434 OA
ATOM      9  O   UNL     1      34.242 -20.144 -24.492  0.00  0.00    -0.226 OA
ATOM     10  N   UNL     1      34.788 -18.697 -22.702  0.00  0.00    -0.221 N 
ATOM     11  C   UNL     1      34.881 -16.791 -24.012  0.00  0.00    +0.210 C 
ATOM     12  C   UNL     1      35.252 -17.336 -22.649  0.00  0.00    +0.147 C 
ATOM     13  C   UNL     1      34.547 -19.055 -24.026  0.00  0.00    +0.409 C 
BRANCH  11  14
ATOM     14  C   UNL     1      33.567 -16.022 -24.013  0.00  0.00    +0.135 C 
BRANCH  14  16
ATOM     15  O   UNL     1      33.145 -13.913 -22.062  0.00  0.00    -0.275 OA
ATOM     16  N   UNL     1      33.789 -14.617 -24.188  0.00  0.00    -0.301 N 
ATOM     17  C   UNL     1      33.558 -13.672 -23.193  0.00  0.00    +0.223 C 
ATOM     18  C   UNL     1      33.897 -12.273 -23.634  0.00  0.00    +0.095 C 
ATOM     19  H   UNL     1      34.122 -14.303 -25.060  0.00  0.00    +0.150 HD
ENDBRANCH  14  16
ENDBRANCH  11  14
ENDBRANCH   2  10
BRANCH   5  20
ATOM     20  C   UNL     1      34.475 -22.008 -18.121  0.00  0.00    +0.002 C 
ATOM     21  C   UNL     1      34.313 -23.637 -15.863  0.00  0.00    -0.044 C 
ATOM     22  C   UNL     1      35.570 -22.125 -17.266  0.00  0.00    -0.000 C 
ATOM     23  C   UNL     1      33.298 -22.706 -17.847  0.00  0.00    -0.000 C 
ATOM     24  C   UNL     1      35.489 -22.939 -16.136  0.00  0.00    -0.006 C 
ATOM     25  C   UNL     1      33.217 -23.521 -16.719  0.00  0.00    -0.006 C 
BRANCH  21  26
ATOM     26  C   UNL     1      34.226 -24.507 -14.655  0.00  0.00    -0.054 C 
BRANCH  26  27
ATOM     27  N   UNL     1      33.316 -23.968 -13.642  0.00  0.00    +0.390 N 
ATOM     28  H   UNL     1      32.861 -23.133 -14.012  0.00  0.00    -0.083 HD
ATOM     29  H   UNL     1      33.854 -23.736 -12.808  0.00  0.00    -0.083 HD
BRANCH  27  30
ATOM     30  C   UNL     1      32.303 -24.948 -13.288  0.00  0.00    -0.031 C 
BRANCH  30  34
ATOM     31  N   UNL     1      30.634 -23.369 -14.209  0.00  0.00    -0.170 NA
ATOM     32  N   UNL     1      29.410 -23.548 -14.729  0.00  0.00    -0.157 N 
ATOM     33  N   UNL     1      28.919 -24.797 -14.798  0.00  0.00    -0.162 NA
ATOM     34  C   UNL     1      30.970 -24.628 -13.914  0.00  0.00    +0.077 C 
ATOM     35  C   UNL     1      29.929 -25.495 -14.271  0.00  0.00    +0.133 C 
ATOM     36  H   UNL     1      28.882 -22.782 -15.051  0.00  0.00    +0.197 HD
ENDBRANCH  30  34
ENDBRANCH  27  30
ENDBRANCH  26  27
ENDBRANCH  21  26
ENDBRANCH   5  20
TORSDOF 8
ENDMDL
