MODEL 1
REMARK VINA RESULT:     -12.1      0.000      0.000
REMARK  Name = 44472635
REMARK  7 active torsions:
REMARK  status: ('A' for Active; 'I' for Inactive)
REMARK    1  A    between atoms: C_1  and  C_21
REMARK    2  A    between atoms: C_4  and  N_8
REMARK    3  A    between atoms: C_9  and  C_14
REMARK    4  A    between atoms: C_21  and  C_24
REMARK    5  A    between atoms: C_23  and  C_29
REMARK    6  A    between atoms: C_29  and  C_30
REMARK    7  A    between atoms: C_29  and  O_36
REMARK                            x       y       z     vdW  Elec       q    Type
REMARK                         _______ _______ _______ _____ _____    ______ ____
ROOT
ATOM      1  C   UNL     1      34.624 -15.703 -23.254  0.00  0.00    -0.024 C 
ATOM      2  C   UNL     1      34.608 -15.021 -22.038  0.00  0.00    -0.003 C 
ATOM      3  C   UNL     1      33.976 -15.162 -24.365  0.00  0.00    -0.003 C 
ATOM      4  C   UNL     1      33.298 -13.257 -23.043  0.00  0.00    +0.050 C 
ATOM      5  C   UNL     1      33.945 -13.798 -21.932  0.00  0.00    +0.014 C 
ATOM      6  C   UNL     1      33.314 -13.940 -24.260  0.00  0.00    +0.014 C 
ENDROOT
BRANCH   4   8
ATOM      7  O   UNL     1      34.247 -10.462 -23.633  0.00  0.00    -0.273 OA
ATOM      8  N   UNL     1      32.625 -12.017 -22.937  0.00  0.00    -0.283 N 
ATOM      9  C   UNL     1      33.127 -10.756 -23.226  0.00  0.00    +0.245 C 
ATOM     10  H   UNL     1      31.693 -12.054 -22.621  0.00  0.00    +0.155 HD
BRANCH   9  14
ATOM     11  O   UNL     1      30.713 -11.209 -20.843  0.00  0.00    -0.269 OA
ATOM     12  N   UNL     1      32.063  -9.452 -21.557  0.00  0.00    -0.237 N 
ATOM     13  N   UNL     1      32.923  -7.846 -20.017  0.00  0.00    -0.233 NA
ATOM     14  C   UNL     1      32.097  -9.695 -22.983  0.00  0.00    +0.158 C 
ATOM     15  C   UNL     1      32.521  -8.354 -23.564  0.00  0.00    +0.037 C 
ATOM     16  C   UNL     1      33.355  -7.701 -22.459  0.00  0.00    +0.064 C 
ATOM     17  C   UNL     1      32.776  -8.306 -21.216  0.00  0.00    +0.115 C 
ATOM     18  C   UNL     1      31.387 -10.209 -20.620  0.00  0.00    +0.256 C 
ATOM     19  C   UNL     1      31.554  -9.688 -19.239  0.00  0.00    +0.079 C 
ATOM     20  C   UNL     1      32.287  -8.582 -19.045  0.00  0.00    +0.105 C 
ENDBRANCH   9  14
ENDBRANCH   4   8
BRANCH   1  21
ATOM     21  C   UNL     1      35.331 -17.011 -23.367  0.00  0.00    +0.005 C 
BRANCH  21  24
ATOM     22  N   UNL     1      34.593 -18.636 -21.646  0.00  0.00    +0.388 N 
ATOM     23  C   UNL     1      35.203 -19.397 -20.545  0.00  0.00    -0.030 C 
ATOM     24  C   UNL     1      35.608 -17.637 -22.010  0.00  0.00    -0.057 C 
ATOM     25  C   UNL     1      36.694 -19.463 -20.875  0.00  0.00    -0.021 C 
ATOM     26  C   UNL     1      36.908 -18.428 -21.974  0.00  0.00    -0.023 C 
ATOM     27  H   UNL     1      33.735 -18.181 -21.337  0.00  0.00    -0.084 HD
ATOM     28  H   UNL     1      34.335 -19.232 -22.432  0.00  0.00    -0.084 HD
BRANCH  23  29
ATOM     29  C   UNL     1      34.568 -20.771 -20.389  0.00  0.00    +0.113 C 
BRANCH  29  30
ATOM     30  C   UNL     1      34.942 -21.427 -19.079  0.00  0.00    +0.002 C 
ATOM     31  C   UNL     1      36.248 -21.333 -18.598  0.00  0.00    -0.002 C 
ATOM     32  C   UNL     1      33.980 -22.128 -18.351  0.00  0.00    -0.002 C 
ATOM     33  C   UNL     1      36.592 -21.939 -17.391  0.00  0.00    -0.000 C 
ATOM     34  C   UNL     1      34.324 -22.735 -17.143  0.00  0.00    -0.000 C 
ATOM     35  C   UNL     1      35.630 -22.640 -16.663  0.00  0.00    -0.000 C 
ENDBRANCH  29  30
BRANCH  29  36
ATOM     36  O   UNL     1      33.147 -20.657 -20.463  0.00  0.00    -0.382 OA
ATOM     37  H   UNL     1      32.795 -21.368 -21.021  0.00  0.00    +0.211 HD
ENDBRANCH  29  36
ENDBRANCH  23  29
ENDBRANCH  21  24
ENDBRANCH   1  21
TORSDOF 7
ENDMDL
MODEL 2
REMARK VINA RESULT:     -11.8      2.331     11.566
REMARK  Name = 44472635
REMARK  7 active torsions:
REMARK  status: ('A' for Active; 'I' for Inactive)
REMARK    1  A    between atoms: C_1  and  C_21
REMARK    2  A    between atoms: C_4  and  N_8
REMARK    3  A    between atoms: C_9  and  C_14
REMARK    4  A    between atoms: C_21  and  C_24
REMARK    5  A    between atoms: C_23  and  C_29
REMARK    6  A    between atoms: C_29  and  C_30
REMARK    7  A    between atoms: C_29  and  O_36
REMARK                            x       y       z     vdW  Elec       q    Type
REMARK                         _______ _______ _______ _____ _____    ______ ____
ROOT
ATOM      1  C   UNL     1      32.269 -12.289 -21.314  0.00  0.00    -0.024 C 
ATOM      2  C   UNL     1      32.740 -12.483 -22.613  0.00  0.00    -0.003 C 
ATOM      3  C   UNL     1      32.571 -13.219 -20.318  0.00  0.00    -0.003 C 
ATOM      4  C   UNL     1      33.814 -14.533 -21.918  0.00  0.00    +0.050 C 
ATOM      5  C   UNL     1      33.512 -13.605 -22.915  0.00  0.00    +0.014 C 
ATOM      6  C   UNL     1      33.343 -14.340 -20.620  0.00  0.00    +0.014 C 
ENDROOT
BRANCH   4   8
ATOM      7  O   UNL     1      35.191 -16.504 -20.106  0.00  0.00    -0.273 OA
ATOM      8  N   UNL     1      34.597 -15.671 -22.225  0.00  0.00    -0.283 N 
ATOM      9  C   UNL     1      35.208 -16.541 -21.333  0.00  0.00    +0.245 C 
ATOM     10  H   UNL     1      34.723 -15.867 -23.182  0.00  0.00    +0.155 HD
BRANCH   9  14
ATOM     11  O   UNL     1      37.678 -18.298 -19.744  0.00  0.00    -0.269 OA
ATOM     12  N   UNL     1      35.935 -18.794 -21.204  0.00  0.00    -0.237 N 
ATOM     13  N   UNL     1      34.720 -20.839 -21.033  0.00  0.00    -0.233 NA
ATOM     14  C   UNL     1      35.949 -17.625 -22.056  0.00  0.00    +0.158 C 
ATOM     15  C   UNL     1      35.205 -18.081 -23.303  0.00  0.00    +0.037 C 
ATOM     16  C   UNL     1      34.246 -19.165 -22.804  0.00  0.00    +0.064 C 
ATOM     17  C   UNL     1      34.965 -19.708 -21.607  0.00  0.00    +0.115 C 
ATOM     18  C   UNL     1      36.782 -19.034 -20.141  0.00  0.00    +0.256 C 
ATOM     19  C   UNL     1      36.504 -20.332 -19.473  0.00  0.00    +0.079 C 
ATOM     20  C   UNL     1      35.524 -21.113 -19.951  0.00  0.00    +0.105 C 
ENDBRANCH   9  14
ENDBRANCH   4   8
BRANCH   1  21
ATOM     21  C   UNL     1      31.442 -11.092 -20.991  0.00  0.00    +0.005 C 
BRANCH  21  24
ATOM     22  N   UNL     1      32.120  -8.813 -21.693  0.00  0.00    +0.388 N 
ATOM     23  C   UNL     1      32.673  -7.606 -21.061  0.00  0.00    -0.030 C 
ATOM     24  C   UNL     1      32.291  -9.868 -20.685  0.00  0.00    -0.057 C 
ATOM     25  C   UNL     1      32.326  -7.730 -19.577  0.00  0.00    -0.021 C 
ATOM     26  C   UNL     1      31.896  -9.180 -19.386  0.00  0.00    -0.023 C 
ATOM     27  H   UNL     1      32.633  -9.041 -22.544  0.00  0.00    -0.084 HD
ATOM     28  H   UNL     1      31.146  -8.694 -21.969  0.00  0.00    -0.084 HD
BRANCH  23  29
ATOM     29  C   UNL     1      32.126  -6.335 -21.694  0.00  0.00    +0.113 C 
BRANCH  29  30
ATOM     30  C   UNL     1      32.962  -5.875 -22.867  0.00  0.00    +0.002 C 
ATOM     31  C   UNL     1      32.510  -4.838 -23.683  0.00  0.00    -0.002 C 
ATOM     32  C   UNL     1      34.185  -6.490 -23.134  0.00  0.00    -0.002 C 
ATOM     33  C   UNL     1      33.281  -4.415 -24.765  0.00  0.00    -0.000 C 
ATOM     34  C   UNL     1      34.957  -6.067 -24.217  0.00  0.00    -0.000 C 
ATOM     35  C   UNL     1      34.505  -5.029 -25.032  0.00  0.00    -0.000 C 
ENDBRANCH  29  30
BRANCH  29  36
ATOM     36  O   UNL     1      30.786  -6.555 -22.135  0.00  0.00    -0.382 OA
ATOM     37  H   UNL     1      30.474  -7.411 -21.805  0.00  0.00    +0.211 HD
ENDBRANCH  29  36
ENDBRANCH  23  29
ENDBRANCH  21  24
ENDBRANCH   1  21
TORSDOF 7
ENDMDL
MODEL 3
REMARK VINA RESULT:     -11.7      1.544      2.615
REMARK  Name = 44472635
REMARK  7 active torsions:
REMARK  status: ('A' for Active; 'I' for Inactive)
REMARK    1  A    between atoms: C_1  and  C_21
REMARK    2  A    between atoms: C_4  and  N_8
REMARK    3  A    between atoms: C_9  and  C_14
REMARK    4  A    between atoms: C_21  and  C_24
REMARK    5  A    between atoms: C_23  and  C_29
REMARK    6  A    between atoms: C_29  and  C_30
REMARK    7  A    between atoms: C_29  and  O_36
REMARK                            x       y       z     vdW  Elec       q    Type
REMARK                         _______ _______ _______ _____ _____    ______ ____
ROOT
ATOM      1  C   UNL     1      35.220 -17.779 -22.904  0.00  0.00    -0.024 C 
ATOM      2  C   UNL     1      35.323 -16.667 -22.069  0.00  0.00    -0.003 C 
ATOM      3  C   UNL     1      34.577 -17.667 -24.138  0.00  0.00    -0.003 C 
ATOM      4  C   UNL     1      34.144 -15.331 -23.702  0.00  0.00    +0.050 C 
ATOM      5  C   UNL     1      34.785 -15.443 -22.467  0.00  0.00    +0.014 C 
ATOM      6  C   UNL     1      34.040 -16.444 -24.537  0.00  0.00    +0.014 C 
ENDROOT
BRANCH   4   8
ATOM      7  O   UNL     1      34.122 -12.660 -22.313  0.00  0.00    -0.273 OA
ATOM      8  N   UNL     1      33.598 -14.090 -24.106  0.00  0.00    -0.283 N 
ATOM      9  C   UNL     1      33.623 -12.889 -23.411  0.00  0.00    +0.245 C 
ATOM     10  H   UNL     1      33.149 -14.078 -24.983  0.00  0.00    +0.155 HD
BRANCH   9  14
ATOM     11  O   UNL     1      31.195 -10.991 -21.923  0.00  0.00    -0.269 OA
ATOM     12  N   UNL     1      32.980 -10.608 -23.368  0.00  0.00    -0.237 N 
ATOM     13  N   UNL     1      34.267  -8.605 -23.242  0.00  0.00    -0.233 NA
ATOM     14  C   UNL     1      32.935 -11.804 -24.182  0.00  0.00    +0.158 C 
ATOM     15  C   UNL     1      33.715 -11.417 -25.430  0.00  0.00    +0.037 C 
ATOM     16  C   UNL     1      34.707 -10.353 -24.950  0.00  0.00    +0.064 C 
ATOM     17  C   UNL     1      33.989  -9.744 -23.784  0.00  0.00    +0.115 C 
ATOM     18  C   UNL     1      32.125 -10.302 -22.327  0.00  0.00    +0.256 C 
ATOM     19  C   UNL     1      32.441  -8.993 -21.698  0.00  0.00    +0.079 C 
ATOM     20  C   UNL     1      33.457  -8.265 -22.184  0.00  0.00    +0.105 C 
ENDBRANCH   9  14
ENDBRANCH   4   8
BRANCH   1  21
ATOM     21  C   UNL     1      35.792 -19.088 -22.478  0.00  0.00    +0.005 C 
BRANCH  21  24
ATOM     22  N   UNL     1      34.414 -20.363 -20.859  0.00  0.00    +0.388 N 
ATOM     23  C   UNL     1      34.533 -20.832 -19.470  0.00  0.00    -0.030 C 
ATOM     24  C   UNL     1      35.508 -19.395 -21.016  0.00  0.00    -0.057 C 
ATOM     25  C   UNL     1      36.034 -20.862 -19.180  0.00  0.00    -0.021 C 
ATOM     26  C   UNL     1      36.677 -20.069 -20.312  0.00  0.00    -0.023 C 
ATOM     27  H   UNL     1      33.511 -19.914 -21.011  0.00  0.00    -0.084 HD
ATOM     28  H   UNL     1      34.471 -21.127 -21.532  0.00  0.00    -0.084 HD
BRANCH  23  29
ATOM     29  C   UNL     1      33.863 -22.184 -19.270  0.00  0.00    +0.113 C 
BRANCH  29  30
ATOM     30  C   UNL     1      33.793 -22.577 -17.812  0.00  0.00    +0.002 C 
ATOM     31  C   UNL     1      32.557 -22.814 -17.211  0.00  0.00    -0.002 C 
ATOM     32  C   UNL     1      34.966 -22.702 -17.067  0.00  0.00    -0.002 C 
ATOM     33  C   UNL     1      32.493 -23.176 -15.866  0.00  0.00    -0.000 C 
ATOM     34  C   UNL     1      34.902 -23.063 -15.721  0.00  0.00    -0.000 C 
ATOM     35  C   UNL     1      33.666 -23.301 -15.121  0.00  0.00    -0.000 C 
ENDBRANCH  29  30
BRANCH  29  36
ATOM     36  O   UNL     1      32.541 -22.150 -19.807  0.00  0.00    -0.382 OA
ATOM     37  H   UNL     1      32.303 -21.235 -20.024  0.00  0.00    +0.211 HD
ENDBRANCH  29  36
ENDBRANCH  23  29
ENDBRANCH  21  24
ENDBRANCH   1  21
TORSDOF 7
ENDMDL
MODEL 4
REMARK VINA RESULT:     -11.6      4.044     12.129
REMARK  Name = 44472635
REMARK  7 active torsions:
REMARK  status: ('A' for Active; 'I' for Inactive)
REMARK    1  A    between atoms: C_1  and  C_21
REMARK    2  A    between atoms: C_4  and  N_8
REMARK    3  A    between atoms: C_9  and  C_14
REMARK    4  A    between atoms: C_21  and  C_24
REMARK    5  A    between atoms: C_23  and  C_29
REMARK    6  A    between atoms: C_29  and  C_30
REMARK    7  A    between atoms: C_29  and  O_36
REMARK                            x       y       z     vdW  Elec       q    Type
REMARK                         _______ _______ _______ _____ _____    ______ ____
ROOT
ATOM      1  C   UNL     1      35.401 -20.280 -20.278  0.00  0.00    -0.024 C 
ATOM      2  C   UNL     1      34.043 -20.541 -20.093  0.00  0.00    -0.003 C 
ATOM      3  C   UNL     1      36.350 -20.944 -19.499  0.00  0.00    -0.003 C 
ATOM      4  C   UNL     1      34.584 -22.129 -18.354  0.00  0.00    +0.050 C 
ATOM      5  C   UNL     1      33.634 -21.465 -19.132  0.00  0.00    +0.014 C 
ATOM      6  C   UNL     1      35.942 -21.868 -18.539  0.00  0.00    +0.014 C 
ENDROOT
BRANCH   4   8
ATOM      7  O   UNL     1      35.384 -22.430 -15.467  0.00  0.00    -0.273 OA
ATOM      8  N   UNL     1      34.170 -23.067 -17.379  0.00  0.00    -0.283 N 
ATOM      9  C   UNL     1      34.584 -23.150 -16.057  0.00  0.00    +0.245 C 
ATOM     10  H   UNL     1      33.512 -23.738 -17.673  0.00  0.00    +0.155 HD
BRANCH   9  14
ATOM     11  O   UNL     1      36.386 -25.893 -15.090  0.00  0.00    -0.269 OA
ATOM     12  N   UNL     1      34.696 -24.582 -14.172  0.00  0.00    -0.237 N 
ATOM     13  N   UNL     1      34.615 -24.126 -11.832  0.00  0.00    -0.233 NA
ATOM     14  C   UNL     1      33.909 -24.286 -15.349  0.00  0.00    +0.158 C 
ATOM     15  C   UNL     1      32.558 -23.874 -14.782  0.00  0.00    +0.037 C 
ATOM     16  C   UNL     1      32.879 -23.295 -13.402  0.00  0.00    +0.064 C 
ATOM     17  C   UNL     1      34.131 -24.029 -13.026  0.00  0.00    +0.115 C 
ATOM     18  C   UNL     1      35.845 -25.347 -14.135  0.00  0.00    +0.256 C 
ATOM     19  C   UNL     1      36.410 -25.460 -12.765  0.00  0.00    +0.079 C 
ATOM     20  C   UNL     1      35.775 -24.859 -11.748  0.00  0.00    +0.105 C 
ENDBRANCH   9  14
ENDBRANCH   4   8
BRANCH   1  21
ATOM     21  C   UNL     1      35.838 -19.290 -21.304  0.00  0.00    +0.005 C 
BRANCH  21  24
ATOM     22  N   UNL     1      34.834 -17.438 -22.611  0.00  0.00    +0.388 N 
ATOM     23  C   UNL     1      33.907 -17.293 -23.743  0.00  0.00    -0.030 C 
ATOM     24  C   UNL     1      34.694 -18.842 -22.199  0.00  0.00    -0.057 C 
ATOM     25  C   UNL     1      33.954 -18.631 -24.481  0.00  0.00    -0.021 C 
ATOM     26  C   UNL     1      34.644 -19.593 -23.521  0.00  0.00    -0.023 C 
ATOM     27  H   UNL     1      34.575 -16.812 -21.850  0.00  0.00    -0.084 HD
ATOM     28  H   UNL     1      35.794 -17.202 -22.863  0.00  0.00    -0.084 HD
BRANCH  23  29
ATOM     29  C   UNL     1      34.279 -16.113 -24.630  0.00  0.00    +0.113 C 
BRANCH  29  30
ATOM     30  C   UNL     1      33.894 -14.789 -24.010  0.00  0.00    +0.002 C 
ATOM     31  C   UNL     1      33.478 -13.733 -24.820  0.00  0.00    -0.002 C 
ATOM     32  C   UNL     1      33.957 -14.622 -22.626  0.00  0.00    -0.002 C 
ATOM     33  C   UNL     1      33.124 -12.511 -24.248  0.00  0.00    -0.000 C 
ATOM     34  C   UNL     1      33.604 -13.401 -22.053  0.00  0.00    -0.000 C 
ATOM     35  C   UNL     1      33.187 -12.345 -22.864  0.00  0.00    -0.000 C 
ENDBRANCH  29  30
BRANCH  29  36
ATOM     36  O   UNL     1      35.685 -16.120 -24.877  0.00  0.00    -0.382 OA
ATOM     37  H   UNL     1      35.998 -15.209 -24.991  0.00  0.00    +0.211 HD
ENDBRANCH  29  36
ENDBRANCH  23  29
ENDBRANCH  21  24
ENDBRANCH   1  21
TORSDOF 7
ENDMDL
MODEL 5
REMARK VINA RESULT:     -11.2      3.773     11.886
REMARK  Name = 44472635
REMARK  7 active torsions:
REMARK  status: ('A' for Active; 'I' for Inactive)
REMARK    1  A    between atoms: C_1  and  C_21
REMARK    2  A    between atoms: C_4  and  N_8
REMARK    3  A    between atoms: C_9  and  C_14
REMARK    4  A    between atoms: C_21  and  C_24
REMARK    5  A    between atoms: C_23  and  C_29
REMARK    6  A    between atoms: C_29  and  C_30
REMARK    7  A    between atoms: C_29  and  O_36
REMARK                            x       y       z     vdW  Elec       q    Type
REMARK                         _______ _______ _______ _____ _____    ______ ____
ROOT
ATOM      1  C   UNL     1      35.565 -19.981 -20.606  0.00  0.00    -0.024 C 
ATOM      2  C   UNL     1      34.186 -20.145 -20.469  0.00  0.00    -0.003 C 
ATOM      3  C   UNL     1      36.437 -20.738 -19.823  0.00  0.00    -0.003 C 
ATOM      4  C   UNL     1      34.554 -21.823 -18.770  0.00  0.00    +0.050 C 
ATOM      5  C   UNL     1      33.680 -21.066 -19.552  0.00  0.00    +0.014 C 
ATOM      6  C   UNL     1      35.932 -21.659 -18.906  0.00  0.00    +0.014 C 
ENDROOT
BRANCH   4   8
ATOM      7  O   UNL     1      35.423 -22.459 -15.958  0.00  0.00    -0.273 OA
ATOM      8  N   UNL     1      34.041 -22.758 -17.839  0.00  0.00    -0.283 N 
ATOM      9  C   UNL     1      34.495 -23.002 -16.550  0.00  0.00    +0.245 C 
ATOM     10  H   UNL     1      33.274 -23.297 -18.142  0.00  0.00    +0.155 HD
BRANCH   9  14
ATOM     11  O   UNL     1      36.029 -25.759 -15.225  0.00  0.00    -0.269 OA
ATOM     12  N   UNL     1      34.295 -24.337 -14.601  0.00  0.00    -0.237 N 
ATOM     13  N   UNL     1      33.932 -23.754 -12.317  0.00  0.00    -0.233 NA
ATOM     14  C   UNL     1      33.683 -24.072 -15.885  0.00  0.00    +0.158 C 
ATOM     15  C   UNL     1      32.290 -23.578 -15.522  0.00  0.00    +0.037 C 
ATOM     16  C   UNL     1      32.455 -22.940 -14.140  0.00  0.00    +0.064 C 
ATOM     17  C   UNL     1      33.612 -23.701 -13.568  0.00  0.00    +0.115 C 
ATOM     18  C   UNL     1      35.394 -25.143 -14.377  0.00  0.00    +0.256 C 
ATOM     19  C   UNL     1      35.770 -25.205 -12.941  0.00  0.00    +0.079 C 
ATOM     20  C   UNL     1      35.036 -24.527 -12.045  0.00  0.00    +0.105 C 
ENDBRANCH   9  14
ENDBRANCH   4   8
BRANCH   1  21
ATOM     21  C   UNL     1      36.106 -18.995 -21.585  0.00  0.00    +0.005 C 
BRANCH  21  24
ATOM     22  N   UNL     1      35.123 -16.782 -21.051  0.00  0.00    +0.388 N 
ATOM     23  C   UNL     1      34.389 -15.725 -21.762  0.00  0.00    -0.030 C 
ATOM     24  C   UNL     1      35.083 -17.935 -21.962  0.00  0.00    -0.057 C 
ATOM     25  C   UNL     1      34.718 -15.927 -23.241  0.00  0.00    -0.021 C 
ATOM     26  C   UNL     1      35.347 -17.313 -23.326  0.00  0.00    -0.023 C 
ATOM     27  H   UNL     1      34.666 -17.006 -20.167  0.00  0.00    -0.084 HD
ATOM     28  H   UNL     1      36.076 -16.503 -20.819  0.00  0.00    -0.084 HD
BRANCH  23  29
ATOM     29  C   UNL     1      34.762 -14.339 -21.255  0.00  0.00    +0.113 C 
BRANCH  29  30
ATOM     30  C   UNL     1      33.683 -13.318 -21.538  0.00  0.00    +0.002 C 
ATOM     31  C   UNL     1      33.735 -12.552 -22.703  0.00  0.00    -0.002 C 
ATOM     32  C   UNL     1      32.636 -13.140 -20.634  0.00  0.00    -0.002 C 
ATOM     33  C   UNL     1      32.741 -11.610 -22.964  0.00  0.00    -0.000 C 
ATOM     34  C   UNL     1      31.642 -12.197 -20.893  0.00  0.00    -0.000 C 
ATOM     35  C   UNL     1      31.694 -11.433 -22.059  0.00  0.00    -0.000 C 
ENDBRANCH  29  30
BRANCH  29  36
ATOM     36  O   UNL     1      34.998 -14.389 -19.848  0.00  0.00    -0.382 OA
ATOM     37  H   UNL     1      35.900 -14.084 -19.661  0.00  0.00    +0.211 HD
ENDBRANCH  29  36
ENDBRANCH  23  29
ENDBRANCH  21  24
ENDBRANCH   1  21
TORSDOF 7
ENDMDL
MODEL 6
REMARK VINA RESULT:     -11.1      4.647     12.825
REMARK  Name = 44472635
REMARK  7 active torsions:
REMARK  status: ('A' for Active; 'I' for Inactive)
REMARK    1  A    between atoms: C_1  and  C_21
REMARK    2  A    between atoms: C_4  and  N_8
REMARK    3  A    between atoms: C_9  and  C_14
REMARK    4  A    between atoms: C_21  and  C_24
REMARK    5  A    between atoms: C_23  and  C_29
REMARK    6  A    between atoms: C_29  and  C_30
REMARK    7  A    between atoms: C_29  and  O_36
REMARK                            x       y       z     vdW  Elec       q    Type
REMARK                         _______ _______ _______ _____ _____    ______ ____
ROOT
ATOM      1  C   UNL     1      33.431 -21.739 -18.735  0.00  0.00    -0.024 C 
ATOM      2  C   UNL     1      34.779 -21.993 -18.482  0.00  0.00    -0.003 C 
ATOM      3  C   UNL     1      32.454 -22.233 -17.870  0.00  0.00    -0.003 C 
ATOM      4  C   UNL     1      34.173 -23.232 -16.498  0.00  0.00    +0.050 C 
ATOM      5  C   UNL     1      35.151 -22.740 -17.364  0.00  0.00    +0.014 C 
ATOM      6  C   UNL     1      32.825 -22.978 -16.751  0.00  0.00    +0.014 C 
ENDROOT
BRANCH   4   8
ATOM      7  O   UNL     1      35.751 -22.444 -14.057  0.00  0.00    -0.273 OA
ATOM      8  N   UNL     1      34.550 -23.989 -15.363  0.00  0.00    -0.283 N 
ATOM      9  C   UNL     1      35.284 -23.560 -14.267  0.00  0.00    +0.245 C 
ATOM     10  H   UNL     1      34.256 -24.929 -15.351  0.00  0.00    +0.155 HD
BRANCH   9  14
ATOM     11  O   UNL     1      36.233 -26.677 -15.316  0.00  0.00    -0.269 OA
ATOM     12  N   UNL     1      36.760 -25.267 -13.540  0.00  0.00    -0.237 N 
ATOM     13  N   UNL     1      38.970 -25.172 -12.649  0.00  0.00    -0.233 NA
ATOM     14  C   UNL     1      35.471 -24.667 -13.274  0.00  0.00    +0.158 C 
ATOM     15  C   UNL     1      35.610 -24.134 -11.855  0.00  0.00    +0.037 C 
ATOM     16  C   UNL     1      37.104 -23.836 -11.700  0.00  0.00    +0.064 C 
ATOM     17  C   UNL     1      37.729 -24.813 -12.649  0.00  0.00    +0.115 C 
ATOM     18  C   UNL     1      37.033 -26.204 -14.517  0.00  0.00    +0.256 C 
ATOM     19  C   UNL     1      38.460 -26.619 -14.525  0.00  0.00    +0.079 C 
ATOM     20  C   UNL     1      39.297 -26.088 -13.621  0.00  0.00    +0.105 C 
ENDBRANCH   9  14
ENDBRANCH   4   8
BRANCH   1  21
ATOM     21  C   UNL     1      33.033 -20.944 -19.932  0.00  0.00    +0.005 C 
BRANCH  21  24
ATOM     22  N   UNL     1      34.140 -19.035 -21.064  0.00  0.00    +0.388 N 
ATOM     23  C   UNL     1      35.503 -18.661 -21.468  0.00  0.00    -0.030 C 
ATOM     24  C   UNL     1      34.234 -20.464 -20.732  0.00  0.00    -0.057 C 
ATOM     25  C   UNL     1      36.431 -19.491 -20.581  0.00  0.00    -0.021 C 
ATOM     26  C   UNL     1      35.541 -20.559 -19.958  0.00  0.00    -0.023 C 
ATOM     27  H   UNL     1      33.484 -18.886 -21.830  0.00  0.00    -0.084 HD
ATOM     28  H   UNL     1      33.800 -18.477 -20.282  0.00  0.00    -0.084 HD
BRANCH  23  29
ATOM     29  C   UNL     1      35.739 -17.163 -21.337  0.00  0.00    +0.113 C 
BRANCH  29  30
ATOM     30  C   UNL     1      35.019 -16.375 -22.407  0.00  0.00    +0.002 C 
ATOM     31  C   UNL     1      34.554 -15.088 -22.133  0.00  0.00    -0.002 C 
ATOM     32  C   UNL     1      34.817 -16.935 -23.668  0.00  0.00    -0.002 C 
ATOM     33  C   UNL     1      33.889 -14.362 -23.120  0.00  0.00    -0.000 C 
ATOM     34  C   UNL     1      34.150 -16.210 -24.656  0.00  0.00    -0.000 C 
ATOM     35  C   UNL     1      33.687 -14.923 -24.382  0.00  0.00    -0.000 C 
ENDBRANCH  29  30
BRANCH  29  36
ATOM     36  O   UNL     1      35.300 -16.716 -20.054  0.00  0.00    -0.382 OA
ATOM     37  H   UNL     1      34.767 -15.913 -20.157  0.00  0.00    +0.211 HD
ENDBRANCH  29  36
ENDBRANCH  23  29
ENDBRANCH  21  24
ENDBRANCH   1  21
TORSDOF 7
ENDMDL
MODEL 7
REMARK VINA RESULT:     -10.8      2.387     11.455
REMARK  Name = 44472635
REMARK  7 active torsions:
REMARK  status: ('A' for Active; 'I' for Inactive)
REMARK    1  A    between atoms: C_1  and  C_21
REMARK    2  A    between atoms: C_4  and  N_8
REMARK    3  A    between atoms: C_9  and  C_14
REMARK    4  A    between atoms: C_21  and  C_24
REMARK    5  A    between atoms: C_23  and  C_29
REMARK    6  A    between atoms: C_29  and  C_30
REMARK    7  A    between atoms: C_29  and  O_36
REMARK                            x       y       z     vdW  Elec       q    Type
REMARK                         _______ _______ _______ _____ _____    ______ ____
ROOT
ATOM      1  C   UNL     1      33.463 -12.351 -24.102  0.00  0.00    -0.024 C 
ATOM      2  C   UNL     1      33.318 -13.204 -25.195  0.00  0.00    -0.003 C 
ATOM      3  C   UNL     1      34.014 -12.830 -22.912  0.00  0.00    -0.003 C 
ATOM      4  C   UNL     1      34.273 -15.014 -23.911  0.00  0.00    +0.050 C 
ATOM      5  C   UNL     1      33.722 -14.536 -25.100  0.00  0.00    +0.014 C 
ATOM      6  C   UNL     1      34.419 -14.160 -22.817  0.00  0.00    +0.014 C 
ENDROOT
BRANCH   4   8
ATOM      7  O   UNL     1      35.318 -16.575 -21.558  0.00  0.00    -0.273 OA
ATOM      8  N   UNL     1      34.684 -16.364 -23.814  0.00  0.00    -0.283 N 
ATOM      9  C   UNL     1      35.161 -17.024 -22.690  0.00  0.00    +0.245 C 
ATOM     10  H   UNL     1      34.625 -16.897 -24.641  0.00  0.00    +0.155 HD
BRANCH   9  14
ATOM     11  O   UNL     1      38.133 -18.373 -21.661  0.00  0.00    -0.269 OA
ATOM     12  N   UNL     1      35.916 -19.072 -21.763  0.00  0.00    -0.237 N 
ATOM     13  N   UNL     1      34.984 -20.484 -20.083  0.00  0.00    -0.233 NA
ATOM     14  C   UNL     1      35.490 -18.453 -23.000  0.00  0.00    +0.158 C 
ATOM     15  C   UNL     1      34.249 -19.245 -23.388  0.00  0.00    +0.037 C 
ATOM     16  C   UNL     1      33.675 -19.738 -22.057  0.00  0.00    +0.064 C 
ATOM     17  C   UNL     1      34.894 -19.825 -21.191  0.00  0.00    +0.115 C 
ATOM     18  C   UNL     1      37.176 -18.986 -21.205  0.00  0.00    +0.256 C 
ATOM     19  C   UNL     1      37.285 -19.740 -19.929  0.00  0.00    +0.079 C 
ATOM     20  C   UNL     1      36.215 -20.410 -19.475  0.00  0.00    +0.105 C 
ENDBRANCH   9  14
ENDBRANCH   4   8
BRANCH   1  21
ATOM     21  C   UNL     1      33.029 -10.928 -24.202  0.00  0.00    +0.005 C 
BRANCH  21  24
ATOM     22  N   UNL     1      33.371  -8.770 -23.030  0.00  0.00    +0.388 N 
ATOM     23  C   UNL     1      33.023  -8.180 -21.728  0.00  0.00    -0.030 C 
ATOM     24  C   UNL     1      33.101 -10.206 -22.866  0.00  0.00    -0.057 C 
ATOM     25  C   UNL     1      31.830  -8.990 -21.222  0.00  0.00    -0.021 C 
ATOM     26  C   UNL     1      31.783 -10.230 -22.105  0.00  0.00    -0.023 C 
ATOM     27  H   UNL     1      34.355  -8.612 -23.246  0.00  0.00    -0.084 HD
ATOM     28  H   UNL     1      32.839  -8.360 -23.796  0.00  0.00    -0.084 HD
BRANCH  23  29
ATOM     29  C   UNL     1      32.725  -6.692 -21.845  0.00  0.00    +0.113 C 
BRANCH  29  30
ATOM     30  C   UNL     1      33.142  -6.129 -23.185  0.00  0.00    +0.002 C 
ATOM     31  C   UNL     1      34.490  -6.101 -23.542  0.00  0.00    -0.002 C 
ATOM     32  C   UNL     1      32.177  -5.637 -24.065  0.00  0.00    -0.002 C 
ATOM     33  C   UNL     1      34.874  -5.582 -24.777  0.00  0.00    -0.000 C 
ATOM     34  C   UNL     1      32.561  -5.117 -25.301  0.00  0.00    -0.000 C 
ATOM     35  C   UNL     1      33.910  -5.090 -25.657  0.00  0.00    -0.000 C 
ENDBRANCH  29  30
BRANCH  29  36
ATOM     36  O   UNL     1      31.328  -6.464 -21.659  0.00  0.00    -0.382 OA
ATOM     37  H   UNL     1      30.961  -6.043 -22.451  0.00  0.00    +0.211 HD
ENDBRANCH  29  36
ENDBRANCH  23  29
ENDBRANCH  21  24
ENDBRANCH   1  21
TORSDOF 7
ENDMDL
MODEL 8
REMARK VINA RESULT:     -10.7      2.608     11.840
REMARK  Name = 44472635
REMARK  7 active torsions:
REMARK  status: ('A' for Active; 'I' for Inactive)
REMARK    1  A    between atoms: C_1  and  C_21
REMARK    2  A    between atoms: C_4  and  N_8
REMARK    3  A    between atoms: C_9  and  C_14
REMARK    4  A    between atoms: C_21  and  C_24
REMARK    5  A    between atoms: C_23  and  C_29
REMARK    6  A    between atoms: C_29  and  C_30
REMARK    7  A    between atoms: C_29  and  O_36
REMARK                            x       y       z     vdW  Elec       q    Type
REMARK                         _______ _______ _______ _____ _____    ______ ____
ROOT
ATOM      1  C   UNL     1      32.930 -12.529 -22.188  0.00  0.00    -0.024 C 
ATOM      2  C   UNL     1      33.473 -13.145 -21.060  0.00  0.00    -0.003 C 
ATOM      3  C   UNL     1      33.039 -13.141 -23.436  0.00  0.00    -0.003 C 
ATOM      4  C   UNL     1      34.230 -14.986 -22.430  0.00  0.00    +0.050 C 
ATOM      5  C   UNL     1      34.124 -14.373 -21.181  0.00  0.00    +0.014 C 
ATOM      6  C   UNL     1      33.687 -14.369 -23.558  0.00  0.00    +0.014 C 
ENDROOT
BRANCH   4   8
ATOM      7  O   UNL     1      35.356 -16.819 -20.323  0.00  0.00    -0.273 OA
ATOM      8  N   UNL     1      34.889 -16.232 -22.553  0.00  0.00    -0.283 N 
ATOM      9  C   UNL     1      35.388 -17.029 -21.532  0.00  0.00    +0.245 C 
ATOM     10  H   UNL     1      35.008 -16.572 -23.470  0.00  0.00    +0.155 HD
BRANCH   9  14
ATOM     11  O   UNL     1      37.883 -18.602 -19.796  0.00  0.00    -0.269 OA
ATOM     12  N   UNL     1      36.010 -19.257 -21.014  0.00  0.00    -0.237 N 
ATOM     13  N   UNL     1      34.713 -21.151 -20.367  0.00  0.00    -0.233 NA
ATOM     14  C   UNL     1      36.017 -18.275 -22.077  0.00  0.00    +0.158 C 
ATOM     15  C   UNL     1      35.158 -18.913 -23.159  0.00  0.00    +0.037 C 
ATOM     16  C   UNL     1      34.187 -19.819 -22.397  0.00  0.00    +0.064 C 
ATOM     17  C   UNL     1      34.968 -20.168 -21.166  0.00  0.00    +0.115 C 
ATOM     18  C   UNL     1      36.924 -19.342 -19.982  0.00  0.00    +0.256 C 
ATOM     19  C   UNL     1      36.634 -20.468 -19.057  0.00  0.00    +0.079 C 
ATOM     20  C   UNL     1      35.582 -21.263 -19.308  0.00  0.00    +0.105 C 
ENDBRANCH   9  14
ENDBRANCH   4   8
BRANCH   1  21
ATOM     21  C   UNL     1      32.238 -11.215 -22.059  0.00  0.00    +0.005 C 
BRANCH  21  24
ATOM     22  N   UNL     1      32.590  -8.829 -22.634  0.00  0.00    +0.388 N 
ATOM     23  C   UNL     1      33.410  -8.054 -23.578  0.00  0.00    -0.030 C 
ATOM     24  C   UNL     1      32.693 -10.216 -23.110  0.00  0.00    -0.057 C 
ATOM     25  C   UNL     1      34.576  -8.971 -23.950  0.00  0.00    -0.021 C 
ATOM     26  C   UNL     1      34.166 -10.357 -23.466  0.00  0.00    -0.023 C 
ATOM     27  H   UNL     1      31.622  -8.512 -22.655  0.00  0.00    -0.084 HD
ATOM     28  H   UNL     1      32.906  -8.725 -21.671  0.00  0.00    -0.084 HD
BRANCH  23  29
ATOM     29  C   UNL     1      33.864  -6.731 -22.977  0.00  0.00    +0.113 C 
BRANCH  29  30
ATOM     30  C   UNL     1      33.865  -5.612 -23.994  0.00  0.00    +0.002 C 
ATOM     31  C   UNL     1      32.853  -4.653 -23.978  0.00  0.00    -0.002 C 
ATOM     32  C   UNL     1      34.878  -5.541 -24.951  0.00  0.00    -0.002 C 
ATOM     33  C   UNL     1      32.854  -3.622 -24.916  0.00  0.00    -0.000 C 
ATOM     34  C   UNL     1      34.879  -4.510 -25.891  0.00  0.00    -0.000 C 
ATOM     35  C   UNL     1      33.867  -3.550 -25.873  0.00  0.00    -0.000 C 
ENDBRANCH  29  30
BRANCH  29  36
ATOM     36  O   UNL     1      33.006  -6.375 -21.894  0.00  0.00    -0.382 OA
ATOM     37  H   UNL     1      33.233  -5.485 -21.581  0.00  0.00    +0.211 HD
ENDBRANCH  29  36
ENDBRANCH  23  29
ENDBRANCH  21  24
ENDBRANCH   1  21
TORSDOF 7
ENDMDL
MODEL 9
REMARK VINA RESULT:     -10.7      5.255     13.133
REMARK  Name = 44472635
REMARK  7 active torsions:
REMARK  status: ('A' for Active; 'I' for Inactive)
REMARK    1  A    between atoms: C_1  and  C_21
REMARK    2  A    between atoms: C_4  and  N_8
REMARK    3  A    between atoms: C_9  and  C_14
REMARK    4  A    between atoms: C_21  and  C_24
REMARK    5  A    between atoms: C_23  and  C_29
REMARK    6  A    between atoms: C_29  and  C_30
REMARK    7  A    between atoms: C_29  and  O_36
REMARK                            x       y       z     vdW  Elec       q    Type
REMARK                         _______ _______ _______ _____ _____    ______ ____
ROOT
ATOM      1  C   UNL     1      34.947 -22.176 -17.517  0.00  0.00    -0.024 C 
ATOM      2  C   UNL     1      36.295 -21.858 -17.349  0.00  0.00    -0.003 C 
ATOM      3  C   UNL     1      34.323 -23.056 -16.633  0.00  0.00    -0.003 C 
ATOM      4  C   UNL     1      36.394 -23.301 -15.413  0.00  0.00    +0.050 C 
ATOM      5  C   UNL     1      37.019 -22.421 -16.298  0.00  0.00    +0.014 C 
ATOM      6  C   UNL     1      35.046 -23.618 -15.581  0.00  0.00    +0.014 C 
ENDROOT
BRANCH   4   8
ATOM      7  O   UNL     1      39.302 -24.056 -15.224  0.00  0.00    -0.273 OA
ATOM      8  N   UNL     1      37.128 -23.871 -14.346  0.00  0.00    -0.283 N 
ATOM      9  C   UNL     1      38.476 -24.198 -14.328  0.00  0.00    +0.245 C 
ATOM     10  H   UNL     1      36.622 -24.058 -13.522  0.00  0.00    +0.155 HD
BRANCH   9  14
ATOM     11  O   UNL     1      38.365 -22.286 -11.491  0.00  0.00    -0.269 OA
ATOM     12  N   UNL     1      37.816 -24.473 -12.067  0.00  0.00    -0.237 N 
ATOM     13  N   UNL     1      35.941 -25.577 -11.091  0.00  0.00    -0.233 NA
ATOM     14  C   UNL     1      38.873 -24.783 -13.006  0.00  0.00    +0.158 C 
ATOM     15  C   UNL     1      38.883 -26.304 -13.044  0.00  0.00    +0.037 C 
ATOM     16  C   UNL     1      37.444 -26.708 -12.713  0.00  0.00    +0.064 C 
ATOM     17  C   UNL     1      36.972 -25.562 -11.870  0.00  0.00    +0.115 C 
ATOM     18  C   UNL     1      37.651 -23.277 -11.398  0.00  0.00    +0.256 C 
ATOM     19  C   UNL     1      36.464 -23.285 -10.503  0.00  0.00    +0.079 C 
ATOM     20  C   UNL     1      35.719 -24.398 -10.419  0.00  0.00    +0.105 C 
ENDBRANCH   9  14
ENDBRANCH   4   8
BRANCH   1  21
ATOM     21  C   UNL     1      34.173 -21.576 -18.642  0.00  0.00    +0.005 C 
BRANCH  21  24
ATOM     22  N   UNL     1      34.728 -19.757 -20.232  0.00  0.00    +0.388 N 
ATOM     23  C   UNL     1      35.893 -19.326 -21.019  0.00  0.00    -0.030 C 
ATOM     24  C   UNL     1      35.071 -21.112 -19.777  0.00  0.00    -0.057 C 
ATOM     25  C   UNL     1      37.105 -19.941 -20.318  0.00  0.00    -0.021 C 
ATOM     26  C   UNL     1      36.531 -20.985 -19.367  0.00  0.00    -0.023 C 
ATOM     27  H   UNL     1      33.889 -19.773 -20.811  0.00  0.00    -0.084 HD
ATOM     28  H   UNL     1      34.529 -19.126 -19.457  0.00  0.00    -0.084 HD
BRANCH  23  29
ATOM     29  C   UNL     1      35.975 -17.810 -21.124  0.00  0.00    +0.113 C 
BRANCH  29  30
ATOM     30  C   UNL     1      35.269 -17.284 -22.353  0.00  0.00    +0.002 C 
ATOM     31  C   UNL     1      34.900 -18.159 -23.375  0.00  0.00    -0.002 C 
ATOM     32  C   UNL     1      34.987 -15.922 -22.466  0.00  0.00    -0.002 C 
ATOM     33  C   UNL     1      34.249 -17.673 -24.508  0.00  0.00    -0.000 C 
ATOM     34  C   UNL     1      34.336 -15.435 -23.600  0.00  0.00    -0.000 C 
ATOM     35  C   UNL     1      33.967 -16.311 -24.621  0.00  0.00    -0.000 C 
ENDBRANCH  29  30
BRANCH  29  36
ATOM     36  O   UNL     1      35.395 -17.215 -19.963  0.00  0.00    -0.382 OA
ATOM     37  H   UNL     1      35.962 -16.491 -19.654  0.00  0.00    +0.211 HD
ENDBRANCH  29  36
ENDBRANCH  23  29
ENDBRANCH  21  24
ENDBRANCH   1  21
TORSDOF 7
ENDMDL
