MODEL 1
REMARK VINA RESULT:     -12.3      0.000      0.000
REMARK  Name = 5288710
REMARK  3 active torsions:
REMARK  status: ('A' for Active; 'I' for Inactive)
REMARK    1  A    between atoms: C_6  and  N_18
REMARK    2  A    between atoms: C_9  and  C_15
REMARK    3  A    between atoms: N_18  and  C_29
REMARK                            x       y       z     vdW  Elec       q    Type
REMARK                         _______ _______ _______ _____ _____    ______ ____
ROOT
ATOM      1  O   UNL     1      35.015 -23.912 -15.636  0.00  0.00    -0.270 OA
ATOM      2  N   UNL     1      33.064 -24.027 -14.309  0.00  0.00    -0.280 N 
ATOM      3  C   UNL     1      31.518 -23.175 -15.783  0.00  0.00    +0.019 C 
ATOM      4  C   UNL     1      32.829 -23.191 -16.426  0.00  0.00    +0.069 C 
ATOM      5  C   UNL     1      31.718 -23.694 -14.501  0.00  0.00    +0.051 C 
ATOM      6  C   UNL     1      33.157 -22.793 -17.658  0.00  0.00    +0.066 C 
ATOM      7  C   UNL     1      33.823 -23.748 -15.449  0.00  0.00    +0.251 C 
ATOM      8  C   UNL     1      30.261 -22.777 -16.196  0.00  0.00    +0.005 C 
ATOM      9  C   UNL     1      29.204 -22.910 -15.290  0.00  0.00    +0.036 C 
ATOM     10  C   UNL     1      30.689 -23.834 -13.591  0.00  0.00    +0.015 C 
ATOM     11  C   UNL     1      29.415 -23.433 -14.000  0.00  0.00    +0.004 C 
ATOM     12  H   UNL     1      33.428 -24.409 -13.478  0.00  0.00    +0.155 HD
ENDROOT
BRANCH   9  15
ATOM     13  O   UNL     1      27.727 -22.122 -16.976  0.00  0.00    -0.431 OA
ATOM     14  N   UNL     1      25.723 -21.949 -15.942  0.00  0.00    -0.203 NA
ATOM     15  C   UNL     1      27.875 -22.503 -15.682  0.00  0.00    +0.166 C 
ATOM     16  C   UNL     1      26.667 -22.401 -15.055  0.00  0.00    +0.140 C 
ATOM     17  C   UNL     1      26.405 -21.804 -17.055  0.00  0.00    +0.285 C 
ENDBRANCH   9  15
BRANCH   6  18
ATOM     18  N   UNL     1      34.376 -22.813 -18.238  0.00  0.00    -0.311 N 
ATOM     19  H   UNL     1      34.878 -23.655 -18.149  0.00  0.00    +0.152 HD
BRANCH  18  29
ATOM     20  S   UNL     1      35.598 -18.151 -22.231  0.00  0.00    -0.002 S 
ATOM     21  O   UNL     1      35.870 -18.668 -23.558  0.00  0.00    -0.172 OA
ATOM     22  O   UNL     1      35.334 -16.745 -22.003  0.00  0.00    -0.172 OA
ATOM     23  C   UNL     1      34.256 -19.098 -21.531  0.00  0.00    +0.177 C 
ATOM     24  C   UNL     1      36.933 -18.655 -21.156  0.00  0.00    +0.177 C 
ATOM     25  C   UNL     1      34.953 -19.992 -20.563  0.00  0.00    +0.000 C 
ATOM     26  C   UNL     1      36.321 -19.766 -20.371  0.00  0.00    -0.001 C 
ATOM     27  C   UNL     1      34.303 -21.001 -19.855  0.00  0.00    +0.012 C 
ATOM     28  C   UNL     1      37.042 -20.548 -19.472  0.00  0.00    -0.002 C 
ATOM     29  C   UNL     1      35.026 -21.787 -18.957  0.00  0.00    +0.048 C 
ATOM     30  C   UNL     1      36.391 -21.561 -18.766  0.00  0.00    +0.014 C 
ENDBRANCH  18  29
ENDBRANCH   6  18
TORSDOF 3
ENDMDL
MODEL 2
REMARK VINA RESULT:     -12.1      3.511      8.944
REMARK  Name = 5288710
REMARK  3 active torsions:
REMARK  status: ('A' for Active; 'I' for Inactive)
REMARK    1  A    between atoms: C_6  and  N_18
REMARK    2  A    between atoms: C_9  and  C_15
REMARK    3  A    between atoms: N_18  and  C_29
REMARK                            x       y       z     vdW  Elec       q    Type
REMARK                         _______ _______ _______ _____ _____    ______ ____
ROOT
ATOM      1  O   UNL     1      36.312 -22.368 -17.514  0.00  0.00    -0.270 OA
ATOM      2  N   UNL     1      37.157 -20.606 -18.843  0.00  0.00    -0.280 N 
ATOM      3  C   UNL     1      35.409 -20.332 -20.313  0.00  0.00    +0.019 C 
ATOM      4  C   UNL     1      35.081 -21.405 -19.380  0.00  0.00    +0.069 C 
ATOM      5  C   UNL     1      36.680 -19.883 -19.942  0.00  0.00    +0.051 C 
ATOM      6  C   UNL     1      33.974 -22.150 -19.324  0.00  0.00    +0.066 C 
ATOM      7  C   UNL     1      36.231 -21.570 -18.430  0.00  0.00    +0.251 C 
ATOM      8  C   UNL     1      34.741 -19.759 -21.378  0.00  0.00    +0.005 C 
ATOM      9  C   UNL     1      35.377 -18.721 -22.067  0.00  0.00    +0.036 C 
ATOM     10  C   UNL     1      37.326 -18.859 -20.607  0.00  0.00    +0.015 C 
ATOM     11  C   UNL     1      36.657 -18.275 -21.685  0.00  0.00    +0.004 C 
ATOM     12  H   UNL     1      38.031 -20.456 -18.416  0.00  0.00    +0.155 HD
ENDROOT
BRANCH   9  15
ATOM     13  O   UNL     1      34.869 -16.753 -23.296  0.00  0.00    -0.431 OA
ATOM     14  N   UNL     1      33.572 -17.469 -25.006  0.00  0.00    -0.203 NA
ATOM     15  C   UNL     1      34.713 -18.097 -23.186  0.00  0.00    +0.166 C 
ATOM     16  C   UNL     1      33.931 -18.532 -24.217  0.00  0.00    +0.140 C 
ATOM     17  C   UNL     1      34.154 -16.450 -24.415  0.00  0.00    +0.285 C 
ENDBRANCH   9  15
BRANCH   6  18
ATOM     18  N   UNL     1      33.684 -23.141 -18.454  0.00  0.00    -0.311 N 
ATOM     19  H   UNL     1      34.087 -24.016 -18.653  0.00  0.00    +0.152 HD
BRANCH  18  29
ATOM     20  S   UNL     1      31.596 -23.737 -12.584  0.00  0.00    -0.002 S 
ATOM     21  O   UNL     1      31.100 -25.079 -12.348  0.00  0.00    -0.172 OA
ATOM     22  O   UNL     1      31.853 -22.819 -11.492  0.00  0.00    -0.172 OA
ATOM     23  C   UNL     1      33.074 -23.859 -13.578  0.00  0.00    +0.177 C 
ATOM     24  C   UNL     1      30.501 -22.938 -13.746  0.00  0.00    +0.177 C 
ATOM     25  C   UNL     1      32.597 -23.449 -14.929  0.00  0.00    +0.000 C 
ATOM     26  C   UNL     1      31.282 -22.978 -15.016  0.00  0.00    -0.001 C 
ATOM     27  C   UNL     1      33.399 -23.502 -16.068  0.00  0.00    +0.012 C 
ATOM     28  C   UNL     1      30.765 -22.560 -16.240  0.00  0.00    -0.002 C 
ATOM     29  C   UNL     1      32.880 -23.087 -17.295  0.00  0.00    +0.048 C 
ATOM     30  C   UNL     1      31.567 -22.617 -17.381  0.00  0.00    +0.014 C 
ENDBRANCH  18  29
ENDBRANCH   6  18
TORSDOF 3
ENDMDL
MODEL 3
REMARK VINA RESULT:     -11.5      3.268      8.664
REMARK  Name = 5288710
REMARK  3 active torsions:
REMARK  status: ('A' for Active; 'I' for Inactive)
REMARK    1  A    between atoms: C_6  and  N_18
REMARK    2  A    between atoms: C_9  and  C_15
REMARK    3  A    between atoms: N_18  and  C_29
REMARK                            x       y       z     vdW  Elec       q    Type
REMARK                         _______ _______ _______ _____ _____    ______ ____
ROOT
ATOM      1  O   UNL     1      36.907 -21.975 -17.324  0.00  0.00    -0.270 OA
ATOM      2  N   UNL     1      37.457 -20.241 -18.831  0.00  0.00    -0.280 N 
ATOM      3  C   UNL     1      35.631 -20.320 -20.227  0.00  0.00    +0.019 C 
ATOM      4  C   UNL     1      35.484 -21.341 -19.195  0.00  0.00    +0.069 C 
ATOM      5  C   UNL     1      36.845 -19.681 -19.958  0.00  0.00    +0.051 C 
ATOM      6  C   UNL     1      34.488 -22.215 -19.023  0.00  0.00    +0.066 C 
ATOM      7  C   UNL     1      36.684 -21.275 -18.295  0.00  0.00    +0.251 C 
ATOM      8  C   UNL     1      34.850 -19.930 -21.299  0.00  0.00    +0.005 C 
ATOM      9  C   UNL     1      35.316 -18.883 -22.100  0.00  0.00    +0.036 C 
ATOM     10  C   UNL     1      37.324 -18.645 -20.736  0.00  0.00    +0.015 C 
ATOM     11  C   UNL     1      36.541 -18.246 -21.821  0.00  0.00    +0.004 C 
ATOM     12  H   UNL     1      38.321 -19.944 -18.463  0.00  0.00    +0.155 HD
ENDROOT
BRANCH   9  15
ATOM     13  O   UNL     1      33.604 -19.329 -23.685  0.00  0.00    -0.431 OA
ATOM     14  N   UNL     1      33.509 -17.463 -24.960  0.00  0.00    -0.203 NA
ATOM     15  C   UNL     1      34.531 -18.448 -23.230  0.00  0.00    +0.166 C 
ATOM     16  C   UNL     1      34.476 -17.321 -23.997  0.00  0.00    +0.140 C 
ATOM     17  C   UNL     1      33.031 -18.664 -24.726  0.00  0.00    +0.285 C 
ENDBRANCH   9  15
BRANCH   6  18
ATOM     18  N   UNL     1      34.367 -23.155 -18.062  0.00  0.00    -0.311 N 
ATOM     19  H   UNL     1      34.995 -23.911 -18.123  0.00  0.00    +0.152 HD
BRANCH  18  29
ATOM     20  S   UNL     1      29.125 -23.113 -14.642  0.00  0.00    -0.002 S 
ATOM     21  O   UNL     1      28.671 -21.754 -14.414  0.00  0.00    -0.172 OA
ATOM     22  O   UNL     1      28.271 -24.253 -14.381  0.00  0.00    -0.172 OA
ATOM     23  C   UNL     1      29.716 -23.224 -16.324  0.00  0.00    +0.177 C 
ATOM     24  C   UNL     1      30.658 -23.340 -13.755  0.00  0.00    +0.177 C 
ATOM     25  C   UNL     1      31.197 -23.223 -16.154  0.00  0.00    +0.000 C 
ATOM     26  C   UNL     1      31.679 -23.283 -14.841  0.00  0.00    -0.001 C 
ATOM     27  C   UNL     1      32.086 -23.183 -17.226  0.00  0.00    +0.012 C 
ATOM     28  C   UNL     1      33.051 -23.302 -14.598  0.00  0.00    -0.002 C 
ATOM     29  C   UNL     1      33.459 -23.199 -16.982  0.00  0.00    +0.048 C 
ATOM     30  C   UNL     1      33.940 -23.258 -15.672  0.00  0.00    +0.014 C 
ENDBRANCH  18  29
ENDBRANCH   6  18
TORSDOF 3
ENDMDL
MODEL 4
REMARK VINA RESULT:     -11.1      3.635      7.018
REMARK  Name = 5288710
REMARK  3 active torsions:
REMARK  status: ('A' for Active; 'I' for Inactive)
REMARK    1  A    between atoms: C_6  and  N_18
REMARK    2  A    between atoms: C_9  and  C_15
REMARK    3  A    between atoms: N_18  and  C_29
REMARK                            x       y       z     vdW  Elec       q    Type
REMARK                         _______ _______ _______ _____ _____    ______ ____
ROOT
ATOM      1  O   UNL     1      32.549 -22.971 -14.587  0.00  0.00    -0.270 OA
ATOM      2  N   UNL     1      34.029 -23.903 -12.999  0.00  0.00    -0.280 N 
ATOM      3  C   UNL     1      35.752 -24.549 -14.379  0.00  0.00    +0.019 C 
ATOM      4  C   UNL     1      34.704 -23.933 -15.185  0.00  0.00    +0.069 C 
ATOM      5  C   UNL     1      35.291 -24.504 -13.060  0.00  0.00    +0.051 C 
ATOM      6  C   UNL     1      34.674 -23.741 -16.507  0.00  0.00    +0.066 C 
ATOM      7  C   UNL     1      33.589 -23.519 -14.269  0.00  0.00    +0.251 C 
ATOM      8  C   UNL     1      36.983 -25.102 -14.679  0.00  0.00    +0.005 C 
ATOM      9  C   UNL     1      37.744 -25.613 -13.622  0.00  0.00    +0.036 C 
ATOM     10  C   UNL     1      36.027 -25.002 -12.002  0.00  0.00    +0.015 C 
ATOM     11  C   UNL     1      37.272 -25.564 -12.297  0.00  0.00    +0.004 C 
ATOM     12  H   UNL     1      33.518 -23.768 -12.169  0.00  0.00    +0.155 HD
ENDROOT
BRANCH   9  15
ATOM     13  O   UNL     1      39.056 -27.180 -14.834  0.00  0.00    -0.431 OA
ATOM     14  N   UNL     1      41.161 -26.877 -14.063  0.00  0.00    -0.203 NA
ATOM     15  C   UNL     1      39.034 -26.201 -13.894  0.00  0.00    +0.166 C 
ATOM     16  C   UNL     1      40.303 -26.016 -13.427  0.00  0.00    +0.140 C 
ATOM     17  C   UNL     1      40.369 -27.536 -14.879  0.00  0.00    +0.285 C 
ENDBRANCH   9  15
BRANCH   6  18
ATOM     18  N   UNL     1      33.696 -23.168 -17.240  0.00  0.00    -0.311 N 
ATOM     19  H   UNL     1      32.780 -23.469 -17.038  0.00  0.00    +0.152 HD
BRANCH  18  29
ATOM     20  S   UNL     1      35.969 -18.881 -21.192  0.00  0.00    -0.002 S 
ATOM     21  O   UNL     1      36.097 -17.594 -20.537  0.00  0.00    -0.172 OA
ATOM     22  O   UNL     1      36.602 -19.150 -22.467  0.00  0.00    -0.172 OA
ATOM     23  C   UNL     1      36.471 -20.144 -20.035  0.00  0.00    +0.177 C 
ATOM     24  C   UNL     1      34.229 -19.259 -21.335  0.00  0.00    +0.177 C 
ATOM     25  C   UNL     1      35.171 -20.728 -19.599  0.00  0.00    +0.000 C 
ATOM     26  C   UNL     1      34.024 -20.276 -20.264  0.00  0.00    -0.001 C 
ATOM     27  C   UNL     1      35.066 -21.690 -18.597  0.00  0.00    +0.012 C 
ATOM     28  C   UNL     1      32.772 -20.784 -19.927  0.00  0.00    -0.002 C 
ATOM     29  C   UNL     1      33.811 -22.196 -18.256  0.00  0.00    +0.048 C 
ATOM     30  C   UNL     1      32.667 -21.744 -18.920  0.00  0.00    +0.014 C 
ENDBRANCH  18  29
ENDBRANCH   6  18
TORSDOF 3
ENDMDL
MODEL 5
REMARK VINA RESULT:     -10.9      3.390      5.746
REMARK  Name = 5288710
REMARK  3 active torsions:
REMARK  status: ('A' for Active; 'I' for Inactive)
REMARK    1  A    between atoms: C_6  and  N_18
REMARK    2  A    between atoms: C_9  and  C_15
REMARK    3  A    between atoms: N_18  and  C_29
REMARK                            x       y       z     vdW  Elec       q    Type
REMARK                         _______ _______ _______ _____ _____    ______ ____
ROOT
ATOM      1  O   UNL     1      32.631 -21.699 -20.041  0.00  0.00    -0.270 OA
ATOM      2  N   UNL     1      32.406 -22.486 -17.826  0.00  0.00    -0.280 N 
ATOM      3  C   UNL     1      34.615 -22.550 -17.189  0.00  0.00    +0.019 C 
ATOM      4  C   UNL     1      34.531 -22.077 -18.567  0.00  0.00    +0.069 C 
ATOM      5  C   UNL     1      33.296 -22.783 -16.788  0.00  0.00    +0.051 C 
ATOM      6  C   UNL     1      35.524 -21.722 -19.387  0.00  0.00    +0.066 C 
ATOM      7  C   UNL     1      33.084 -22.043 -18.965  0.00  0.00    +0.251 C 
ATOM      8  C   UNL     1      35.667 -22.775 -16.322  0.00  0.00    +0.005 C 
ATOM      9  C   UNL     1      35.368 -23.243 -15.039  0.00  0.00    +0.036 C 
ATOM     10  C   UNL     1      32.978 -23.244 -15.525  0.00  0.00    +0.015 C 
ATOM     11  C   UNL     1      34.036 -23.475 -14.643  0.00  0.00    +0.004 C 
ATOM     12  H   UNL     1      31.428 -22.579 -17.761  0.00  0.00    +0.155 HD
ENDROOT
BRANCH   9  15
ATOM     13  O   UNL     1      36.188 -23.162 -12.811  0.00  0.00    -0.431 OA
ATOM     14  N   UNL     1      38.283 -24.006 -12.945  0.00  0.00    -0.203 NA
ATOM     15  C   UNL     1      36.439 -23.492 -14.104  0.00  0.00    +0.166 C 
ATOM     16  C   UNL     1      37.702 -24.002 -14.187  0.00  0.00    +0.140 C 
ATOM     17  C   UNL     1      37.345 -23.502 -12.177  0.00  0.00    +0.285 C 
ENDBRANCH   9  15
BRANCH   6  18
ATOM     18  N   UNL     1      35.431 -21.286 -20.662  0.00  0.00    -0.311 N 
ATOM     19  H   UNL     1      35.416 -21.987 -21.353  0.00  0.00    +0.152 HD
BRANCH  18  29
ATOM     20  S   UNL     1      34.416 -16.262 -24.253  0.00  0.00    -0.002 S 
ATOM     21  O   UNL     1      35.495 -16.083 -25.205  0.00  0.00    -0.172 OA
ATOM     22  O   UNL     1      33.160 -15.552 -24.387  0.00  0.00    -0.172 OA
ATOM     23  C   UNL     1      34.066 -18.009 -24.134  0.00  0.00    +0.177 C 
ATOM     24  C   UNL     1      35.063 -15.959 -22.617  0.00  0.00    +0.177 C 
ATOM     25  C   UNL     1      34.689 -18.382 -22.832  0.00  0.00    +0.000 C 
ATOM     26  C   UNL     1      35.199 -17.334 -22.056  0.00  0.00    -0.001 C 
ATOM     27  C   UNL     1      34.762 -19.695 -22.372  0.00  0.00    +0.012 C 
ATOM     28  C   UNL     1      35.782 -17.597 -20.819  0.00  0.00    -0.002 C 
ATOM     29  C   UNL     1      35.350 -19.959 -21.134  0.00  0.00    +0.048 C 
ATOM     30  C   UNL     1      35.859 -18.913 -20.360  0.00  0.00    +0.014 C 
ENDBRANCH  18  29
ENDBRANCH   6  18
TORSDOF 3
ENDMDL
MODEL 6
REMARK VINA RESULT:     -10.5      2.600      5.298
REMARK  Name = 5288710
REMARK  3 active torsions:
REMARK  status: ('A' for Active; 'I' for Inactive)
REMARK    1  A    between atoms: C_6  and  N_18
REMARK    2  A    between atoms: C_9  and  C_15
REMARK    3  A    between atoms: N_18  and  C_29
REMARK                            x       y       z     vdW  Elec       q    Type
REMARK                         _______ _______ _______ _____ _____    ______ ____
ROOT
ATOM      1  O   UNL     1      31.587 -22.544 -17.539  0.00  0.00    -0.270 OA
ATOM      2  N   UNL     1      31.568 -23.189 -15.266  0.00  0.00    -0.280 N 
ATOM      3  C   UNL     1      33.813 -23.563 -14.931  0.00  0.00    +0.019 C 
ATOM      4  C   UNL     1      33.603 -23.144 -16.313  0.00  0.00    +0.069 C 
ATOM      5  C   UNL     1      32.546 -23.574 -14.341  0.00  0.00    +0.051 C 
ATOM      6  C   UNL     1      34.509 -22.982 -17.281  0.00  0.00    +0.066 C 
ATOM      7  C   UNL     1      32.134 -22.905 -16.513  0.00  0.00    +0.251 C 
ATOM      8  C   UNL     1      34.934 -23.909 -14.201  0.00  0.00    +0.005 C 
ATOM      9  C   UNL     1      34.756 -24.268 -12.861  0.00  0.00    +0.036 C 
ATOM     10  C   UNL     1      32.347 -23.924 -13.020  0.00  0.00    +0.015 C 
ATOM     11  C   UNL     1      33.476 -24.276 -12.276  0.00  0.00    +0.004 C 
ATOM     12  H   UNL     1      30.607 -23.127 -15.065  0.00  0.00    +0.155 HD
ENDROOT
BRANCH   9  15
ATOM     13  O   UNL     1      36.717 -25.584 -12.598  0.00  0.00    -0.431 OA
ATOM     14  N   UNL     1      37.554 -24.964 -10.591  0.00  0.00    -0.203 NA
ATOM     15  C   UNL     1      35.902 -24.638 -12.065  0.00  0.00    +0.166 C 
ATOM     16  C   UNL     1      36.405 -24.261 -10.854  0.00  0.00    +0.140 C 
ATOM     17  C   UNL     1      37.686 -25.725 -11.653  0.00  0.00    +0.285 C 
ENDBRANCH   9  15
BRANCH   6  18
ATOM     18  N   UNL     1      34.299 -22.593 -18.557  0.00  0.00    -0.311 N 
ATOM     19  H   UNL     1      33.616 -23.101 -19.051  0.00  0.00    +0.152 HD
BRANCH  18  29
ATOM     20  S   UNL     1      35.394 -17.828 -22.464  0.00  0.00    -0.002 S 
ATOM     21  O   UNL     1      35.596 -18.308 -23.817  0.00  0.00    -0.172 OA
ATOM     22  O   UNL     1      35.159 -16.426 -22.182  0.00  0.00    -0.172 OA
ATOM     23  C   UNL     1      34.073 -18.779 -21.729  0.00  0.00    +0.177 C 
ATOM     24  C   UNL     1      36.771 -18.380 -21.469  0.00  0.00    +0.177 C 
ATOM     25  C   UNL     1      34.803 -19.711 -20.822  0.00  0.00    +0.000 C 
ATOM     26  C   UNL     1      36.182 -19.507 -20.689  0.00  0.00    -0.001 C 
ATOM     27  C   UNL     1      34.174 -20.733 -20.114  0.00  0.00    +0.012 C 
ATOM     28  C   UNL     1      36.934 -20.324 -19.848  0.00  0.00    -0.002 C 
ATOM     29  C   UNL     1      34.928 -21.554 -19.275  0.00  0.00    +0.048 C 
ATOM     30  C   UNL     1      36.304 -21.350 -19.142  0.00  0.00    +0.014 C 
ENDBRANCH  18  29
ENDBRANCH   6  18
TORSDOF 3
ENDMDL
MODEL 7
REMARK VINA RESULT:     -10.3      2.615      5.529
REMARK  Name = 5288710
REMARK  3 active torsions:
REMARK  status: ('A' for Active; 'I' for Inactive)
REMARK    1  A    between atoms: C_6  and  N_18
REMARK    2  A    between atoms: C_9  and  C_15
REMARK    3  A    between atoms: N_18  and  C_29
REMARK                            x       y       z     vdW  Elec       q    Type
REMARK                         _______ _______ _______ _____ _____    ______ ____
ROOT
ATOM      1  O   UNL     1      30.742 -22.667 -16.836  0.00  0.00    -0.270 OA
ATOM      2  N   UNL     1      31.065 -23.062 -14.530  0.00  0.00    -0.280 N 
ATOM      3  C   UNL     1      33.283 -23.671 -14.527  0.00  0.00    +0.019 C 
ATOM      4  C   UNL     1      32.873 -23.376 -15.896  0.00  0.00    +0.069 C 
ATOM      5  C   UNL     1      32.148 -23.464 -13.739  0.00  0.00    +0.051 C 
ATOM      6  C   UNL     1      33.603 -23.429 -17.014  0.00  0.00    +0.066 C 
ATOM      7  C   UNL     1      31.425 -22.982 -15.878  0.00  0.00    +0.251 C 
ATOM      8  C   UNL     1      34.476 -24.073 -13.956  0.00  0.00    +0.005 C 
ATOM      9  C   UNL     1      34.505 -24.265 -12.571  0.00  0.00    +0.036 C 
ATOM     10  C   UNL     1      32.154 -23.647 -12.370  0.00  0.00    +0.015 C 
ATOM     11  C   UNL     1      33.356 -24.054 -11.785  0.00  0.00    +0.004 C 
ATOM     12  H   UNL     1      30.166 -22.862 -14.181  0.00  0.00    +0.155 HD
ENDROOT
BRANCH   9  15
ATOM     13  O   UNL     1      36.453 -25.624 -12.602  0.00  0.00    -0.431 OA
ATOM     14  N   UNL     1      37.543 -25.100 -10.690  0.00  0.00    -0.203 NA
ATOM     15  C   UNL     1      35.731 -24.686 -11.937  0.00  0.00    +0.166 C 
ATOM     16  C   UNL     1      36.386 -24.368 -10.783  0.00  0.00    +0.140 C 
ATOM     17  C   UNL     1      37.527 -25.820 -11.788  0.00  0.00    +0.285 C 
ENDBRANCH   9  15
BRANCH   6  18
ATOM     18  N   UNL     1      33.208 -23.154 -18.276  0.00  0.00    -0.311 N 
ATOM     19  H   UNL     1      32.584 -23.800 -18.679  0.00  0.00    +0.152 HD
BRANCH  18  29
ATOM     20  S   UNL     1      36.468 -18.642 -21.138  0.00  0.00    -0.002 S 
ATOM     21  O   UNL     1      36.634 -17.496 -20.266  0.00  0.00    -0.172 OA
ATOM     22  O   UNL     1      37.247 -18.794 -22.350  0.00  0.00    -0.172 OA
ATOM     23  C   UNL     1      36.662 -20.120 -20.154  0.00  0.00    +0.177 C 
ATOM     24  C   UNL     1      34.737 -18.771 -21.560  0.00  0.00    +0.177 C 
ATOM     25  C   UNL     1      35.258 -20.593 -19.989  0.00  0.00    +0.000 C 
ATOM     26  C   UNL     1      34.274 -19.904 -20.708  0.00  0.00    -0.001 C 
ATOM     27  C   UNL     1      34.908 -21.674 -19.183  0.00  0.00    +0.012 C 
ATOM     28  C   UNL     1      32.939 -20.294 -20.622  0.00  0.00    -0.002 C 
ATOM     29  C   UNL     1      33.571 -22.062 -19.093  0.00  0.00    +0.048 C 
ATOM     30  C   UNL     1      32.589 -21.374 -19.810  0.00  0.00    +0.014 C 
ENDBRANCH  18  29
ENDBRANCH   6  18
TORSDOF 3
ENDMDL
MODEL 8
REMARK VINA RESULT:     -10.3     10.805     14.352
REMARK  Name = 5288710
REMARK  3 active torsions:
REMARK  status: ('A' for Active; 'I' for Inactive)
REMARK    1  A    between atoms: C_6  and  N_18
REMARK    2  A    between atoms: C_9  and  C_15
REMARK    3  A    between atoms: N_18  and  C_29
REMARK                            x       y       z     vdW  Elec       q    Type
REMARK                         _______ _______ _______ _____ _____    ______ ____
ROOT
ATOM      1  O   UNL     1      31.901 -10.333 -18.727  0.00  0.00    -0.270 OA
ATOM      2  N   UNL     1      32.166  -8.000 -18.993  0.00  0.00    -0.280 N 
ATOM      3  C   UNL     1      31.907  -7.818 -21.271  0.00  0.00    +0.019 C 
ATOM      4  C   UNL     1      31.776  -9.220 -20.889  0.00  0.00    +0.069 C 
ATOM      5  C   UNL     1      32.143  -7.122 -20.082  0.00  0.00    +0.051 C 
ATOM      6  C   UNL     1      31.546 -10.279 -21.671  0.00  0.00    +0.066 C 
ATOM      7  C   UNL     1      31.948  -9.320 -19.401  0.00  0.00    +0.251 C 
ATOM      8  C   UNL     1      31.841  -7.151 -22.479  0.00  0.00    +0.005 C 
ATOM      9  C   UNL     1      32.019  -5.764 -22.469  0.00  0.00    +0.036 C 
ATOM     10  C   UNL     1      32.320  -5.752 -20.049  0.00  0.00    +0.015 C 
ATOM     11  C   UNL     1      32.256  -5.071 -21.267  0.00  0.00    +0.004 C 
ATOM     12  H   UNL     1      32.317  -7.724 -18.060  0.00  0.00    +0.155 HD
ENDROOT
BRANCH   9  15
ATOM     13  O   UNL     1      31.127  -3.957 -23.728  0.00  0.00    -0.431 OA
ATOM     14  N   UNL     1      32.112  -4.135 -25.757  0.00  0.00    -0.203 NA
ATOM     15  C   UNL     1      31.959  -5.029 -23.711  0.00  0.00    +0.166 C 
ATOM     16  C   UNL     1      32.556  -5.139 -24.933  0.00  0.00    +0.140 C 
ATOM     17  C   UNL     1      31.275  -3.472 -24.992  0.00  0.00    +0.285 C 
ENDBRANCH   9  15
BRANCH   6  18
ATOM     18  N   UNL     1      31.427 -11.572 -21.302  0.00  0.00    -0.311 N 
ATOM     19  H   UNL     1      30.648 -11.786 -20.739  0.00  0.00    +0.152 HD
BRANCH  18  29
ATOM     20  S   UNL     1      34.481 -16.079 -24.388  0.00  0.00    -0.002 S 
ATOM     21  O   UNL     1      33.629 -17.236 -24.586  0.00  0.00    -0.172 OA
ATOM     22  O   UNL     1      35.727 -15.921 -25.111  0.00  0.00    -0.172 OA
ATOM     23  C   UNL     1      33.493 -14.613 -24.640  0.00  0.00    +0.177 C 
ATOM     24  C   UNL     1      34.821 -15.934 -22.641  0.00  0.00    +0.177 C 
ATOM     25  C   UNL     1      33.259 -14.131 -23.249  0.00  0.00    +0.000 C 
ATOM     26  C   UNL     1      33.938 -14.806 -22.227  0.00  0.00    -0.001 C 
ATOM     27  C   UNL     1      32.426 -13.056 -22.946  0.00  0.00    +0.012 C 
ATOM     28  C   UNL     1      33.785 -14.406 -20.901  0.00  0.00    -0.002 C 
ATOM     29  C   UNL     1      32.270 -12.658 -21.617  0.00  0.00    +0.048 C 
ATOM     30  C   UNL     1      32.948 -13.332 -20.598  0.00  0.00    +0.014 C 
ENDBRANCH  18  29
ENDBRANCH   6  18
TORSDOF 3
ENDMDL
MODEL 9
REMARK VINA RESULT:     -10.1      4.345      7.160
REMARK  Name = 5288710
REMARK  3 active torsions:
REMARK  status: ('A' for Active; 'I' for Inactive)
REMARK    1  A    between atoms: C_6  and  N_18
REMARK    2  A    between atoms: C_9  and  C_15
REMARK    3  A    between atoms: N_18  and  C_29
REMARK                            x       y       z     vdW  Elec       q    Type
REMARK                         _______ _______ _______ _____ _____    ______ ____
ROOT
ATOM      1  O   UNL     1      33.424 -19.392 -22.512  0.00  0.00    -0.270 OA
ATOM      2  N   UNL     1      32.931 -20.719 -20.620  0.00  0.00    -0.280 N 
ATOM      3  C   UNL     1      35.014 -20.839 -19.653  0.00  0.00    +0.019 C 
ATOM      4  C   UNL     1      35.102 -20.040 -20.871  0.00  0.00    +0.069 C 
ATOM      5  C   UNL     1      33.675 -21.225 -19.549  0.00  0.00    +0.051 C 
ATOM      6  C   UNL     1      36.174 -19.446 -21.403  0.00  0.00    +0.066 C 
ATOM      7  C   UNL     1      33.735 -19.973 -21.488  0.00  0.00    +0.251 C 
ATOM      8  C   UNL     1      35.938 -21.226 -18.700  0.00  0.00    +0.005 C 
ATOM      9  C   UNL     1      35.487 -22.013 -17.636  0.00  0.00    +0.036 C 
ATOM     10  C   UNL     1      33.209 -22.002 -18.506  0.00  0.00    +0.015 C 
ATOM     11  C   UNL     1      34.136 -22.398 -17.539  0.00  0.00    +0.004 C 
ATOM     12  H   UNL     1      31.967 -20.869 -20.747  0.00  0.00    +0.155 HD
ENDROOT
BRANCH   9  15
ATOM     13  O   UNL     1      36.030 -23.494 -15.860  0.00  0.00    -0.431 OA
ATOM     14  N   UNL     1      38.081 -22.831 -15.173  0.00  0.00    -0.203 NA
ATOM     15  C   UNL     1      36.420 -22.440 -16.621  0.00  0.00    +0.166 C 
ATOM     16  C   UNL     1      37.657 -22.038 -16.209  0.00  0.00    +0.140 C 
ATOM     17  C   UNL     1      37.082 -23.669 -15.013  0.00  0.00    +0.285 C 
ENDBRANCH   9  15
BRANCH   6  18
ATOM     18  N   UNL     1      36.239 -18.709 -22.532  0.00  0.00    -0.311 N 
ATOM     19  H   UNL     1      36.896 -19.010 -23.201  0.00  0.00    +0.152 HD
BRANCH  18  29
ATOM     20  S   UNL     1      33.320 -13.176 -22.339  0.00  0.00    -0.002 S 
ATOM     21  O   UNL     1      32.030 -13.298 -21.687  0.00  0.00    -0.172 OA
ATOM     22  O   UNL     1      33.929 -11.884 -22.583  0.00  0.00    -0.172 OA
ATOM     23  C   UNL     1      34.489 -14.191 -21.447  0.00  0.00    +0.177 C 
ATOM     24  C   UNL     1      33.246 -14.067 -23.885  0.00  0.00    +0.177 C 
ATOM     25  C   UNL     1      34.642 -15.377 -22.337  0.00  0.00    +0.000 C 
ATOM     26  C   UNL     1      34.007 -15.314 -23.583  0.00  0.00    -0.001 C 
ATOM     27  C   UNL     1      35.385 -16.501 -21.985  0.00  0.00    +0.012 C 
ATOM     28  C   UNL     1      34.114 -16.375 -24.480  0.00  0.00    -0.002 C 
ATOM     29  C   UNL     1      35.490 -17.565 -22.882  0.00  0.00    +0.048 C 
ATOM     30  C   UNL     1      34.856 -17.502 -24.125  0.00  0.00    +0.014 C 
ENDBRANCH  18  29
ENDBRANCH   6  18
TORSDOF 3
ENDMDL
