MODEL 1
REMARK VINA RESULT:     -11.4      0.000      0.000
REMARK  Name = 24880024
REMARK  5 active torsions:
REMARK  status: ('A' for Active; 'I' for Inactive)
REMARK    1  A    between atoms: N_5  and  C_12
REMARK    2  A    between atoms: C_6  and  C_22
REMARK    3  A    between atoms: C_13  and  C_21
REMARK    4  A    between atoms: C_22  and  C_23
REMARK    5  A    between atoms: C_23  and  N_25
REMARK                            x       y       z     vdW  Elec       q    Type
REMARK                         _______ _______ _______ _____ _____    ______ ____
ROOT
ATOM      1  S   UNL     1      36.677 -20.534 -19.456  0.00  0.00    -0.056 S 
ATOM      2  O   UNL     1      35.352 -23.409 -16.023  0.00  0.00    -0.252 OA
ATOM      3  N   UNL     1      34.665 -21.831 -18.480  0.00  0.00    -0.223 NA
ATOM      4  N   UNL     1      36.765 -22.051 -17.320  0.00  0.00    -0.248 N 
ATOM      5  N   UNL     1      37.606 -23.162 -15.447  0.00  0.00    -0.268 N 
ATOM      6  C   UNL     1      35.169 -20.401 -20.262  0.00  0.00    +0.031 C 
ATOM      7  C   UNL     1      34.223 -21.155 -19.599  0.00  0.00    +0.103 C 
ATOM      8  C   UNL     1      35.943 -21.578 -18.308  0.00  0.00    +0.166 C 
ATOM      9  C   UNL     1      36.463 -22.931 -16.230  0.00  0.00    +0.310 C 
ATOM     10  H   UNL     1      37.699 -21.743 -17.365  0.00  0.00    +0.158 HD
ATOM     11  H   UNL     1      38.429 -22.708 -15.738  0.00  0.00    +0.156 HD
ENDROOT
BRANCH   5  12
ATOM     12  C   UNL     1      37.719 -23.969 -14.290  0.00  0.00    +0.052 C 
ATOM     13  C   UNL     1      37.009 -24.527 -12.049  0.00  0.00    +0.073 C 
ATOM     14  C   UNL     1      36.897 -23.731 -13.189  0.00  0.00    +0.019 C 
ATOM     15  C   UNL     1      38.653 -25.004 -14.251  0.00  0.00    +0.015 C 
ATOM     16  C   UNL     1      37.943 -25.562 -12.011  0.00  0.00    +0.004 C 
ATOM     17  C   UNL     1      38.765 -25.801 -13.112  0.00  0.00    +0.001 C 
BRANCH  13  21
ATOM     18  F   UNL     1      35.663 -25.410 -10.280  0.00  0.00    -0.166 F 
ATOM     19  F   UNL     1      36.748 -23.578  -9.869  0.00  0.00    -0.166 F 
ATOM     20  F   UNL     1      35.021 -23.543 -11.191  0.00  0.00    -0.166 F 
ATOM     21  C   UNL     1      36.130 -24.272 -10.871  0.00  0.00    +0.419 C 
ENDBRANCH  13  21
ENDBRANCH   5  12
BRANCH   6  22
ATOM     22  C   UNL     1      35.034 -19.550 -21.501  0.00  0.00    +0.056 C 
BRANCH  22  23
ATOM     23  C   UNL     1      36.094 -18.453 -21.594  0.00  0.00    +0.093 C 
BRANCH  23  25
ATOM     24  S   UNL     1      34.198 -14.236 -21.212  0.00  0.00    -0.101 S 
ATOM     25  N   UNL     1      35.494 -17.155 -21.543  0.00  0.00    -0.320 N 
ATOM     26  N   UNL     1      34.946 -17.159 -23.859  0.00  0.00    -0.233 NA
ATOM     27  N   UNL     1      33.820 -15.303 -24.927  0.00  0.00    -0.247 NA
ATOM     28  C   UNL     1      34.931 -16.526 -22.669  0.00  0.00    +0.118 C 
ATOM     29  C   UNL     1      34.358 -15.263 -22.578  0.00  0.00    +0.145 C 
ATOM     30  C   UNL     1      33.812 -14.679 -23.720  0.00  0.00    +0.073 C 
ATOM     31  C   UNL     1      33.268 -13.387 -23.449  0.00  0.00    +0.022 C 
ATOM     32  C   UNL     1      33.412 -13.027 -22.129  0.00  0.00    +0.033 C 
ATOM     33  C   UNL     1      34.395 -16.516 -24.905  0.00  0.00    +0.251 C 
ATOM     34  H   UNL     1      35.476 -16.679 -20.682  0.00  0.00    +0.148 HD
ENDBRANCH  23  25
ENDBRANCH  22  23
ENDBRANCH   6  22
TORSDOF 5
ENDMDL
MODEL 2
REMARK VINA RESULT:     -11.2      8.068     14.189
REMARK  Name = 24880024
REMARK  5 active torsions:
REMARK  status: ('A' for Active; 'I' for Inactive)
REMARK    1  A    between atoms: N_5  and  C_12
REMARK    2  A    between atoms: C_6  and  C_22
REMARK    3  A    between atoms: C_13  and  C_21
REMARK    4  A    between atoms: C_22  and  C_23
REMARK    5  A    between atoms: C_23  and  N_25
REMARK                            x       y       z     vdW  Elec       q    Type
REMARK                         _______ _______ _______ _____ _____    ______ ____
ROOT
ATOM      1  S   UNL     1      34.568 -14.753 -22.899  0.00  0.00    -0.056 S 
ATOM      2  O   UNL     1      33.257 -10.759 -24.929  0.00  0.00    -0.252 OA
ATOM      3  N   UNL     1      33.478 -13.748 -25.017  0.00  0.00    -0.223 NA
ATOM      4  N   UNL     1      34.156 -12.196 -23.304  0.00  0.00    -0.248 N 
ATOM      5  N   UNL     1      34.126  -9.891 -22.939  0.00  0.00    -0.268 N 
ATOM      6  C   UNL     1      34.071 -15.833 -24.135  0.00  0.00    +0.031 C 
ATOM      7  C   UNL     1      33.518 -15.119 -25.177  0.00  0.00    +0.103 C 
ATOM      8  C   UNL     1      34.005 -13.442 -23.852  0.00  0.00    +0.166 C 
ATOM      9  C   UNL     1      33.790 -10.917 -23.836  0.00  0.00    +0.310 C 
ATOM     10  H   UNL     1      34.577 -12.176 -22.413  0.00  0.00    +0.158 HD
ATOM     11  H   UNL     1      34.550 -10.174 -22.097  0.00  0.00    +0.156 HD
ENDROOT
BRANCH   5  12
ATOM     12  C   UNL     1      33.927  -8.498 -23.096  0.00  0.00    +0.052 C 
ATOM     13  C   UNL     1      32.776  -6.466 -22.479  0.00  0.00    +0.073 C 
ATOM     14  C   UNL     1      32.971  -7.838 -22.324  0.00  0.00    +0.019 C 
ATOM     15  C   UNL     1      34.689  -7.786 -24.022  0.00  0.00    +0.015 C 
ATOM     16  C   UNL     1      33.538  -5.754 -23.404  0.00  0.00    +0.004 C 
ATOM     17  C   UNL     1      34.495  -6.413 -24.176  0.00  0.00    +0.001 C 
BRANCH  13  21
ATOM     18  F   UNL     1      30.469  -6.007 -22.044  0.00  0.00    -0.166 F 
ATOM     19  F   UNL     1      31.794  -6.093 -20.330  0.00  0.00    -0.166 F 
ATOM     20  F   UNL     1      31.894  -4.402 -21.694  0.00  0.00    -0.166 F 
ATOM     21  C   UNL     1      31.754  -5.759 -21.654  0.00  0.00    +0.419 C 
ENDBRANCH  13  21
ENDBRANCH   5  12
BRANCH   6  22
ATOM     22  C   UNL     1      34.269 -17.321 -23.979  0.00  0.00    +0.056 C 
BRANCH  22  23
ATOM     23  C   UNL     1      35.182 -17.685 -22.809  0.00  0.00    +0.093 C 
BRANCH  23  25
ATOM     24  S   UNL     1      32.974 -20.775 -20.144  0.00  0.00    -0.101 S 
ATOM     25  N   UNL     1      34.560 -18.653 -21.956  0.00  0.00    -0.320 N 
ATOM     26  N   UNL     1      36.600 -19.215 -20.866  0.00  0.00    -0.233 NA
ATOM     27  N   UNL     1      36.716 -20.876 -19.111  0.00  0.00    -0.247 NA
ATOM     28  C   UNL     1      35.273 -19.402 -21.001  0.00  0.00    +0.118 C 
ATOM     29  C   UNL     1      34.631 -20.333 -20.192  0.00  0.00    +0.145 C 
ATOM     30  C   UNL     1      35.377 -21.053 -19.260  0.00  0.00    +0.073 C 
ATOM     31  C   UNL     1      34.565 -21.961 -18.516  0.00  0.00    +0.022 C 
ATOM     32  C   UNL     1      33.244 -21.911 -18.896  0.00  0.00    +0.033 C 
ATOM     33  C   UNL     1      37.235 -19.955 -19.939  0.00  0.00    +0.251 C 
ATOM     34  H   UNL     1      33.592 -18.802 -22.043  0.00  0.00    +0.148 HD
ENDBRANCH  23  25
ENDBRANCH  22  23
ENDBRANCH   6  22
TORSDOF 5
ENDMDL
MODEL 3
REMARK VINA RESULT:     -11.1      5.027      8.116
REMARK  Name = 24880024
REMARK  5 active torsions:
REMARK  status: ('A' for Active; 'I' for Inactive)
REMARK    1  A    between atoms: N_5  and  C_12
REMARK    2  A    between atoms: C_6  and  C_22
REMARK    3  A    between atoms: C_13  and  C_21
REMARK    4  A    between atoms: C_22  and  C_23
REMARK    5  A    between atoms: C_23  and  N_25
REMARK                            x       y       z     vdW  Elec       q    Type
REMARK                         _______ _______ _______ _____ _____    ______ ____
ROOT
ATOM      1  S   UNL     1      33.969 -14.868 -24.325  0.00  0.00    -0.056 S 
ATOM      2  O   UNL     1      35.240 -16.714 -20.229  0.00  0.00    -0.252 OA
ATOM      3  N   UNL     1      34.518 -14.304 -21.863  0.00  0.00    -0.223 NA
ATOM      4  N   UNL     1      34.658 -16.622 -22.503  0.00  0.00    -0.248 N 
ATOM      5  N   UNL     1      35.172 -18.671 -21.508  0.00  0.00    -0.268 N 
ATOM      6  C   UNL     1      33.874 -13.227 -23.838  0.00  0.00    +0.031 C 
ATOM      7  C   UNL     1      34.201 -13.122 -22.502  0.00  0.00    +0.103 C 
ATOM      8  C   UNL     1      34.429 -15.291 -22.727  0.00  0.00    +0.166 C 
ATOM      9  C   UNL     1      35.047 -17.288 -21.296  0.00  0.00    +0.310 C 
ATOM     10  H   UNL     1      34.537 -17.208 -23.286  0.00  0.00    +0.158 HD
ATOM     11  H   UNL     1      34.983 -18.986 -22.421  0.00  0.00    +0.156 HD
ENDROOT
BRANCH   5  12
ATOM     12  C   UNL     1      35.535 -19.666 -20.570  0.00  0.00    +0.052 C 
ATOM     13  C   UNL     1      34.919 -21.487 -19.108  0.00  0.00    +0.073 C 
ATOM     14  C   UNL     1      34.561 -20.506 -20.032  0.00  0.00    +0.019 C 
ATOM     15  C   UNL     1      36.868 -19.808 -20.185  0.00  0.00    +0.015 C 
ATOM     16  C   UNL     1      36.252 -21.629 -18.723  0.00  0.00    +0.004 C 
ATOM     17  C   UNL     1      37.227 -20.790 -19.262  0.00  0.00    +0.001 C 
BRANCH  13  21
ATOM     18  F   UNL     1      34.149 -22.793 -17.257  0.00  0.00    -0.166 F 
ATOM     19  F   UNL     1      32.638 -21.814 -18.465  0.00  0.00    -0.166 F 
ATOM     20  F   UNL     1      33.713 -23.532 -19.254  0.00  0.00    -0.166 F 
ATOM     21  C   UNL     1      33.877 -22.386 -18.531  0.00  0.00    +0.419 C 
ENDBRANCH  13  21
ENDBRANCH   5  12
BRANCH   6  22
ATOM     22  C   UNL     1      33.482 -12.154 -24.824  0.00  0.00    +0.056 C 
BRANCH  22  23
ATOM     23  C   UNL     1      34.226 -10.838 -24.607  0.00  0.00    +0.093 C 
BRANCH  23  25
ATOM     24  S   UNL     1      32.086  -8.482 -21.232  0.00  0.00    -0.101 S 
ATOM     25  N   UNL     1      33.595 -10.053 -23.590  0.00  0.00    -0.320 N 
ATOM     26  N   UNL     1      34.561  -8.018 -24.358  0.00  0.00    -0.233 NA
ATOM     27  N   UNL     1      34.134  -5.894 -23.281  0.00  0.00    -0.247 NA
ATOM     28  C   UNL     1      33.769  -8.661 -23.478  0.00  0.00    +0.118 C 
ATOM     29  C   UNL     1      33.137  -7.936 -22.475  0.00  0.00    +0.145 C 
ATOM     30  C   UNL     1      33.338  -6.558 -22.401  0.00  0.00    +0.073 C 
ATOM     31  C   UNL     1      32.619  -5.972 -21.317  0.00  0.00    +0.022 C 
ATOM     32  C   UNL     1      31.900  -6.903 -20.603  0.00  0.00    +0.033 C 
ATOM     33  C   UNL     1      34.694  -6.687 -24.208  0.00  0.00    +0.251 C 
ATOM     34  H   UNL     1      33.014 -10.508 -22.939  0.00  0.00    +0.148 HD
ENDBRANCH  23  25
ENDBRANCH  22  23
ENDBRANCH   6  22
TORSDOF 5
ENDMDL
MODEL 4
REMARK VINA RESULT:     -11.0      7.967     13.853
REMARK  Name = 24880024
REMARK  5 active torsions:
REMARK  status: ('A' for Active; 'I' for Inactive)
REMARK    1  A    between atoms: N_5  and  C_12
REMARK    2  A    between atoms: C_6  and  C_22
REMARK    3  A    between atoms: C_13  and  C_21
REMARK    4  A    between atoms: C_22  and  C_23
REMARK    5  A    between atoms: C_23  and  N_25
REMARK                            x       y       z     vdW  Elec       q    Type
REMARK                         _______ _______ _______ _____ _____    ______ ____
ROOT
ATOM      1  S   UNL     1      34.923 -15.944 -22.186  0.00  0.00    -0.056 S 
ATOM      2  O   UNL     1      33.128 -12.371 -24.597  0.00  0.00    -0.252 OA
ATOM      3  N   UNL     1      33.959 -15.250 -24.482  0.00  0.00    -0.223 NA
ATOM      4  N   UNL     1      34.064 -13.541 -22.787  0.00  0.00    -0.248 N 
ATOM      5  N   UNL     1      33.518 -11.283 -22.563  0.00  0.00    -0.268 N 
ATOM      6  C   UNL     1      34.832 -17.139 -23.412  0.00  0.00    +0.031 C 
ATOM      7  C   UNL     1      34.297 -16.587 -24.557  0.00  0.00    +0.103 C 
ATOM      8  C   UNL     1      34.245 -14.807 -23.278  0.00  0.00    +0.166 C 
ATOM      9  C   UNL     1      33.525 -12.383 -23.436  0.00  0.00    +0.310 C 
ATOM     10  H   UNL     1      34.344 -13.408 -21.852  0.00  0.00    +0.158 HD
ATOM     11  H   UNL     1      33.869 -11.447 -21.658  0.00  0.00    +0.156 HD
ENDROOT
BRANCH   5  12
ATOM     12  C   UNL     1      33.066  -9.967 -22.824  0.00  0.00    +0.052 C 
ATOM     13  C   UNL     1      33.529  -7.682 -23.456  0.00  0.00    +0.073 C 
ATOM     14  C   UNL     1      33.975  -8.978 -23.198  0.00  0.00    +0.019 C 
ATOM     15  C   UNL     1      31.710  -9.661 -22.709  0.00  0.00    +0.015 C 
ATOM     16  C   UNL     1      32.174  -7.375 -23.340  0.00  0.00    +0.004 C 
ATOM     17  C   UNL     1      31.264  -8.365 -22.967  0.00  0.00    +0.001 C 
BRANCH  13  21
ATOM     18  F   UNL     1      35.659  -6.641 -23.132  0.00  0.00    -0.166 F 
ATOM     19  F   UNL     1      34.896  -6.709 -25.161  0.00  0.00    -0.166 F 
ATOM     20  F   UNL     1      33.996  -5.365 -23.707  0.00  0.00    -0.166 F 
ATOM     21  C   UNL     1      34.501  -6.624 -23.855  0.00  0.00    +0.419 C 
ENDBRANCH  13  21
ENDBRANCH   5  12
BRANCH   6  22
ATOM     22  C   UNL     1      35.303 -18.548 -23.146  0.00  0.00    +0.056 C 
BRANCH  22  23
ATOM     23  C   UNL     1      35.821 -18.749 -21.723  0.00  0.00    +0.093 C 
BRANCH  23  25
ATOM     24  S   UNL     1      32.722 -21.267 -19.360  0.00  0.00    -0.101 S 
ATOM     25  N   UNL     1      34.916 -19.552 -20.956  0.00  0.00    -0.320 N 
ATOM     26  N   UNL     1      36.652 -20.501 -19.633  0.00  0.00    -0.233 NA
ATOM     27  N   UNL     1      36.214 -22.117 -17.887  0.00  0.00    -0.247 NA
ATOM     28  C   UNL     1      35.340 -20.413 -19.928  0.00  0.00    +0.118 C 
ATOM     29  C   UNL     1      34.429 -21.177 -19.207  0.00  0.00    +0.145 C 
ATOM     30  C   UNL     1      34.894 -22.017 -18.196  0.00  0.00    +0.073 C 
ATOM     31  C   UNL     1      33.829 -22.725 -17.561  0.00  0.00    +0.022 C 
ATOM     32  C   UNL     1      32.601 -22.410 -18.096  0.00  0.00    +0.033 C 
ATOM     33  C   UNL     1      37.006 -21.339 -18.641  0.00  0.00    +0.251 C 
ATOM     34  H   UNL     1      33.955 -19.500 -21.160  0.00  0.00    +0.148 HD
ENDBRANCH  23  25
ENDBRANCH  22  23
ENDBRANCH   6  22
TORSDOF 5
ENDMDL
MODEL 5
REMARK VINA RESULT:     -11.0      5.943     11.758
REMARK  Name = 24880024
REMARK  5 active torsions:
REMARK  status: ('A' for Active; 'I' for Inactive)
REMARK    1  A    between atoms: N_5  and  C_12
REMARK    2  A    between atoms: C_6  and  C_22
REMARK    3  A    between atoms: C_13  and  C_21
REMARK    4  A    between atoms: C_22  and  C_23
REMARK    5  A    between atoms: C_23  and  N_25
REMARK                            x       y       z     vdW  Elec       q    Type
REMARK                         _______ _______ _______ _____ _____    ______ ____
ROOT
ATOM      1  S   UNL     1      33.585 -23.620 -15.848  0.00  0.00    -0.056 S 
ATOM      2  O   UNL     1      32.887 -20.807 -19.509  0.00  0.00    -0.252 OA
ATOM      3  N   UNL     1      31.765 -22.478 -17.285  0.00  0.00    -0.223 NA
ATOM      4  N   UNL     1      34.056 -22.065 -17.905  0.00  0.00    -0.248 N 
ATOM      5  N   UNL     1      35.226 -20.856 -19.524  0.00  0.00    -0.268 N 
ATOM      6  C   UNL     1      31.945 -23.891 -15.429  0.00  0.00    +0.031 C 
ATOM      7  C   UNL     1      31.125 -23.208 -16.303  0.00  0.00    +0.103 C 
ATOM      8  C   UNL     1      33.064 -22.621 -17.143  0.00  0.00    +0.166 C 
ATOM      9  C   UNL     1      33.952 -21.195 -19.039  0.00  0.00    +0.310 C 
ATOM     10  H   UNL     1      34.975 -22.295 -17.635  0.00  0.00    +0.158 HD
ATOM     11  H   UNL     1      35.990 -21.246 -19.040  0.00  0.00    +0.156 HD
ENDROOT
BRANCH   5  12
ATOM     12  C   UNL     1      35.546 -20.024 -20.622  0.00  0.00    +0.052 C 
ATOM     13  C   UNL     1      35.036 -19.181 -22.828  0.00  0.00    +0.073 C 
ATOM     14  C   UNL     1      34.721 -20.002 -21.746  0.00  0.00    +0.019 C 
ATOM     15  C   UNL     1      36.687 -19.222 -20.580  0.00  0.00    +0.015 C 
ATOM     16  C   UNL     1      36.177 -18.380 -22.786  0.00  0.00    +0.004 C 
ATOM     17  C   UNL     1      37.002 -18.400 -21.662  0.00  0.00    +0.001 C 
BRANCH  13  21
ATOM     18  F   UNL     1      32.828 -19.307 -23.741  0.00  0.00    -0.166 F 
ATOM     19  F   UNL     1      34.234 -17.996 -24.745  0.00  0.00    -0.166 F 
ATOM     20  F   UNL     1      34.449 -20.154 -24.917  0.00  0.00    -0.166 F 
ATOM     21  C   UNL     1      34.154 -19.158 -24.031  0.00  0.00    +0.419 C 
ENDBRANCH  13  21
ENDBRANCH   5  12
BRANCH   6  22
ATOM     22  C   UNL     1      31.587 -24.771 -14.256  0.00  0.00    +0.056 C 
BRANCH  22  23
ATOM     23  C   UNL     1      32.536 -24.603 -13.069  0.00  0.00    +0.093 C 
BRANCH  23  25
ATOM     24  S   UNL     1      36.769 -25.967 -14.393  0.00  0.00    -0.101 S 
ATOM     25  N   UNL     1      33.865 -25.007 -13.415  0.00  0.00    -0.320 N 
ATOM     26  N   UNL     1      34.749 -24.437 -11.280  0.00  0.00    -0.233 NA
ATOM     27  N   UNL     1      37.085 -24.733 -10.724  0.00  0.00    -0.247 NA
ATOM     28  C   UNL     1      34.949 -24.919 -12.522  0.00  0.00    +0.118 C 
ATOM     29  C   UNL     1      36.226 -25.322 -12.898  0.00  0.00    +0.145 C 
ATOM     30  C   UNL     1      37.270 -25.217 -11.980  0.00  0.00    +0.073 C 
ATOM     31  C   UNL     1      38.508 -25.673 -12.527  0.00  0.00    +0.022 C 
ATOM     32  C   UNL     1      38.375 -26.105 -13.826  0.00  0.00    +0.033 C 
ATOM     33  C   UNL     1      35.817 -24.373 -10.464  0.00  0.00    +0.251 C 
ATOM     34  H   UNL     1      34.029 -25.361 -14.319  0.00  0.00    +0.148 HD
ENDBRANCH  23  25
ENDBRANCH  22  23
ENDBRANCH   6  22
TORSDOF 5
ENDMDL
MODEL 6
REMARK VINA RESULT:     -10.9      3.961      4.731
REMARK  Name = 24880024
REMARK  5 active torsions:
REMARK  status: ('A' for Active; 'I' for Inactive)
REMARK    1  A    between atoms: N_5  and  C_12
REMARK    2  A    between atoms: C_6  and  C_22
REMARK    3  A    between atoms: C_13  and  C_21
REMARK    4  A    between atoms: C_22  and  C_23
REMARK    5  A    between atoms: C_23  and  N_25
REMARK                            x       y       z     vdW  Elec       q    Type
REMARK                         _______ _______ _______ _____ _____    ______ ____
ROOT
ATOM      1  S   UNL     1      35.610 -20.936 -19.883  0.00  0.00    -0.056 S 
ATOM      2  O   UNL     1      31.753 -22.274 -17.617  0.00  0.00    -0.252 OA
ATOM      3  N   UNL     1      33.027 -20.821 -19.911  0.00  0.00    -0.223 NA
ATOM      4  N   UNL     1      34.041 -22.041 -18.098  0.00  0.00    -0.248 N 
ATOM      5  N   UNL     1      33.357 -23.245 -16.218  0.00  0.00    -0.268 N 
ATOM      6  C   UNL     1      34.859 -20.078 -21.164  0.00  0.00    +0.031 C 
ATOM      7  C   UNL     1      33.489 -20.124 -21.010  0.00  0.00    +0.103 C 
ATOM      8  C   UNL     1      34.058 -21.293 -19.244  0.00  0.00    +0.166 C 
ATOM      9  C   UNL     1      32.924 -22.504 -17.329  0.00  0.00    +0.310 C 
ATOM     10  H   UNL     1      34.926 -22.300 -17.750  0.00  0.00    +0.158 HD
ATOM     11  H   UNL     1      34.331 -23.346 -16.119  0.00  0.00    +0.156 HD
ENDROOT
BRANCH   5  12
ATOM     12  C   UNL     1      32.564 -23.868 -15.225  0.00  0.00    +0.052 C 
ATOM     13  C   UNL     1      30.417 -24.664 -14.455  0.00  0.00    +0.073 C 
ATOM     14  C   UNL     1      31.198 -24.050 -15.434  0.00  0.00    +0.019 C 
ATOM     15  C   UNL     1      33.151 -24.301 -14.036  0.00  0.00    +0.015 C 
ATOM     16  C   UNL     1      31.004 -25.097 -13.266  0.00  0.00    +0.004 C 
ATOM     17  C   UNL     1      32.371 -24.916 -13.056  0.00  0.00    +0.001 C 
BRANCH  13  21
ATOM     18  F   UNL     1      28.207 -23.751 -14.401  0.00  0.00    -0.166 F 
ATOM     19  F   UNL     1      28.638 -25.188 -15.966  0.00  0.00    -0.166 F 
ATOM     20  F   UNL     1      28.435 -25.855 -13.906  0.00  0.00    -0.166 F 
ATOM     21  C   UNL     1      28.955 -24.858 -14.679  0.00  0.00    +0.419 C 
ENDBRANCH  13  21
ENDBRANCH   5  12
BRANCH   6  22
ATOM     22  C   UNL     1      35.690 -19.415 -22.235  0.00  0.00    +0.056 C 
BRANCH  22  23
ATOM     23  C   UNL     1      36.156 -18.011 -21.850  0.00  0.00    +0.093 C 
BRANCH  23  25
ATOM     24  S   UNL     1      34.064 -14.908 -24.591  0.00  0.00    -0.101 S 
ATOM     25  N   UNL     1      35.495 -17.017 -22.639  0.00  0.00    -0.320 N 
ATOM     26  N   UNL     1      34.905 -15.700 -20.747  0.00  0.00    -0.233 NA
ATOM     27  N   UNL     1      33.668 -13.630 -20.944  0.00  0.00    -0.247 NA
ATOM     28  C   UNL     1      34.881 -15.880 -22.082  0.00  0.00    +0.118 C 
ATOM     29  C   UNL     1      34.248 -14.938 -22.884  0.00  0.00    +0.145 C 
ATOM     30  C   UNL     1      33.653 -13.827 -22.289  0.00  0.00    +0.073 C 
ATOM     31  C   UNL     1      33.051 -12.964 -23.254  0.00  0.00    +0.022 C 
ATOM     32  C   UNL     1      33.202 -13.433 -24.539  0.00  0.00    +0.033 C 
ATOM     33  C   UNL     1      34.304 -14.597 -20.264  0.00  0.00    +0.251 C 
ATOM     34  H   UNL     1      35.467 -17.135 -23.616  0.00  0.00    +0.148 HD
ENDBRANCH  23  25
ENDBRANCH  22  23
ENDBRANCH   6  22
TORSDOF 5
ENDMDL
MODEL 7
REMARK VINA RESULT:     -10.8      8.774     14.629
REMARK  Name = 24880024
REMARK  5 active torsions:
REMARK  status: ('A' for Active; 'I' for Inactive)
REMARK    1  A    between atoms: N_5  and  C_12
REMARK    2  A    between atoms: C_6  and  C_22
REMARK    3  A    between atoms: C_13  and  C_21
REMARK    4  A    between atoms: C_22  and  C_23
REMARK    5  A    between atoms: C_23  and  N_25
REMARK                            x       y       z     vdW  Elec       q    Type
REMARK                         _______ _______ _______ _____ _____    ______ ____
ROOT
ATOM      1  S   UNL     1      34.409 -14.563 -22.749  0.00  0.00    -0.056 S 
ATOM      2  O   UNL     1      33.015 -10.551 -24.689  0.00  0.00    -0.252 OA
ATOM      3  N   UNL     1      33.455 -13.510 -24.909  0.00  0.00    -0.223 NA
ATOM      4  N   UNL     1      33.857 -12.019 -23.060  0.00  0.00    -0.248 N 
ATOM      5  N   UNL     1      33.629  -9.746 -22.581  0.00  0.00    -0.268 N 
ATOM      6  C   UNL     1      34.108 -15.599 -24.082  0.00  0.00    +0.031 C 
ATOM      7  C   UNL     1      33.607 -14.863 -25.136  0.00  0.00    +0.103 C 
ATOM      8  C   UNL     1      33.847 -13.238 -23.684  0.00  0.00    +0.166 C 
ATOM      9  C   UNL     1      33.453 -10.738 -23.559  0.00  0.00    +0.310 C 
ATOM     10  H   UNL     1      34.189 -12.023 -22.133  0.00  0.00    +0.158 HD
ATOM     11  H   UNL     1      33.991 -10.049 -21.717  0.00  0.00    +0.156 HD
ENDROOT
BRANCH   5  12
ATOM     12  C   UNL     1      33.348  -8.363 -22.684  0.00  0.00    +0.052 C 
ATOM     13  C   UNL     1      33.700  -6.231 -23.763  0.00  0.00    +0.073 C 
ATOM     14  C   UNL     1      33.978  -7.593 -23.661  0.00  0.00    +0.019 C 
ATOM     15  C   UNL     1      32.439  -7.769 -21.808  0.00  0.00    +0.015 C 
ATOM     16  C   UNL     1      32.792  -5.637 -22.887  0.00  0.00    +0.004 C 
ATOM     17  C   UNL     1      32.161  -6.406 -21.909  0.00  0.00    +0.001 C 
BRANCH  13  21
ATOM     18  F   UNL     1      35.730  -5.341 -24.664  0.00  0.00    -0.166 F 
ATOM     19  F   UNL     1      34.173  -5.866 -26.079  0.00  0.00    -0.166 F 
ATOM     20  F   UNL     1      33.944  -4.112 -24.814  0.00  0.00    -0.166 F 
ATOM     21  C   UNL     1      34.374  -5.407 -24.808  0.00  0.00    +0.419 C 
ENDBRANCH  13  21
ENDBRANCH   5  12
BRANCH   6  22
ATOM     22  C   UNL     1      34.396 -17.078 -23.985  0.00  0.00    +0.056 C 
BRANCH  22  23
ATOM     23  C   UNL     1      35.251 -17.444 -22.773  0.00  0.00    +0.093 C 
BRANCH  23  25
ATOM     24  S   UNL     1      32.958 -20.604 -20.267  0.00  0.00    -0.101 S 
ATOM     25  N   UNL     1      34.603 -18.436 -21.970  0.00  0.00    -0.320 N 
ATOM     26  N   UNL     1      36.623 -19.095 -20.897  0.00  0.00    -0.233 NA
ATOM     27  N   UNL     1      36.691 -20.839 -19.222  0.00  0.00    -0.247 NA
ATOM     28  C   UNL     1      35.292 -19.245 -21.048  0.00  0.00    +0.118 C 
ATOM     29  C   UNL     1      34.625 -20.198 -20.286  0.00  0.00    +0.145 C 
ATOM     30  C   UNL     1      35.349 -20.978 -19.385  0.00  0.00    +0.073 C 
ATOM     31  C   UNL     1      34.513 -21.902 -18.689  0.00  0.00    +0.022 C 
ATOM     32  C   UNL     1      33.195 -21.804 -19.073  0.00  0.00    +0.033 C 
ATOM     33  C   UNL     1      37.236 -19.892 -20.003  0.00  0.00    +0.251 C 
ATOM     34  H   UNL     1      33.631 -18.559 -22.068  0.00  0.00    +0.148 HD
ENDBRANCH  23  25
ENDBRANCH  22  23
ENDBRANCH   6  22
TORSDOF 5
ENDMDL
MODEL 8
REMARK VINA RESULT:     -10.7      3.861      4.869
REMARK  Name = 24880024
REMARK  5 active torsions:
REMARK  status: ('A' for Active; 'I' for Inactive)
REMARK    1  A    between atoms: N_5  and  C_12
REMARK    2  A    between atoms: C_6  and  C_22
REMARK    3  A    between atoms: C_13  and  C_21
REMARK    4  A    between atoms: C_22  and  C_23
REMARK    5  A    between atoms: C_23  and  N_25
REMARK                            x       y       z     vdW  Elec       q    Type
REMARK                         _______ _______ _______ _____ _____    ______ ____
ROOT
ATOM      1  S   UNL     1      33.760 -20.186 -20.484  0.00  0.00    -0.056 S 
ATOM      2  O   UNL     1      33.302 -23.067 -16.839  0.00  0.00    -0.252 OA
ATOM      3  N   UNL     1      35.068 -21.673 -18.822  0.00  0.00    -0.223 NA
ATOM      4  N   UNL     1      32.673 -21.608 -18.569  0.00  0.00    -0.248 N 
ATOM      5  N   UNL     1      31.048 -22.542 -17.177  0.00  0.00    -0.268 N 
ATOM      6  C   UNL     1      35.467 -20.250 -20.636  0.00  0.00    +0.031 C 
ATOM      7  C   UNL     1      35.986 -21.088 -19.672  0.00  0.00    +0.103 C 
ATOM      8  C   UNL     1      33.862 -21.269 -19.157  0.00  0.00    +0.166 C 
ATOM      9  C   UNL     1      32.423 -22.474 -17.455  0.00  0.00    +0.310 C 
ATOM     10  H   UNL     1      31.873 -21.197 -18.969  0.00  0.00    +0.158 HD
ATOM     11  H   UNL     1      30.462 -22.008 -17.760  0.00  0.00    +0.156 HD
ENDROOT
BRANCH   5  12
ATOM     12  C   UNL     1      30.402 -23.284 -16.160  0.00  0.00    +0.052 C 
ATOM     13  C   UNL     1      30.392 -24.208 -13.928  0.00  0.00    +0.073 C 
ATOM     14  C   UNL     1      31.029 -23.477 -14.930  0.00  0.00    +0.019 C 
ATOM     15  C   UNL     1      29.136 -23.823 -16.389  0.00  0.00    +0.015 C 
ATOM     16  C   UNL     1      29.125 -24.746 -14.157  0.00  0.00    +0.004 C 
ATOM     17  C   UNL     1      28.497 -24.554 -15.387  0.00  0.00    +0.001 C 
BRANCH  13  21
ATOM     18  F   UNL     1      31.821 -23.352 -12.211  0.00  0.00    -0.166 F 
ATOM     19  F   UNL     1      30.191 -24.638 -11.584  0.00  0.00    -0.166 F 
ATOM     20  F   UNL     1      31.906 -25.487 -12.616  0.00  0.00    -0.166 F 
ATOM     21  C   UNL     1      31.062 -24.414 -12.612  0.00  0.00    +0.419 C 
ENDBRANCH  13  21
ENDBRANCH   5  12
BRANCH   6  22
ATOM     22  C   UNL     1      36.172 -19.458 -21.711  0.00  0.00    +0.056 C 
BRANCH  22  23
ATOM     23  C   UNL     1      36.334 -17.980 -21.358  0.00  0.00    +0.093 C 
BRANCH  23  25
ATOM     24  S   UNL     1      34.222 -15.427 -24.605  0.00  0.00    -0.101 S 
ATOM     25  N   UNL     1      35.663 -17.149 -22.310  0.00  0.00    -0.320 N 
ATOM     26  N   UNL     1      34.927 -15.602 -20.657  0.00  0.00    -0.233 NA
ATOM     27  N   UNL     1      33.603 -13.653 -21.205  0.00  0.00    -0.247 NA
ATOM     28  C   UNL     1      34.971 -15.977 -21.951  0.00  0.00    +0.118 C 
ATOM     29  C   UNL     1      34.331 -15.197 -22.907  0.00  0.00    +0.145 C 
ATOM     30  C   UNL     1      33.657 -14.045 -22.506  0.00  0.00    +0.073 C 
ATOM     31  C   UNL     1      33.059 -13.365 -23.610  0.00  0.00    +0.022 C 
ATOM     32  C   UNL     1      33.289 -14.009 -24.804  0.00  0.00    +0.033 C 
ATOM     33  C   UNL     1      34.253 -14.474 -20.366  0.00  0.00    +0.251 C 
ATOM     34  H   UNL     1      35.684 -17.409 -23.259  0.00  0.00    +0.148 HD
ENDBRANCH  23  25
ENDBRANCH  22  23
ENDBRANCH   6  22
TORSDOF 5
ENDMDL
MODEL 9
REMARK VINA RESULT:     -10.7      1.971      2.489
REMARK  Name = 24880024
REMARK  5 active torsions:
REMARK  status: ('A' for Active; 'I' for Inactive)
REMARK    1  A    between atoms: N_5  and  C_12
REMARK    2  A    between atoms: C_6  and  C_22
REMARK    3  A    between atoms: C_13  and  C_21
REMARK    4  A    between atoms: C_22  and  C_23
REMARK    5  A    between atoms: C_23  and  N_25
REMARK                            x       y       z     vdW  Elec       q    Type
REMARK                         _______ _______ _______ _____ _____    ______ ____
ROOT
ATOM      1  S   UNL     1      36.489 -19.776 -20.469  0.00  0.00    -0.056 S 
ATOM      2  O   UNL     1      35.008 -22.636 -17.088  0.00  0.00    -0.252 OA
ATOM      3  N   UNL     1      34.457 -21.133 -19.624  0.00  0.00    -0.223 NA
ATOM      4  N   UNL     1      36.466 -21.249 -18.300  0.00  0.00    -0.248 N 
ATOM      5  N   UNL     1      37.198 -22.291 -16.344  0.00  0.00    -0.268 N 
ATOM      6  C   UNL     1      35.046 -19.717 -21.392  0.00  0.00    +0.031 C 
ATOM      7  C   UNL     1      34.079 -20.495 -20.789  0.00  0.00    +0.103 C 
ATOM      8  C   UNL     1      35.707 -20.826 -19.359  0.00  0.00    +0.166 C 
ATOM      9  C   UNL     1      36.113 -22.119 -17.218  0.00  0.00    +0.310 C 
ATOM     10  H   UNL     1      37.389 -20.905 -18.279  0.00  0.00    +0.158 HD
ATOM     11  H   UNL     1      38.024 -21.810 -16.580  0.00  0.00    +0.156 HD
ENDROOT
BRANCH   5  12
ATOM     12  C   UNL     1      37.251 -23.071 -15.164  0.00  0.00    +0.052 C 
ATOM     13  C   UNL     1      38.305 -24.795 -13.841  0.00  0.00    +0.073 C 
ATOM     14  C   UNL     1      38.253 -24.027 -15.003  0.00  0.00    +0.019 C 
ATOM     15  C   UNL     1      36.299 -22.883 -14.162  0.00  0.00    +0.015 C 
ATOM     16  C   UNL     1      37.354 -24.607 -12.838  0.00  0.00    +0.004 C 
ATOM     17  C   UNL     1      36.351 -23.651 -12.998  0.00  0.00    +0.001 C 
BRANCH  13  21
ATOM     18  F   UNL     1      39.349 -26.442 -12.455  0.00  0.00    -0.166 F 
ATOM     19  F   UNL     1      39.323 -26.826 -14.589  0.00  0.00    -0.166 F 
ATOM     20  F   UNL     1      40.630 -25.288 -13.779  0.00  0.00    -0.166 F 
ATOM     21  C   UNL     1      39.377 -25.818 -13.668  0.00  0.00    +0.419 C 
ENDBRANCH  13  21
ENDBRANCH   5  12
BRANCH   6  22
ATOM     22  C   UNL     1      34.976 -18.896 -22.656  0.00  0.00    +0.056 C 
BRANCH  22  23
ATOM     23  C   UNL     1      35.878 -17.663 -22.621  0.00  0.00    +0.093 C 
BRANCH  23  25
ATOM     24  S   UNL     1      33.683 -14.066 -20.679  0.00  0.00    -0.101 S 
ATOM     25  N   UNL     1      35.181 -16.533 -22.084  0.00  0.00    -0.320 N 
ATOM     26  N   UNL     1      34.480 -15.767 -24.226  0.00  0.00    -0.233 NA
ATOM     27  N   UNL     1      33.139 -13.774 -24.514  0.00  0.00    -0.247 NA
ATOM     28  C   UNL     1      34.495 -15.604 -22.888  0.00  0.00    +0.118 C 
ATOM     29  C   UNL     1      33.831 -14.520 -22.328  0.00  0.00    +0.145 C 
ATOM     30  C   UNL     1      33.164 -13.624 -23.163  0.00  0.00    +0.073 C 
ATOM     31  C   UNL     1      32.538 -12.574 -22.426  0.00  0.00    +0.022 C 
ATOM     32  C   UNL     1      32.742 -12.694 -21.071  0.00  0.00    +0.033 C 
ATOM     33  C   UNL     1      33.810 -14.852 -24.950  0.00  0.00    +0.251 C 
ATOM     34  H   UNL     1      35.184 -16.399 -21.109  0.00  0.00    +0.148 HD
ENDBRANCH  23  25
ENDBRANCH  22  23
ENDBRANCH   6  22
TORSDOF 5
ENDMDL
