MODEL 1
REMARK VINA RESULT:     -12.2      0.000      0.000
REMARK  Name = 447655
REMARK  6 active torsions:
REMARK  status: ('A' for Active; 'I' for Inactive)
REMARK    1  A    between atoms: N_4  and  C_14
REMARK    2  A    between atoms: C_6  and  O_26
REMARK    3  A    between atoms: C_15  and  S_20
REMARK    4  A    between atoms: S_20  and  N_23
REMARK    5  A    between atoms: O_26  and  C_27
REMARK    6  A    between atoms: C_27  and  C_28
REMARK                            x       y       z     vdW  Elec       q    Type
REMARK                         _______ _______ _______ _____ _____    ______ ____
ROOT
ATOM      1  N   UNL     1      32.289 -23.448 -15.397  0.00  0.00    -0.293 NA
ATOM      2  N   UNL     1      29.011 -22.548 -16.801  0.00  0.00    -0.266 NA
ATOM      3  N   UNL     1      30.415 -23.844 -13.887  0.00  0.00    -0.316 NA
ATOM      4  N   UNL     1      32.613 -24.327 -13.251  0.00  0.00    -0.238 N 
ATOM      5  N   UNL     1      28.253 -23.246 -14.825  0.00  0.00    -0.296 N 
ATOM      6  C   UNL     1      31.467 -22.982 -16.363  0.00  0.00    +0.288 C 
ATOM      7  C   UNL     1      30.114 -22.941 -16.099  0.00  0.00    +0.215 C 
ATOM      8  C   UNL     1      29.618 -23.371 -14.875  0.00  0.00    +0.196 C 
ATOM      9  C   UNL     1      31.719 -23.846 -14.235  0.00  0.00    +0.207 C 
ATOM     10  C   UNL     1      27.919 -22.748 -15.996  0.00  0.00    +0.164 C 
ATOM     11  H   UNL     1      29.001 -22.187 -17.716  0.00  0.00    +0.126 HD
ATOM     12  H   UNL     1      32.171 -24.610 -12.418  0.00  0.00    +0.166 HD
ATOM     13  H   UNL     1      27.654 -23.476 -14.077  0.00  0.00    +0.150 HD
ENDROOT
BRANCH   4  14
ATOM     14  C   UNL     1      34.011 -24.484 -13.232  0.00  0.00    +0.060 C 
ATOM     15  C   UNL     1      36.115 -24.396 -12.040  0.00  0.00    +0.123 C 
ATOM     16  C   UNL     1      34.728 -24.240 -12.058  0.00  0.00    +0.035 C 
ATOM     17  C   UNL     1      34.687 -24.885 -14.387  0.00  0.00    +0.015 C 
ATOM     18  C   UNL     1      36.787 -24.797 -13.195  0.00  0.00    +0.020 C 
ATOM     19  C   UNL     1      36.072 -25.041 -14.368  0.00  0.00    +0.003 C 
BRANCH  15  20
ATOM     20  S   UNL     1      37.009 -24.091 -10.572  0.00  0.00    +0.057 S 
ATOM     21  O   UNL     1      38.084 -25.068 -10.479  0.00  0.00    -0.153 OA
ATOM     22  O   UNL     1      37.315 -22.669 -10.505  0.00  0.00    -0.153 OA
BRANCH  20  23
ATOM     23  N   UNL     1      35.829 -24.455  -9.390  0.00  0.00    -0.203 NA
ATOM     24  H   UNL     1      36.178 -24.186  -8.470  0.00  0.00    +0.144 HD
ATOM     25  H   UNL     1      35.635 -25.456  -9.401  0.00  0.00    +0.144 HD
ENDBRANCH  20  23
ENDBRANCH  15  20
ENDBRANCH   4  14
BRANCH   6  26
ATOM     26  O   UNL     1      32.013 -22.570 -17.555  0.00  0.00    -0.453 OA
BRANCH  26  27
ATOM     27  C   UNL     1      33.369 -22.899 -17.789  0.00  0.00    +0.208 C 
BRANCH  27  28
ATOM     28  C   UNL     1      33.834 -22.170 -19.048  0.00  0.00    +0.044 C 
ATOM     29  C   UNL     1      32.874 -21.023 -19.396  0.00  0.00    +0.004 C 
ATOM     30  C   UNL     1      35.267 -21.648 -18.874  0.00  0.00    +0.004 C 
ATOM     31  C   UNL     1      33.347 -20.245 -20.621  0.00  0.00    +0.000 C 
ATOM     32  C   UNL     1      35.735 -20.869 -20.101  0.00  0.00    +0.000 C 
ATOM     33  C   UNL     1      34.774 -19.736 -20.449  0.00  0.00    +0.000 C 
ENDBRANCH  27  28
ENDBRANCH  26  27
ENDBRANCH   6  26
TORSDOF 6
ENDMDL
MODEL 2
REMARK VINA RESULT:     -11.9      2.107      2.693
REMARK  Name = 447655
REMARK  6 active torsions:
REMARK  status: ('A' for Active; 'I' for Inactive)
REMARK    1  A    between atoms: N_4  and  C_14
REMARK    2  A    between atoms: C_6  and  O_26
REMARK    3  A    between atoms: C_15  and  S_20
REMARK    4  A    between atoms: S_20  and  N_23
REMARK    5  A    between atoms: O_26  and  C_27
REMARK    6  A    between atoms: C_27  and  C_28
REMARK                            x       y       z     vdW  Elec       q    Type
REMARK                         _______ _______ _______ _____ _____    ______ ____
ROOT
ATOM      1  N   UNL     1      33.399 -23.953 -14.257  0.00  0.00    -0.293 NA
ATOM      2  N   UNL     1      29.996 -24.150 -15.637  0.00  0.00    -0.266 NA
ATOM      3  N   UNL     1      31.825 -25.184 -12.858  0.00  0.00    -0.316 NA
ATOM      4  N   UNL     1      34.058 -24.904 -12.221  0.00  0.00    -0.238 N 
ATOM      5  N   UNL     1      29.579 -25.309 -13.779  0.00  0.00    -0.296 N 
ATOM      6  C   UNL     1      32.447 -23.706 -15.184  0.00  0.00    +0.288 C 
ATOM      7  C   UNL     1      31.178 -24.195 -14.955  0.00  0.00    +0.215 C 
ATOM      8  C   UNL     1      30.894 -24.920 -13.805  0.00  0.00    +0.196 C 
ATOM      9  C   UNL     1      33.034 -24.668 -13.166  0.00  0.00    +0.207 C 
ATOM     10  C   UNL     1      29.067 -24.831 -14.893  0.00  0.00    +0.164 C 
ATOM     11  H   UNL     1      29.839 -23.711 -16.503  0.00  0.00    +0.126 HD
ATOM     12  H   UNL     1      33.765 -25.426 -11.439  0.00  0.00    +0.166 HD
ATOM     13  H   UNL     1      29.119 -25.830 -13.082  0.00  0.00    +0.150 HD
ENDROOT
BRANCH   4  14
ATOM     14  C   UNL     1      35.417 -24.540 -12.180  0.00  0.00    +0.060 C 
ATOM     15  C   UNL     1      37.681 -24.794 -12.993  0.00  0.00    +0.123 C 
ATOM     16  C   UNL     1      36.334 -25.156 -13.033  0.00  0.00    +0.035 C 
ATOM     17  C   UNL     1      35.852 -23.557 -11.286  0.00  0.00    +0.015 C 
ATOM     18  C   UNL     1      38.113 -23.813 -12.099  0.00  0.00    +0.020 C 
ATOM     19  C   UNL     1      37.198 -23.195 -11.246  0.00  0.00    +0.003 C 
BRANCH  15  20
ATOM     20  S   UNL     1      38.826 -25.566 -14.060  0.00  0.00    +0.057 S 
ATOM     21  O   UNL     1      39.494 -24.535 -14.841  0.00  0.00    -0.153 OA
ATOM     22  O   UNL     1      39.617 -26.511 -13.284  0.00  0.00    -0.153 OA
BRANCH  20  23
ATOM     23  N   UNL     1      37.777 -26.443 -15.086  0.00  0.00    -0.203 NA
ATOM     24  H   UNL     1      37.954 -27.441 -14.979  0.00  0.00    +0.144 HD
ATOM     25  H   UNL     1      37.943 -26.169 -16.054  0.00  0.00    +0.144 HD
ENDBRANCH  20  23
ENDBRANCH  15  20
ENDBRANCH   4  14
BRANCH   6  26
ATOM     26  O   UNL     1      32.785 -22.984 -16.303  0.00  0.00    -0.453 OA
BRANCH  26  27
ATOM     27  C   UNL     1      34.110 -23.117 -16.779  0.00  0.00    +0.208 C 
BRANCH  27  28
ATOM     28  C   UNL     1      34.172 -22.561 -18.201  0.00  0.00    +0.044 C 
ATOM     29  C   UNL     1      32.968 -21.652 -18.480  0.00  0.00    +0.004 C 
ATOM     30  C   UNL     1      35.489 -21.809 -18.431  0.00  0.00    +0.004 C 
ATOM     31  C   UNL     1      33.034 -21.042 -19.878  0.00  0.00    +0.000 C 
ATOM     32  C   UNL     1      35.552 -21.198 -19.829  0.00  0.00    +0.000 C 
ATOM     33  C   UNL     1      34.349 -20.302 -20.107  0.00  0.00    +0.000 C 
ENDBRANCH  27  28
ENDBRANCH  26  27
ENDBRANCH   6  26
TORSDOF 6
ENDMDL
MODEL 3
REMARK VINA RESULT:     -11.8      2.483      3.004
REMARK  Name = 447655
REMARK  6 active torsions:
REMARK  status: ('A' for Active; 'I' for Inactive)
REMARK    1  A    between atoms: N_4  and  C_14
REMARK    2  A    between atoms: C_6  and  O_26
REMARK    3  A    between atoms: C_15  and  S_20
REMARK    4  A    between atoms: S_20  and  N_23
REMARK    5  A    between atoms: O_26  and  C_27
REMARK    6  A    between atoms: C_27  and  C_28
REMARK                            x       y       z     vdW  Elec       q    Type
REMARK                         _______ _______ _______ _____ _____    ______ ____
ROOT
ATOM      1  N   UNL     1      33.540 -23.129 -16.151  0.00  0.00    -0.293 NA
ATOM      2  N   UNL     1      29.872 -23.004 -16.389  0.00  0.00    -0.266 NA
ATOM      3  N   UNL     1      32.384 -23.955 -14.169  0.00  0.00    -0.316 NA
ATOM      4  N   UNL     1      34.719 -23.920 -14.289  0.00  0.00    -0.238 N 
ATOM      5  N   UNL     1      29.960 -23.869 -14.337  0.00  0.00    -0.296 N 
ATOM      6  C   UNL     1      32.371 -22.860 -16.774  0.00  0.00    +0.288 C 
ATOM      7  C   UNL     1      31.200 -23.135 -16.099  0.00  0.00    +0.215 C 
ATOM      8  C   UNL     1      31.229 -23.674 -14.819  0.00  0.00    +0.196 C 
ATOM      9  C   UNL     1      33.475 -23.653 -14.904  0.00  0.00    +0.207 C 
ATOM     10  C   UNL     1      29.168 -23.456 -15.303  0.00  0.00    +0.164 C 
ATOM     11  H   UNL     1      29.491 -22.650 -17.224  0.00  0.00    +0.126 HD
ATOM     12  H   UNL     1      34.641 -24.301 -13.385  0.00  0.00    +0.166 HD
ATOM     13  H   UNL     1      29.698 -24.235 -13.461  0.00  0.00    +0.150 HD
ENDROOT
BRANCH   4  14
ATOM     14  C   UNL     1      36.048 -23.749 -14.718  0.00  0.00    +0.060 C 
ATOM     15  C   UNL     1      38.356 -24.473 -14.736  0.00  0.00    +0.123 C 
ATOM     16  C   UNL     1      37.039 -24.644 -14.310  0.00  0.00    +0.035 C 
ATOM     17  C   UNL     1      36.381 -22.682 -15.558  0.00  0.00    +0.015 C 
ATOM     18  C   UNL     1      38.685 -23.407 -15.574  0.00  0.00    +0.020 C 
ATOM     19  C   UNL     1      37.697 -22.511 -15.984  0.00  0.00    +0.003 C 
BRANCH  15  20
ATOM     20  S   UNL     1      39.593 -25.594 -14.225  0.00  0.00    +0.057 S 
ATOM     21  O   UNL     1      40.640 -24.844 -13.547  0.00  0.00    -0.153 OA
ATOM     22  O   UNL     1      38.950 -26.712 -13.547  0.00  0.00    -0.153 OA
BRANCH  20  23
ATOM     23  N   UNL     1      40.187 -26.135 -15.733  0.00  0.00    -0.203 NA
ATOM     24  H   UNL     1      41.196 -26.272 -15.670  0.00  0.00    +0.144 HD
ATOM     25  H   UNL     1      39.982 -25.437 -16.448  0.00  0.00    +0.144 HD
ENDBRANCH  20  23
ENDBRANCH  15  20
ENDBRANCH   4  14
BRANCH   6  26
ATOM     26  O   UNL     1      32.402 -22.327 -18.039  0.00  0.00    -0.453 OA
BRANCH  26  27
ATOM     27  C   UNL     1      33.511 -22.663 -18.852  0.00  0.00    +0.208 C 
BRANCH  27  28
ATOM     28  C   UNL     1      34.342 -21.402 -19.081  0.00  0.00    +0.044 C 
ATOM     29  C   UNL     1      35.830 -21.752 -19.219  0.00  0.00    +0.004 C 
ATOM     30  C   UNL     1      33.844 -20.641 -20.316  0.00  0.00    +0.004 C 
ATOM     31  C   UNL     1      36.677 -20.513 -19.502  0.00  0.00    +0.000 C 
ATOM     32  C   UNL     1      34.693 -19.404 -20.597  0.00  0.00    +0.000 C 
ATOM     33  C   UNL     1      36.172 -19.754 -20.725  0.00  0.00    +0.000 C 
ENDBRANCH  27  28
ENDBRANCH  26  27
ENDBRANCH   6  26
TORSDOF 6
ENDMDL
MODEL 4
REMARK VINA RESULT:     -11.4      2.580      5.282
REMARK  Name = 447655
REMARK  6 active torsions:
REMARK  status: ('A' for Active; 'I' for Inactive)
REMARK    1  A    between atoms: N_4  and  C_14
REMARK    2  A    between atoms: C_6  and  O_26
REMARK    3  A    between atoms: C_15  and  S_20
REMARK    4  A    between atoms: S_20  and  N_23
REMARK    5  A    between atoms: O_26  and  C_27
REMARK    6  A    between atoms: C_27  and  C_28
REMARK                            x       y       z     vdW  Elec       q    Type
REMARK                         _______ _______ _______ _____ _____    ______ ____
ROOT
ATOM      1  N   UNL     1      35.517 -23.298 -16.102  0.00  0.00    -0.293 NA
ATOM      2  N   UNL     1      33.727 -21.663 -18.868  0.00  0.00    -0.266 NA
ATOM      3  N   UNL     1      36.934 -21.918 -17.530  0.00  0.00    -0.316 NA
ATOM      4  N   UNL     1      37.812 -23.074 -15.695  0.00  0.00    -0.238 N 
ATOM      5  N   UNL     1      35.741 -20.842 -19.354  0.00  0.00    -0.296 N 
ATOM      6  C   UNL     1      34.420 -23.005 -16.836  0.00  0.00    +0.288 C 
ATOM      7  C   UNL     1      34.572 -22.169 -17.922  0.00  0.00    +0.215 C 
ATOM      8  C   UNL     1      35.816 -21.645 -18.245  0.00  0.00    +0.196 C 
ATOM      9  C   UNL     1      36.690 -22.743 -16.489  0.00  0.00    +0.207 C 
ATOM     10  C   UNL     1      34.473 -20.874 -19.705  0.00  0.00    +0.164 C 
ATOM     11  H   UNL     1      32.760 -21.833 -18.937  0.00  0.00    +0.126 HD
ATOM     12  H   UNL     1      38.650 -22.656 -15.999  0.00  0.00    +0.166 HD
ATOM     13  H   UNL     1      36.474 -20.351 -19.793  0.00  0.00    +0.150 HD
ENDROOT
BRANCH   4  14
ATOM     14  C   UNL     1      37.964 -23.882 -14.554  0.00  0.00    +0.060 C 
ATOM     15  C   UNL     1      37.313 -24.472 -12.300  0.00  0.00    +0.123 C 
ATOM     16  C   UNL     1      37.162 -23.669 -13.431  0.00  0.00    +0.035 C 
ATOM     17  C   UNL     1      38.918 -24.904 -14.542  0.00  0.00    +0.015 C 
ATOM     18  C   UNL     1      38.266 -25.491 -12.291  0.00  0.00    +0.020 C 
ATOM     19  C   UNL     1      39.068 -25.706 -13.412  0.00  0.00    +0.003 C 
BRANCH  15  20
ATOM     20  S   UNL     1      36.309 -24.204 -10.898  0.00  0.00    +0.057 S 
ATOM     21  O   UNL     1      36.005 -25.495 -10.297  0.00  0.00    -0.153 OA
ATOM     22  O   UNL     1      36.915 -23.154 -10.090  0.00  0.00    -0.153 OA
BRANCH  20  23
ATOM     23  N   UNL     1      34.891 -23.586 -11.625  0.00  0.00    -0.203 NA
ATOM     24  H   UNL     1      34.534 -22.810 -11.067  0.00  0.00    +0.144 HD
ATOM     25  H   UNL     1      34.186 -24.322 -11.674  0.00  0.00    +0.144 HD
ENDBRANCH  20  23
ENDBRANCH  15  20
ENDBRANCH   4  14
BRANCH   6  26
ATOM     26  O   UNL     1      33.214 -23.552 -16.471  0.00  0.00    -0.453 OA
BRANCH  26  27
ATOM     27  C   UNL     1      32.917 -23.588 -15.088  0.00  0.00    +0.208 C 
BRANCH  27  28
ATOM     28  C   UNL     1      31.401 -23.499 -14.916  0.00  0.00    +0.044 C 
ATOM     29  C   UNL     1      30.744 -22.938 -16.184  0.00  0.00    +0.004 C 
ATOM     30  C   UNL     1      30.815 -24.871 -14.558  0.00  0.00    +0.004 C 
ATOM     31  C   UNL     1      29.223 -22.889 -16.056  0.00  0.00    +0.000 C 
ATOM     32  C   UNL     1      29.294 -24.819 -14.433  0.00  0.00    +0.000 C 
ATOM     33  C   UNL     1      28.645 -24.253 -15.692  0.00  0.00    +0.000 C 
ENDBRANCH  27  28
ENDBRANCH  26  27
ENDBRANCH   6  26
TORSDOF 6
ENDMDL
MODEL 5
REMARK VINA RESULT:     -11.1      4.007      8.045
REMARK  Name = 447655
REMARK  6 active torsions:
REMARK  status: ('A' for Active; 'I' for Inactive)
REMARK    1  A    between atoms: N_4  and  C_14
REMARK    2  A    between atoms: C_6  and  O_26
REMARK    3  A    between atoms: C_15  and  S_20
REMARK    4  A    between atoms: S_20  and  N_23
REMARK    5  A    between atoms: O_26  and  C_27
REMARK    6  A    between atoms: C_27  and  C_28
REMARK                            x       y       z     vdW  Elec       q    Type
REMARK                         _______ _______ _______ _____ _____    ______ ____
ROOT
ATOM      1  N   UNL     1      35.065 -23.290 -15.887  0.00  0.00    -0.293 NA
ATOM      2  N   UNL     1      35.818 -25.190 -12.830  0.00  0.00    -0.266 NA
ATOM      3  N   UNL     1      37.434 -23.353 -15.310  0.00  0.00    -0.316 NA
ATOM      4  N   UNL     1      36.673 -22.213 -17.206  0.00  0.00    -0.238 N 
ATOM      5  N   UNL     1      37.921 -24.613 -13.288  0.00  0.00    -0.296 N 
ATOM      6  C   UNL     1      34.739 -24.039 -14.810  0.00  0.00    +0.288 C 
ATOM      7  C   UNL     1      35.757 -24.450 -13.975  0.00  0.00    +0.215 C 
ATOM      8  C   UNL     1      37.075 -24.102 -14.239  0.00  0.00    +0.196 C 
ATOM      9  C   UNL     1      36.375 -22.998 -16.068  0.00  0.00    +0.207 C 
ATOM     10  C   UNL     1      37.135 -25.261 -12.456  0.00  0.00    +0.164 C 
ATOM     11  H   UNL     1      35.057 -25.600 -12.359  0.00  0.00    +0.126 HD
ATOM     12  H   UNL     1      37.632 -22.018 -17.313  0.00  0.00    +0.166 HD
ATOM     13  H   UNL     1      38.900 -24.515 -13.238  0.00  0.00    +0.150 HD
ENDROOT
BRANCH   4  14
ATOM     14  C   UNL     1      35.866 -21.659 -18.216  0.00  0.00    +0.060 C 
ATOM     15  C   UNL     1      35.586 -20.142 -20.080  0.00  0.00    +0.123 C 
ATOM     16  C   UNL     1      36.386 -20.691 -19.078  0.00  0.00    +0.035 C 
ATOM     17  C   UNL     1      34.541 -22.077 -18.362  0.00  0.00    +0.015 C 
ATOM     18  C   UNL     1      34.263 -20.562 -20.223  0.00  0.00    +0.020 C 
ATOM     19  C   UNL     1      33.741 -21.529 -19.364  0.00  0.00    +0.003 C 
BRANCH  15  20
ATOM     20  S   UNL     1      36.238 -18.932 -21.155  0.00  0.00    +0.057 S 
ATOM     21  O   UNL     1      37.689 -18.945 -21.034  0.00  0.00    -0.153 OA
ATOM     22  O   UNL     1      35.620 -19.096 -22.464  0.00  0.00    -0.153 OA
BRANCH  20  23
ATOM     23  N   UNL     1      35.637 -17.501 -20.441  0.00  0.00    -0.203 NA
ATOM     24  H   UNL     1      36.229 -16.715 -20.706  0.00  0.00    +0.144 HD
ATOM     25  H   UNL     1      35.639 -17.602 -19.426  0.00  0.00    +0.144 HD
ENDBRANCH  20  23
ENDBRANCH  15  20
ENDBRANCH   4  14
BRANCH   6  26
ATOM     26  O   UNL     1      33.419 -24.352 -14.596  0.00  0.00    -0.453 OA
BRANCH  26  27
ATOM     27  C   UNL     1      32.719 -23.576 -13.643  0.00  0.00    +0.208 C 
BRANCH  27  28
ATOM     28  C   UNL     1      31.233 -23.603 -13.993  0.00  0.00    +0.044 C 
ATOM     29  C   UNL     1      31.001 -23.076 -15.416  0.00  0.00    +0.004 C 
ATOM     30  C   UNL     1      30.665 -25.020 -13.837  0.00  0.00    +0.004 C 
ATOM     31  C   UNL     1      29.527 -23.143 -15.809  0.00  0.00    +0.000 C 
ATOM     32  C   UNL     1      29.192 -25.084 -14.234  0.00  0.00    +0.000 C 
ATOM     33  C   UNL     1      28.965 -24.551 -15.644  0.00  0.00    +0.000 C 
ENDBRANCH  27  28
ENDBRANCH  26  27
ENDBRANCH   6  26
TORSDOF 6
ENDMDL
MODEL 6
REMARK VINA RESULT:     -11.0      2.073      2.391
REMARK  Name = 447655
REMARK  6 active torsions:
REMARK  status: ('A' for Active; 'I' for Inactive)
REMARK    1  A    between atoms: N_4  and  C_14
REMARK    2  A    between atoms: C_6  and  O_26
REMARK    3  A    between atoms: C_15  and  S_20
REMARK    4  A    between atoms: S_20  and  N_23
REMARK    5  A    between atoms: O_26  and  C_27
REMARK    6  A    between atoms: C_27  and  C_28
REMARK                            x       y       z     vdW  Elec       q    Type
REMARK                         _______ _______ _______ _____ _____    ______ ____
ROOT
ATOM      1  N   UNL     1      32.523 -23.245 -15.297  0.00  0.00    -0.293 NA
ATOM      2  N   UNL     1      29.198 -22.674 -16.762  0.00  0.00    -0.266 NA
ATOM      3  N   UNL     1      30.679 -23.523 -13.725  0.00  0.00    -0.316 NA
ATOM      4  N   UNL     1      32.901 -23.826 -13.060  0.00  0.00    -0.238 N 
ATOM      5  N   UNL     1      28.486 -23.144 -14.704  0.00  0.00    -0.296 N 
ATOM      6  C   UNL     1      31.674 -22.942 -16.305  0.00  0.00    +0.288 C 
ATOM      7  C   UNL     1      30.322 -22.926 -16.030  0.00  0.00    +0.215 C 
ATOM      8  C   UNL     1      29.854 -23.216 -14.755  0.00  0.00    +0.196 C 
ATOM      9  C   UNL     1      31.979 -23.513 -14.086  0.00  0.00    +0.207 C 
ATOM     10  C   UNL     1      28.122 -22.816 -15.925  0.00  0.00    +0.164 C 
ATOM     11  H   UNL     1      29.166 -22.434 -17.716  0.00  0.00    +0.126 HD
ATOM     12  H   UNL     1      32.478 -24.017 -12.192  0.00  0.00    +0.166 HD
ATOM     13  H   UNL     1      27.903 -23.302 -13.925  0.00  0.00    +0.150 HD
ENDROOT
BRANCH   4  14
ATOM     14  C   UNL     1      34.305 -23.918 -13.039  0.00  0.00    +0.060 C 
ATOM     15  C   UNL     1      36.450 -23.488 -14.071  0.00  0.00    +0.123 C 
ATOM     16  C   UNL     1      35.058 -23.396 -14.093  0.00  0.00    +0.035 C 
ATOM     17  C   UNL     1      34.950 -24.530 -11.961  0.00  0.00    +0.015 C 
ATOM     18  C   UNL     1      37.092 -24.099 -12.993  0.00  0.00    +0.020 C 
ATOM     19  C   UNL     1      36.341 -24.621 -11.939  0.00  0.00    +0.003 C 
BRANCH  15  20
ATOM     20  S   UNL     1      37.390 -22.835 -15.389  0.00  0.00    +0.057 S 
ATOM     21  O   UNL     1      36.683 -23.102 -16.633  0.00  0.00    -0.153 OA
ATOM     22  O   UNL     1      37.771 -21.470 -15.053  0.00  0.00    -0.153 OA
BRANCH  20  23
ATOM     23  N   UNL     1      38.781 -23.825 -15.320  0.00  0.00    -0.203 NA
ATOM     24  H   UNL     1      38.568 -24.672 -14.793  0.00  0.00    +0.144 HD
ATOM     25  H   UNL     1      39.536 -23.318 -14.859  0.00  0.00    +0.144 HD
ENDBRANCH  20  23
ENDBRANCH  15  20
ENDBRANCH   4  14
BRANCH   6  26
ATOM     26  O   UNL     1      32.193 -22.664 -17.546  0.00  0.00    -0.453 OA
BRANCH  26  27
ATOM     27  C   UNL     1      33.576 -22.897 -17.732  0.00  0.00    +0.208 C 
BRANCH  27  28
ATOM     28  C   UNL     1      34.021 -22.177 -19.004  0.00  0.00    +0.044 C 
ATOM     29  C   UNL     1      33.002 -21.102 -19.404  0.00  0.00    +0.004 C 
ATOM     30  C   UNL     1      35.416 -21.566 -18.820  0.00  0.00    +0.004 C 
ATOM     31  C   UNL     1      33.451 -20.332 -20.643  0.00  0.00    +0.000 C 
ATOM     32  C   UNL     1      35.861 -20.795 -20.061  0.00  0.00    +0.000 C 
ATOM     33  C   UNL     1      34.842 -19.733 -20.460  0.00  0.00    +0.000 C 
ENDBRANCH  27  28
ENDBRANCH  26  27
ENDBRANCH   6  26
TORSDOF 6
ENDMDL
MODEL 7
REMARK VINA RESULT:     -10.7      3.353      7.250
REMARK  Name = 447655
REMARK  6 active torsions:
REMARK  status: ('A' for Active; 'I' for Inactive)
REMARK    1  A    between atoms: N_4  and  C_14
REMARK    2  A    between atoms: C_6  and  O_26
REMARK    3  A    between atoms: C_15  and  S_20
REMARK    4  A    between atoms: S_20  and  N_23
REMARK    5  A    between atoms: O_26  and  C_27
REMARK    6  A    between atoms: C_27  and  C_28
REMARK                            x       y       z     vdW  Elec       q    Type
REMARK                         _______ _______ _______ _____ _____    ______ ____
ROOT
ATOM      1  N   UNL     1      35.210 -23.523 -14.068  0.00  0.00    -0.293 NA
ATOM      2  N   UNL     1      35.043 -24.818 -10.630  0.00  0.00    -0.266 NA
ATOM      3  N   UNL     1      37.224 -23.121 -12.752  0.00  0.00    -0.316 NA
ATOM      4  N   UNL     1      37.057 -22.403 -14.972  0.00  0.00    -0.238 N 
ATOM      5  N   UNL     1      37.103 -23.981 -10.481  0.00  0.00    -0.296 N 
ATOM      6  C   UNL     1      34.608 -24.151 -13.034  0.00  0.00    +0.288 C 
ATOM      7  C   UNL     1      35.309 -24.269 -11.851  0.00  0.00    +0.215 C 
ATOM      8  C   UNL     1      36.593 -23.756 -11.734  0.00  0.00    +0.196 C 
ATOM      9  C   UNL     1      36.464 -23.053 -13.866  0.00  0.00    +0.207 C 
ATOM     10  C   UNL     1      36.147 -24.621  -9.842  0.00  0.00    +0.164 C 
ATOM     11  H   UNL     1      34.211 -25.272 -10.364  0.00  0.00    +0.126 HD
ATOM     12  H   UNL     1      37.968 -22.073 -14.797  0.00  0.00    +0.166 HD
ATOM     13  H   UNL     1      37.988 -23.721 -10.135  0.00  0.00    +0.150 HD
ENDROOT
BRANCH   4  14
ATOM     14  C   UNL     1      36.600 -22.137 -16.275  0.00  0.00    +0.060 C 
ATOM     15  C   UNL     1      34.906 -22.354 -17.989  0.00  0.00    +0.123 C 
ATOM     16  C   UNL     1      35.359 -22.619 -16.696  0.00  0.00    +0.035 C 
ATOM     17  C   UNL     1      37.386 -21.385 -17.154  0.00  0.00    +0.015 C 
ATOM     18  C   UNL     1      35.694 -21.604 -18.864  0.00  0.00    +0.020 C 
ATOM     19  C   UNL     1      36.933 -21.121 -18.446  0.00  0.00    +0.003 C 
BRANCH  15  20
ATOM     20  S   UNL     1      33.355 -22.959 -18.513  0.00  0.00    +0.057 S 
ATOM     21  O   UNL     1      32.610 -23.388 -17.338  0.00  0.00    -0.153 OA
ATOM     22  O   UNL     1      32.767 -21.990 -19.428  0.00  0.00    -0.153 OA
BRANCH  20  23
ATOM     23  N   UNL     1      33.826 -24.339 -19.403  0.00  0.00    -0.203 NA
ATOM     24  H   UNL     1      33.735 -25.168 -18.817  0.00  0.00    +0.144 HD
ATOM     25  H   UNL     1      34.796 -24.236 -19.700  0.00  0.00    +0.144 HD
ENDBRANCH  20  23
ENDBRANCH  15  20
ENDBRANCH   4  14
BRANCH   6  26
ATOM     26  O   UNL     1      33.336 -24.640 -13.206  0.00  0.00    -0.453 OA
BRANCH  26  27
ATOM     27  C   UNL     1      32.271 -23.716 -13.083  0.00  0.00    +0.208 C 
BRANCH  27  28
ATOM     28  C   UNL     1      31.311 -23.925 -14.253  0.00  0.00    +0.044 C 
ATOM     29  C   UNL     1      30.454 -25.179 -14.035  0.00  0.00    +0.004 C 
ATOM     30  C   UNL     1      30.427 -22.688 -14.457  0.00  0.00    +0.004 C 
ATOM     31  C   UNL     1      29.450 -25.380 -15.167  0.00  0.00    +0.000 C 
ATOM     32  C   UNL     1      29.423 -22.893 -15.588  0.00  0.00    +0.000 C 
ATOM     33  C   UNL     1      28.578 -24.144 -15.372  0.00  0.00    +0.000 C 
ENDBRANCH  27  28
ENDBRANCH  26  27
ENDBRANCH   6  26
TORSDOF 6
ENDMDL
MODEL 8
REMARK VINA RESULT:     -10.7      3.746      7.437
REMARK  Name = 447655
REMARK  6 active torsions:
REMARK  status: ('A' for Active; 'I' for Inactive)
REMARK    1  A    between atoms: N_4  and  C_14
REMARK    2  A    between atoms: C_6  and  O_26
REMARK    3  A    between atoms: C_15  and  S_20
REMARK    4  A    between atoms: S_20  and  N_23
REMARK    5  A    between atoms: O_26  and  C_27
REMARK    6  A    between atoms: C_27  and  C_28
REMARK                            x       y       z     vdW  Elec       q    Type
REMARK                         _______ _______ _______ _____ _____    ______ ____
ROOT
ATOM      1  N   UNL     1      33.456 -22.995 -16.363  0.00  0.00    -0.293 NA
ATOM      2  N   UNL     1      31.128 -24.578 -13.996  0.00  0.00    -0.266 NA
ATOM      3  N   UNL     1      31.118 -22.911 -17.056  0.00  0.00    -0.316 NA
ATOM      4  N   UNL     1      32.812 -21.980 -18.373  0.00  0.00    -0.238 N 
ATOM      5  N   UNL     1      29.588 -23.959 -15.484  0.00  0.00    -0.296 N 
ATOM      6  C   UNL     1      33.139 -23.654 -15.226  0.00  0.00    +0.288 C 
ATOM      7  C   UNL     1      31.811 -23.947 -14.996  0.00  0.00    +0.215 C 
ATOM      8  C   UNL     1      30.834 -23.572 -15.908  0.00  0.00    +0.196 C 
ATOM      9  C   UNL     1      32.439 -22.668 -17.196  0.00  0.00    +0.207 C 
ATOM     10  C   UNL     1      29.800 -24.561 -14.333  0.00  0.00    +0.164 C 
ATOM     11  H   UNL     1      31.518 -24.972 -13.183  0.00  0.00    +0.126 HD
ATOM     12  H   UNL     1      32.054 -21.755 -18.959  0.00  0.00    +0.166 HD
ATOM     13  H   UNL     1      28.727 -23.820 -15.940  0.00  0.00    +0.150 HD
ENDROOT
BRANCH   4  14
ATOM     14  C   UNL     1      34.057 -21.553 -18.870  0.00  0.00    +0.060 C 
ATOM     15  C   UNL     1      35.352 -20.154 -20.360  0.00  0.00    +0.123 C 
ATOM     16  C   UNL     1      34.117 -20.578 -19.868  0.00  0.00    +0.035 C 
ATOM     17  C   UNL     1      35.239 -22.101 -18.364  0.00  0.00    +0.015 C 
ATOM     18  C   UNL     1      36.530 -20.704 -19.853  0.00  0.00    +0.020 C 
ATOM     19  C   UNL     1      36.473 -21.677 -18.856  0.00  0.00    +0.003 C 
BRANCH  15  20
ATOM     20  S   UNL     1      35.424 -18.936 -21.608  0.00  0.00    +0.057 S 
ATOM     21  O   UNL     1      36.763 -18.943 -22.179  0.00  0.00    -0.153 OA
ATOM     22  O   UNL     1      34.266 -19.095 -22.476  0.00  0.00    -0.153 OA
BRANCH  20  23
ATOM     23  N   UNL     1      35.226 -17.511 -20.685  0.00  0.00    -0.203 NA
ATOM     24  H   UNL     1      34.609 -16.868 -21.182  0.00  0.00    +0.144 HD
ATOM     25  H   UNL     1      36.134 -17.070 -20.542  0.00  0.00    +0.144 HD
ENDBRANCH  20  23
ENDBRANCH  15  20
ENDBRANCH   4  14
BRANCH   6  26
ATOM     26  O   UNL     1      34.147 -24.000 -14.360  0.00  0.00    -0.453 OA
BRANCH  26  27
ATOM     27  C   UNL     1      35.439 -23.498 -14.642  0.00  0.00    +0.208 C 
BRANCH  27  28
ATOM     28  C   UNL     1      36.458 -24.604 -14.374  0.00  0.00    +0.044 C 
ATOM     29  C   UNL     1      37.887 -24.096 -14.613  0.00  0.00    +0.004 C 
ATOM     30  C   UNL     1      36.305 -25.147 -12.947  0.00  0.00    +0.004 C 
ATOM     31  C   UNL     1      38.926 -25.169 -14.300  0.00  0.00    +0.000 C 
ATOM     32  C   UNL     1      37.348 -26.218 -12.636  0.00  0.00    +0.000 C 
ATOM     33  C   UNL     1      38.765 -25.712 -12.884  0.00  0.00    +0.000 C 
ENDBRANCH  27  28
ENDBRANCH  26  27
ENDBRANCH   6  26
TORSDOF 6
ENDMDL
MODEL 9
REMARK VINA RESULT:     -10.5      3.534      6.195
REMARK  Name = 447655
REMARK  6 active torsions:
REMARK  status: ('A' for Active; 'I' for Inactive)
REMARK    1  A    between atoms: N_4  and  C_14
REMARK    2  A    between atoms: C_6  and  O_26
REMARK    3  A    between atoms: C_15  and  S_20
REMARK    4  A    between atoms: S_20  and  N_23
REMARK    5  A    between atoms: O_26  and  C_27
REMARK    6  A    between atoms: C_27  and  C_28
REMARK                            x       y       z     vdW  Elec       q    Type
REMARK                         _______ _______ _______ _____ _____    ______ ____
ROOT
ATOM      1  N   UNL     1      33.427 -23.566 -15.879  0.00  0.00    -0.293 NA
ATOM      2  N   UNL     1      36.844 -22.448 -16.652  0.00  0.00    -0.266 NA
ATOM      3  N   UNL     1      34.849 -23.276 -13.919  0.00  0.00    -0.316 NA
ATOM      4  N   UNL     1      32.627 -23.980 -13.717  0.00  0.00    -0.238 N 
ATOM      5  N   UNL     1      37.105 -22.535 -14.441  0.00  0.00    -0.296 N 
ATOM      6  C   UNL     1      34.424 -23.192 -16.711  0.00  0.00    +0.288 C 
ATOM      7  C   UNL     1      35.641 -22.858 -16.154  0.00  0.00    +0.215 C 
ATOM      8  C   UNL     1      35.828 -22.905 -14.778  0.00  0.00    +0.196 C 
ATOM      9  C   UNL     1      33.697 -23.584 -14.552  0.00  0.00    +0.207 C 
ATOM     10  C   UNL     1      37.689 -22.267 -15.589  0.00  0.00    +0.164 C 
ATOM     11  H   UNL     1      37.063 -22.306 -17.601  0.00  0.00    +0.126 HD
ATOM     12  H   UNL     1      32.852 -23.982 -12.758  0.00  0.00    +0.166 HD
ATOM     13  H   UNL     1      37.498 -22.483 -13.540  0.00  0.00    +0.150 HD
ENDROOT
BRANCH   4  14
ATOM     14  C   UNL     1      31.303 -24.370 -13.989  0.00  0.00    +0.060 C 
ATOM     15  C   UNL     1      29.213 -24.023 -15.155  0.00  0.00    +0.123 C 
ATOM     16  C   UNL     1      30.526 -23.635 -14.886  0.00  0.00    +0.035 C 
ATOM     17  C   UNL     1      30.762 -25.496 -13.362  0.00  0.00    +0.015 C 
ATOM     18  C   UNL     1      28.675 -25.147 -14.529  0.00  0.00    +0.020 C 
ATOM     19  C   UNL     1      29.450 -25.884 -13.632  0.00  0.00    +0.003 C 
BRANCH  15  20
ATOM     20  S   UNL     1      28.243 -23.103 -16.278  0.00  0.00    +0.057 S 
ATOM     21  O   UNL     1      29.036 -21.981 -16.758  0.00  0.00    -0.153 OA
ATOM     22  O   UNL     1      27.641 -24.024 -17.232  0.00  0.00    -0.153 OA
BRANCH  20  23
ATOM     23  N   UNL     1      27.019 -22.511 -15.242  0.00  0.00    -0.203 NA
ATOM     24  H   UNL     1      26.266 -22.109 -15.802  0.00  0.00    +0.144 HD
ATOM     25  H   UNL     1      27.409 -21.793 -14.632  0.00  0.00    +0.144 HD
ENDBRANCH  20  23
ENDBRANCH  15  20
ENDBRANCH   4  14
BRANCH   6  26
ATOM     26  O   UNL     1      34.183 -23.164 -18.063  0.00  0.00    -0.453 OA
BRANCH  26  27
ATOM     27  C   UNL     1      33.497 -22.035 -18.570  0.00  0.00    +0.208 C 
BRANCH  27  28
ATOM     28  C   UNL     1      34.327 -21.434 -19.703  0.00  0.00    +0.044 C 
ATOM     29  C   UNL     1      33.562 -20.296 -20.392  0.00  0.00    +0.004 C 
ATOM     30  C   UNL     1      35.683 -20.941 -19.179  0.00  0.00    +0.004 C 
ATOM     31  C   UNL     1      34.392 -19.644 -21.494  0.00  0.00    +0.000 C 
ATOM     32  C   UNL     1      36.509 -20.287 -20.284  0.00  0.00    +0.000 C 
ATOM     33  C   UNL     1      35.742 -19.163 -20.972  0.00  0.00    +0.000 C 
ENDBRANCH  27  28
ENDBRANCH  26  27
ENDBRANCH   6  26
TORSDOF 6
ENDMDL
