MODEL 1
REMARK VINA RESULT:     -12.1      0.000      0.000
REMARK  Name = 5567
REMARK  8 active torsions:
REMARK  status: ('A' for Active; 'I' for Inactive)
REMARK    1  A    between atoms: N_1  and  C_20
REMARK    2  A    between atoms: C_2  and  C_8
REMARK    3  A    between atoms: C_2  and  O_18
REMARK    4  A    between atoms: C_11  and  C_17
REMARK    5  A    between atoms: C_20  and  C_21
REMARK    6  A    between atoms: C_21  and  C_22
REMARK    7  A    between atoms: C_22  and  C_24
REMARK    8  A    between atoms: C_24  and  C_26
REMARK                            x       y       z     vdW  Elec       q    Type
REMARK                         _______ _______ _______ _____ _____    ______ ____
ROOT
ATOM      1  N   UNL     1      35.293 -20.313 -19.850  0.00  0.00    +0.387 N 
ATOM      2  C   UNL     1      33.924 -22.430 -18.278  0.00  0.00    +0.103 C 
ATOM      3  C   UNL     1      33.188 -21.267 -18.980  0.00  0.00    +0.008 C 
ATOM      4  C   UNL     1      35.395 -22.012 -18.044  0.00  0.00    +0.008 C 
ATOM      5  C   UNL     1      33.935 -20.737 -20.209  0.00  0.00    -0.075 C 
ATOM      6  C   UNL     1      36.065 -21.429 -19.295  0.00  0.00    -0.075 C 
ATOM      7  H   UNL     1      35.218 -19.593 -19.131  0.00  0.00    -0.080 HD
ENDROOT
BRANCH   2   8
ATOM      8  C   UNL     1      33.287 -22.902 -16.971  0.00  0.00    +0.002 C 
ATOM      9  C   UNL     1      31.906 -22.819 -16.800  0.00  0.00    +0.002 C 
ATOM     10  C   UNL     1      34.088 -23.418 -15.953  0.00  0.00    -0.002 C 
ATOM     11  C   UNL     1      31.324 -23.252 -15.608  0.00  0.00    +0.071 C 
ATOM     12  C   UNL     1      33.506 -23.851 -14.761  0.00  0.00    -0.000 C 
ATOM     13  C   UNL     1      32.124 -23.767 -14.589  0.00  0.00    +0.004 C 
BRANCH  11  17
ATOM     14  F   UNL     1      29.204 -22.534 -16.454  0.00  0.00    -0.166 F 
ATOM     15  F   UNL     1      29.234 -24.377 -15.310  0.00  0.00    -0.166 F 
ATOM     16  F   UNL     1      29.499 -22.469 -14.300  0.00  0.00    -0.166 F 
ATOM     17  C   UNL     1      29.847 -23.161 -15.424  0.00  0.00    +0.419 C 
ENDBRANCH  11  17
ENDBRANCH   2   8
BRANCH   2  18
ATOM     18  O   UNL     1      33.885 -23.566 -19.155  0.00  0.00    -0.383 OA
ATOM     19  H   UNL     1      33.228 -23.414 -19.852  0.00  0.00    +0.211 HD
ENDBRANCH   2  18
BRANCH   1  20
ATOM     20  C   UNL     1      35.976 -19.743 -21.011  0.00  0.00    -0.077 C 
BRANCH  20  21
ATOM     21  C   UNL     1      34.974 -19.017 -21.911  0.00  0.00    -0.015 C 
BRANCH  21  22
ATOM     22  C   UNL     1      35.643 -17.956 -22.789  0.00  0.00    +0.067 C 
BRANCH  22  24
ATOM     23  O   UNL     1      34.192 -17.923 -24.717  0.00  0.00    -0.291 OA
ATOM     24  C   UNL     1      34.690 -17.304 -23.781  0.00  0.00    +0.173 C 
BRANCH  24  26
ATOM     25  F   UNL     1      33.361 -11.928 -23.069  0.00  0.00    -0.204 F 
ATOM     26  C   UNL     1      34.336 -15.868 -23.591  0.00  0.00    +0.035 C 
ATOM     27  C   UNL     1      33.704 -15.202 -24.617  0.00  0.00    +0.005 C 
ATOM     28  C   UNL     1      34.653 -15.262 -22.397  0.00  0.00    +0.005 C 
ATOM     29  C   UNL     1      33.372 -13.858 -24.439  0.00  0.00    +0.030 C 
ATOM     30  C   UNL     1      34.322 -13.919 -22.219  0.00  0.00    +0.030 C 
ATOM     31  C   UNL     1      33.680 -13.217 -23.240  0.00  0.00    +0.140 C 
ENDBRANCH  24  26
ENDBRANCH  22  24
ENDBRANCH  21  22
ENDBRANCH  20  21
ENDBRANCH   1  20
TORSDOF 8
ENDMDL
MODEL 2
REMARK VINA RESULT:     -11.3      2.168      2.811
REMARK  Name = 5567
REMARK  8 active torsions:
REMARK  status: ('A' for Active; 'I' for Inactive)
REMARK    1  A    between atoms: N_1  and  C_20
REMARK    2  A    between atoms: C_2  and  C_8
REMARK    3  A    between atoms: C_2  and  O_18
REMARK    4  A    between atoms: C_11  and  C_17
REMARK    5  A    between atoms: C_20  and  C_21
REMARK    6  A    between atoms: C_21  and  C_22
REMARK    7  A    between atoms: C_22  and  C_24
REMARK    8  A    between atoms: C_24  and  C_26
REMARK                            x       y       z     vdW  Elec       q    Type
REMARK                         _______ _______ _______ _____ _____    ______ ____
ROOT
ATOM      1  N   UNL     1      34.698 -20.385 -19.956  0.00  0.00    +0.387 N 
ATOM      2  C   UNL     1      33.783 -22.544 -18.131  0.00  0.00    +0.103 C 
ATOM      3  C   UNL     1      32.847 -21.473 -18.733  0.00  0.00    +0.008 C 
ATOM      4  C   UNL     1      35.230 -22.000 -18.148  0.00  0.00    +0.008 C 
ATOM      5  C   UNL     1      33.341 -20.931 -20.080  0.00  0.00    -0.075 C 
ATOM      6  C   UNL     1      35.641 -21.413 -19.505  0.00  0.00    -0.075 C 
ATOM      7  H   UNL     1      34.676 -19.647 -19.252  0.00  0.00    -0.080 HD
ENDROOT
BRANCH   2   8
ATOM      8  C   UNL     1      33.403 -23.017 -16.727  0.00  0.00    +0.002 C 
ATOM      9  C   UNL     1      34.401 -23.329 -15.804  0.00  0.00    +0.002 C 
ATOM     10  C   UNL     1      32.060 -23.131 -16.371  0.00  0.00    -0.002 C 
ATOM     11  C   UNL     1      34.055 -23.758 -14.523  0.00  0.00    +0.071 C 
ATOM     12  C   UNL     1      31.714 -23.561 -15.089  0.00  0.00    -0.000 C 
ATOM     13  C   UNL     1      32.712 -23.875 -14.166  0.00  0.00    +0.004 C 
BRANCH  11  17
ATOM     14  F   UNL     1      35.919 -25.133 -13.926  0.00  0.00    -0.166 F 
ATOM     15  F   UNL     1      35.978 -23.062 -13.283  0.00  0.00    -0.166 F 
ATOM     16  F   UNL     1      34.616 -24.458 -12.321  0.00  0.00    -0.166 F 
ATOM     17  C   UNL     1      35.121 -24.095 -13.536  0.00  0.00    +0.419 C 
ENDBRANCH  11  17
ENDBRANCH   2   8
BRANCH   2  18
ATOM     18  O   UNL     1      33.703 -23.713 -18.962  0.00  0.00    -0.383 OA
ATOM     19  H   UNL     1      32.786 -24.028 -18.989  0.00  0.00    +0.211 HD
ENDBRANCH   2  18
BRANCH   1  20
ATOM     20  C   UNL     1      35.136 -19.807 -21.225  0.00  0.00    -0.077 C 
BRANCH  20  21
ATOM     21  C   UNL     1      35.538 -18.344 -21.029  0.00  0.00    -0.015 C 
BRANCH  21  22
ATOM     22  C   UNL     1      36.038 -17.701 -22.326  0.00  0.00    +0.067 C 
BRANCH  22  24
ATOM     23  O   UNL     1      34.367 -18.158 -24.007  0.00  0.00    -0.291 OA
ATOM     24  C   UNL     1      34.917 -17.329 -23.287  0.00  0.00    +0.173 C 
BRANCH  24  26
ATOM     25  F   UNL     1      33.211 -12.016 -23.472  0.00  0.00    -0.204 F 
ATOM     26  C   UNL     1      34.461 -15.911 -23.336  0.00  0.00    +0.035 C 
ATOM     27  C   UNL     1      34.661 -15.113 -22.231  0.00  0.00    +0.005 C 
ATOM     28  C   UNL     1      33.857 -15.450 -24.484  0.00  0.00    +0.005 C 
ATOM     29  C   UNL     1      34.234 -13.786 -22.278  0.00  0.00    +0.030 C 
ATOM     30  C   UNL     1      33.431 -14.123 -24.531  0.00  0.00    +0.030 C 
ATOM     31  C   UNL     1      33.620 -13.290 -23.428  0.00  0.00    +0.140 C 
ENDBRANCH  24  26
ENDBRANCH  22  24
ENDBRANCH  21  22
ENDBRANCH  20  21
ENDBRANCH   1  20
TORSDOF 8
ENDMDL
MODEL 3
REMARK VINA RESULT:     -11.2      3.160     11.542
REMARK  Name = 5567
REMARK  8 active torsions:
REMARK  status: ('A' for Active; 'I' for Inactive)
REMARK    1  A    between atoms: N_1  and  C_20
REMARK    2  A    between atoms: C_2  and  C_8
REMARK    3  A    between atoms: C_2  and  O_18
REMARK    4  A    between atoms: C_11  and  C_17
REMARK    5  A    between atoms: C_20  and  C_21
REMARK    6  A    between atoms: C_21  and  C_22
REMARK    7  A    between atoms: C_22  and  C_24
REMARK    8  A    between atoms: C_24  and  C_26
REMARK                            x       y       z     vdW  Elec       q    Type
REMARK                         _______ _______ _______ _____ _____    ______ ____
ROOT
ATOM      1  N   UNL     1      34.695 -15.297 -23.541  0.00  0.00    +0.387 N 
ATOM      2  C   UNL     1      33.036 -12.928 -22.859  0.00  0.00    +0.103 C 
ATOM      3  C   UNL     1      33.279 -13.421 -24.303  0.00  0.00    +0.008 C 
ATOM      4  C   UNL     1      34.177 -13.456 -21.959  0.00  0.00    +0.008 C 
ATOM      5  C   UNL     1      33.553 -14.928 -24.386  0.00  0.00    -0.075 C 
ATOM      6  C   UNL     1      34.445 -14.956 -22.137  0.00  0.00    -0.075 C 
ATOM      7  H   UNL     1      35.504 -14.761 -23.856  0.00  0.00    -0.080 HD
ENDROOT
BRANCH   2   8
ATOM      8  C   UNL     1      32.892 -11.413 -22.710  0.00  0.00    +0.002 C 
ATOM      9  C   UNL     1      33.785 -10.562 -23.359  0.00  0.00    +0.002 C 
ATOM     10  C   UNL     1      31.866 -10.886 -21.927  0.00  0.00    -0.002 C 
ATOM     11  C   UNL     1      33.653  -9.179 -23.225  0.00  0.00    +0.071 C 
ATOM     12  C   UNL     1      31.734  -9.503 -21.793  0.00  0.00    -0.000 C 
ATOM     13  C   UNL     1      32.628  -8.651 -22.441  0.00  0.00    +0.004 C 
BRANCH  11  17
ATOM     14  F   UNL     1      35.345  -8.884 -24.889  0.00  0.00    -0.166 F 
ATOM     15  F   UNL     1      34.005  -7.215 -24.542  0.00  0.00    -0.166 F 
ATOM     16  F   UNL     1      35.519  -7.715 -23.064  0.00  0.00    -0.166 F 
ATOM     17  C   UNL     1      34.609  -8.268 -23.917  0.00  0.00    +0.419 C 
ENDBRANCH  11  17
ENDBRANCH   2   8
BRANCH   2  18
ATOM     18  O   UNL     1      31.785 -13.476 -22.413  0.00  0.00    -0.383 OA
ATOM     19  H   UNL     1      31.187 -12.754 -22.164  0.00  0.00    +0.211 HD
ENDBRANCH   2  18
BRANCH   1  20
ATOM     20  C   UNL     1      34.995 -16.721 -23.679  0.00  0.00    -0.077 C 
BRANCH  20  21
ATOM     21  C   UNL     1      35.485 -17.290 -22.345  0.00  0.00    -0.015 C 
BRANCH  21  22
ATOM     22  C   UNL     1      35.473 -18.821 -22.327  0.00  0.00    +0.067 C 
BRANCH  22  24
ATOM     23  O   UNL     1      37.202 -19.166 -20.679  0.00  0.00    -0.291 OA
ATOM     24  C   UNL     1      36.059 -19.415 -21.054  0.00  0.00    +0.173 C 
BRANCH  24  26
ATOM     25  F   UNL     1      32.856 -22.772 -17.948  0.00  0.00    -0.204 F 
ATOM     26  C   UNL     1      35.204 -20.312 -20.226  0.00  0.00    +0.035 C 
ATOM     27  C   UNL     1      35.814 -21.213 -19.382  0.00  0.00    +0.005 C 
ATOM     28  C   UNL     1      33.836 -20.205 -20.333  0.00  0.00    +0.005 C 
ATOM     29  C   UNL     1      35.014 -22.052 -18.606  0.00  0.00    +0.030 C 
ATOM     30  C   UNL     1      33.036 -21.044 -19.558  0.00  0.00    +0.030 C 
ATOM     31  C   UNL     1      33.625 -21.967 -18.693  0.00  0.00    +0.140 C 
ENDBRANCH  24  26
ENDBRANCH  22  24
ENDBRANCH  21  22
ENDBRANCH  20  21
ENDBRANCH   1  20
TORSDOF 8
ENDMDL
MODEL 4
REMARK VINA RESULT:     -11.2      3.148     11.335
REMARK  Name = 5567
REMARK  8 active torsions:
REMARK  status: ('A' for Active; 'I' for Inactive)
REMARK    1  A    between atoms: N_1  and  C_20
REMARK    2  A    between atoms: C_2  and  C_8
REMARK    3  A    between atoms: C_2  and  O_18
REMARK    4  A    between atoms: C_11  and  C_17
REMARK    5  A    between atoms: C_20  and  C_21
REMARK    6  A    between atoms: C_21  and  C_22
REMARK    7  A    between atoms: C_22  and  C_24
REMARK    8  A    between atoms: C_24  and  C_26
REMARK                            x       y       z     vdW  Elec       q    Type
REMARK                         _______ _______ _______ _____ _____    ______ ____
ROOT
ATOM      1  N   UNL     1      34.623 -15.586 -23.714  0.00  0.00    +0.387 N 
ATOM      2  C   UNL     1      33.423 -12.884 -23.418  0.00  0.00    +0.103 C 
ATOM      3  C   UNL     1      33.575 -13.614 -24.771  0.00  0.00    +0.008 C 
ATOM      4  C   UNL     1      34.446 -13.474 -22.421  0.00  0.00    +0.008 C 
ATOM      5  C   UNL     1      33.569 -15.141 -24.634  0.00  0.00    -0.075 C 
ATOM      6  C   UNL     1      34.436 -15.008 -22.379  0.00  0.00    -0.075 C 
ATOM      7  H   UNL     1      35.517 -15.256 -24.078  0.00  0.00    -0.080 HD
ENDROOT
BRANCH   2   8
ATOM      8  C   UNL     1      33.558 -11.362 -23.488  0.00  0.00    +0.002 C 
ATOM      9  C   UNL     1      32.683 -10.552 -22.765  0.00  0.00    +0.002 C 
ATOM     10  C   UNL     1      34.558 -10.788 -24.271  0.00  0.00    -0.002 C 
ATOM     11  C   UNL     1      32.807  -9.164 -22.827  0.00  0.00    +0.071 C 
ATOM     12  C   UNL     1      34.682  -9.400 -24.333  0.00  0.00    -0.000 C 
ATOM     13  C   UNL     1      33.806  -8.588 -23.611  0.00  0.00    +0.004 C 
BRANCH  11  17
ATOM     14  F   UNL     1      32.391  -7.072 -21.744  0.00  0.00    -0.166 F 
ATOM     15  F   UNL     1      30.705  -8.029 -22.717  0.00  0.00    -0.166 F 
ATOM     16  F   UNL     1      31.500  -8.850 -20.867  0.00  0.00    -0.166 F 
ATOM     17  C   UNL     1      31.870  -8.296 -22.057  0.00  0.00    +0.419 C 
ENDBRANCH  11  17
ENDBRANCH   2   8
BRANCH   2  18
ATOM     18  O   UNL     1      32.092 -13.127 -22.936  0.00  0.00    -0.383 OA
ATOM     19  H   UNL     1      31.452 -12.921 -23.635  0.00  0.00    +0.211 HD
ENDBRANCH   2  18
BRANCH   1  20
ATOM     20  C   UNL     1      34.658 -17.046 -23.641  0.00  0.00    -0.077 C 
BRANCH  20  21
ATOM     21  C   UNL     1      35.335 -17.495 -22.345  0.00  0.00    -0.015 C 
BRANCH  21  22
ATOM     22  C   UNL     1      35.568 -19.008 -22.305  0.00  0.00    +0.067 C 
BRANCH  22  24
ATOM     23  O   UNL     1      37.204 -19.187 -20.539  0.00  0.00    -0.291 OA
ATOM     24  C   UNL     1      36.096 -19.503 -20.966  0.00  0.00    +0.173 C 
BRANCH  24  26
ATOM     25  F   UNL     1      32.833 -22.810 -17.868  0.00  0.00    -0.204 F 
ATOM     26  C   UNL     1      35.225 -20.385 -20.138  0.00  0.00    +0.035 C 
ATOM     27  C   UNL     1      33.859 -20.300 -20.293  0.00  0.00    +0.005 C 
ATOM     28  C   UNL     1      35.818 -21.254 -19.250  0.00  0.00    +0.005 C 
ATOM     29  C   UNL     1      33.044 -21.126 -19.519  0.00  0.00    +0.030 C 
ATOM     30  C   UNL     1      35.003 -22.080 -18.476  0.00  0.00    +0.030 C 
ATOM     31  C   UNL     1      33.616 -22.016 -18.611  0.00  0.00    +0.140 C 
ENDBRANCH  24  26
ENDBRANCH  22  24
ENDBRANCH  21  22
ENDBRANCH  20  21
ENDBRANCH   1  20
TORSDOF 8
ENDMDL
MODEL 5
REMARK VINA RESULT:     -11.1      3.474      5.963
REMARK  Name = 5567
REMARK  8 active torsions:
REMARK  status: ('A' for Active; 'I' for Inactive)
REMARK    1  A    between atoms: N_1  and  C_20
REMARK    2  A    between atoms: C_2  and  C_8
REMARK    3  A    between atoms: C_2  and  O_18
REMARK    4  A    between atoms: C_11  and  C_17
REMARK    5  A    between atoms: C_20  and  C_21
REMARK    6  A    between atoms: C_21  and  C_22
REMARK    7  A    between atoms: C_22  and  C_24
REMARK    8  A    between atoms: C_24  and  C_26
REMARK                            x       y       z     vdW  Elec       q    Type
REMARK                         _______ _______ _______ _____ _____    ______ ____
ROOT
ATOM      1  N   UNL     1      34.056 -16.078 -23.479  0.00  0.00    +0.387 N 
ATOM      2  C   UNL     1      35.590 -18.171 -22.033  0.00  0.00    +0.103 C 
ATOM      3  C   UNL     1      34.684 -18.456 -23.251  0.00  0.00    +0.008 C 
ATOM      4  C   UNL     1      35.138 -16.844 -21.381  0.00  0.00    +0.008 C 
ATOM      5  C   UNL     1      34.553 -17.257 -24.197  0.00  0.00    -0.075 C 
ATOM      6  C   UNL     1      34.963 -15.702 -22.390  0.00  0.00    -0.075 C 
ATOM      7  H   UNL     1      33.154 -16.318 -23.069  0.00  0.00    -0.080 HD
ENDROOT
BRANCH   2   8
ATOM      8  C   UNL     1      35.643 -19.290 -20.992  0.00  0.00    +0.002 C 
ATOM      9  C   UNL     1      34.482 -19.986 -20.659  0.00  0.00    +0.002 C 
ATOM     10  C   UNL     1      36.853 -19.614 -20.380  0.00  0.00    -0.002 C 
ATOM     11  C   UNL     1      34.530 -21.008 -19.710  0.00  0.00    +0.071 C 
ATOM     12  C   UNL     1      36.901 -20.636 -19.431  0.00  0.00    -0.000 C 
ATOM     13  C   UNL     1      35.740 -21.332 -19.096  0.00  0.00    +0.004 C 
BRANCH  11  17
ATOM     14  F   UNL     1      32.739 -21.357 -18.163  0.00  0.00    -0.166 F 
ATOM     15  F   UNL     1      32.286 -21.617 -20.269  0.00  0.00    -0.166 F 
ATOM     16  F   UNL     1      33.497 -23.094 -19.229  0.00  0.00    -0.166 F 
ATOM     17  C   UNL     1      33.289 -21.752 -19.351  0.00  0.00    +0.419 C 
ENDBRANCH  11  17
ENDBRANCH   2   8
BRANCH   2  18
ATOM     18  O   UNL     1      36.937 -18.032 -22.513  0.00  0.00    -0.383 OA
ATOM     19  H   UNL     1      37.267 -18.896 -22.805  0.00  0.00    +0.211 HD
ENDBRANCH   2  18
BRANCH   1  20
ATOM     20  C   UNL     1      33.868 -14.958 -24.401  0.00  0.00    -0.077 C 
BRANCH  20  21
ATOM     21  C   UNL     1      33.146 -13.808 -23.695  0.00  0.00    -0.015 C 
BRANCH  21  22
ATOM     22  C   UNL     1      34.074 -12.622 -23.418  0.00  0.00    +0.067 C 
BRANCH  22  24
ATOM     23  O   UNL     1      33.652 -11.585 -25.556  0.00  0.00    -0.291 OA
ATOM     24  C   UNL     1      33.841 -11.442 -24.351  0.00  0.00    +0.173 C 
BRANCH  24  26
ATOM     25  F   UNL     1      33.767  -6.298 -22.179  0.00  0.00    -0.204 F 
ATOM     26  C   UNL     1      33.821 -10.068 -23.773  0.00  0.00    +0.035 C 
ATOM     27  C   UNL     1      32.756  -9.700 -22.979  0.00  0.00    +0.005 C 
ATOM     28  C   UNL     1      34.867  -9.218 -24.051  0.00  0.00    +0.005 C 
ATOM     29  C   UNL     1      32.738  -8.415 -22.437  0.00  0.00    +0.030 C 
ATOM     30  C   UNL     1      34.849  -7.933 -23.508  0.00  0.00    +0.030 C 
ATOM     31  C   UNL     1      33.784  -7.532 -22.701  0.00  0.00    +0.140 C 
ENDBRANCH  24  26
ENDBRANCH  22  24
ENDBRANCH  21  22
ENDBRANCH  20  21
ENDBRANCH   1  20
TORSDOF 8
ENDMDL
MODEL 6
REMARK VINA RESULT:     -10.7      6.514      9.947
REMARK  Name = 5567
REMARK  8 active torsions:
REMARK  status: ('A' for Active; 'I' for Inactive)
REMARK    1  A    between atoms: N_1  and  C_20
REMARK    2  A    between atoms: C_2  and  C_8
REMARK    3  A    between atoms: C_2  and  O_18
REMARK    4  A    between atoms: C_11  and  C_17
REMARK    5  A    between atoms: C_20  and  C_21
REMARK    6  A    between atoms: C_21  and  C_22
REMARK    7  A    between atoms: C_22  and  C_24
REMARK    8  A    between atoms: C_24  and  C_26
REMARK                            x       y       z     vdW  Elec       q    Type
REMARK                         _______ _______ _______ _____ _____    ______ ____
ROOT
ATOM      1  N   UNL     1      31.671 -11.873 -21.341  0.00  0.00    +0.387 N 
ATOM      2  C   UNL     1      33.793 -13.768 -22.197  0.00  0.00    +0.103 C 
ATOM      3  C   UNL     1      33.045 -12.822 -23.162  0.00  0.00    +0.008 C 
ATOM      4  C   UNL     1      32.921 -13.979 -20.938  0.00  0.00    +0.008 C 
ATOM      5  C   UNL     1      32.538 -11.546 -22.479  0.00  0.00    -0.075 C 
ATOM      6  C   UNL     1      32.391 -12.668 -20.341  0.00  0.00    -0.075 C 
ATOM      7  H   UNL     1      30.893 -12.433 -21.689  0.00  0.00    -0.080 HD
ENDROOT
BRANCH   2   8
ATOM      8  C   UNL     1      34.199 -15.114 -22.799  0.00  0.00    +0.002 C 
ATOM      9  C   UNL     1      34.890 -16.043 -22.024  0.00  0.00    +0.002 C 
ATOM     10  C   UNL     1      33.875 -15.409 -24.122  0.00  0.00    -0.002 C 
ATOM     11  C   UNL     1      35.260 -17.272 -22.572  0.00  0.00    +0.071 C 
ATOM     12  C   UNL     1      34.245 -16.638 -24.671  0.00  0.00    -0.000 C 
ATOM     13  C   UNL     1      34.938 -17.568 -23.896  0.00  0.00    +0.004 C 
BRANCH  11  17
ATOM     14  F   UNL     1      35.365 -19.470 -21.636  0.00  0.00    -0.166 F 
ATOM     15  F   UNL     1      37.244 -18.562 -22.228  0.00  0.00    -0.166 F 
ATOM     16  F   UNL     1      36.198 -17.839 -20.463  0.00  0.00    -0.166 F 
ATOM     17  C   UNL     1      36.002 -18.266 -21.744  0.00  0.00    +0.419 C 
ENDBRANCH  11  17
ENDBRANCH   2   8
BRANCH   2  18
ATOM     18  O   UNL     1      35.024 -13.130 -21.823  0.00  0.00    -0.383 OA
ATOM     19  H   UNL     1      35.734 -13.790 -21.791  0.00  0.00    +0.211 HD
ENDBRANCH   2  18
BRANCH   1  20
ATOM     20  C   UNL     1      31.135 -10.653 -20.738  0.00  0.00    -0.077 C 
BRANCH  20  21
ATOM     21  C   UNL     1      31.751  -9.420 -21.401  0.00  0.00    -0.015 C 
BRANCH  21  22
ATOM     22  C   UNL     1      32.332  -8.439 -20.378  0.00  0.00    +0.067 C 
BRANCH  22  24
ATOM     23  O   UNL     1      31.565  -6.155 -20.236  0.00  0.00    -0.291 OA
ATOM     24  C   UNL     1      32.254  -6.985 -20.823  0.00  0.00    +0.173 C 
BRANCH  24  26
ATOM     25  F   UNL     1      35.275  -5.376 -25.234  0.00  0.00    -0.204 F 
ATOM     26  C   UNL     1      33.061  -6.555 -21.999  0.00  0.00    +0.035 C 
ATOM     27  C   UNL     1      34.251  -7.198 -22.256  0.00  0.00    +0.005 C 
ATOM     28  C   UNL     1      32.586  -5.532 -22.788  0.00  0.00    +0.005 C 
ATOM     29  C   UNL     1      35.006  -6.796 -23.358  0.00  0.00    +0.030 C 
ATOM     30  C   UNL     1      33.341  -5.130 -23.890  0.00  0.00    +0.030 C 
ATOM     31  C   UNL     1      34.551  -5.762 -24.176  0.00  0.00    +0.140 C 
ENDBRANCH  24  26
ENDBRANCH  22  24
ENDBRANCH  21  22
ENDBRANCH  20  21
ENDBRANCH   1  20
TORSDOF 8
ENDMDL
MODEL 7
REMARK VINA RESULT:     -10.4      4.890      6.237
REMARK  Name = 5567
REMARK  8 active torsions:
REMARK  status: ('A' for Active; 'I' for Inactive)
REMARK    1  A    between atoms: N_1  and  C_20
REMARK    2  A    between atoms: C_2  and  C_8
REMARK    3  A    between atoms: C_2  and  O_18
REMARK    4  A    between atoms: C_11  and  C_17
REMARK    5  A    between atoms: C_20  and  C_21
REMARK    6  A    between atoms: C_21  and  C_22
REMARK    7  A    between atoms: C_22  and  C_24
REMARK    8  A    between atoms: C_24  and  C_26
REMARK                            x       y       z     vdW  Elec       q    Type
REMARK                         _______ _______ _______ _____ _____    ______ ____
ROOT
ATOM      1  N   UNL     1      34.186 -23.025 -17.207  0.00  0.00    +0.387 N 
ATOM      2  C   UNL     1      35.745 -23.530 -14.730  0.00  0.00    +0.103 C 
ATOM      3  C   UNL     1      36.365 -23.005 -16.044  0.00  0.00    +0.008 C 
ATOM      4  C   UNL     1      34.420 -24.253 -15.064  0.00  0.00    +0.008 C 
ATOM      5  C   UNL     1      35.371 -22.215 -16.903  0.00  0.00    -0.075 C 
ATOM      6  C   UNL     1      33.499 -23.437 -15.980  0.00  0.00    -0.075 C 
ATOM      7  H   UNL     1      34.497 -23.867 -17.692  0.00  0.00    -0.080 HD
ENDROOT
BRANCH   2   8
ATOM      8  C   UNL     1      36.658 -24.437 -13.903  0.00  0.00    +0.002 C 
ATOM      9  C   UNL     1      37.912 -24.795 -14.394  0.00  0.00    +0.002 C 
ATOM     10  C   UNL     1      36.234 -24.902 -12.659  0.00  0.00    -0.002 C 
ATOM     11  C   UNL     1      38.746 -25.622 -13.640  0.00  0.00    +0.071 C 
ATOM     12  C   UNL     1      37.068 -25.729 -11.905  0.00  0.00    -0.000 C 
ATOM     13  C   UNL     1      38.323 -26.089 -12.396  0.00  0.00    +0.004 C 
BRANCH  11  17
ATOM     14  F   UNL     1      40.787 -24.963 -14.699  0.00  0.00    -0.166 F 
ATOM     15  F   UNL     1      40.913 -26.541 -13.217  0.00  0.00    -0.166 F 
ATOM     16  F   UNL     1      40.014 -26.943 -15.156  0.00  0.00    -0.166 F 
ATOM     17  C   UNL     1      40.087 -26.008 -14.165  0.00  0.00    +0.419 C 
ENDBRANCH  11  17
ENDBRANCH   2   8
BRANCH   2  18
ATOM     18  O   UNL     1      35.472 -22.397 -13.890  0.00  0.00    -0.383 OA
ATOM     19  H   UNL     1      35.411 -21.598 -14.437  0.00  0.00    +0.211 HD
ENDBRANCH   2  18
BRANCH   1  20
ATOM     20  C   UNL     1      33.274 -22.291 -18.085  0.00  0.00    -0.077 C 
BRANCH  20  21
ATOM     21  C   UNL     1      33.939 -22.029 -19.438  0.00  0.00    -0.015 C 
BRANCH  21  22
ATOM     22  C   UNL     1      33.770 -20.578 -19.896  0.00  0.00    +0.067 C 
BRANCH  22  24
ATOM     23  O   UNL     1      36.154 -20.199 -19.929  0.00  0.00    -0.291 OA
ATOM     24  C   UNL     1      35.057 -19.957 -20.424  0.00  0.00    +0.173 C 
BRANCH  24  26
ATOM     25  F   UNL     1      34.756 -16.527 -24.819  0.00  0.00    -0.204 F 
ATOM     26  C   UNL     1      34.977 -19.042 -21.598  0.00  0.00    +0.035 C 
ATOM     27  C   UNL     1      34.434 -19.516 -22.771  0.00  0.00    +0.005 C 
ATOM     28  C   UNL     1      35.449 -17.756 -21.466  0.00  0.00    +0.005 C 
ATOM     29  C   UNL     1      34.359 -18.659 -23.869  0.00  0.00    +0.030 C 
ATOM     30  C   UNL     1      35.374 -16.898 -22.564  0.00  0.00    +0.030 C 
ATOM     31  C   UNL     1      34.828 -17.350 -23.765  0.00  0.00    +0.140 C 
ENDBRANCH  24  26
ENDBRANCH  22  24
ENDBRANCH  21  22
ENDBRANCH  20  21
ENDBRANCH   1  20
TORSDOF 8
ENDMDL
MODEL 8
REMARK VINA RESULT:     -10.4      1.540      9.953
REMARK  Name = 5567
REMARK  8 active torsions:
REMARK  status: ('A' for Active; 'I' for Inactive)
REMARK    1  A    between atoms: N_1  and  C_20
REMARK    2  A    between atoms: C_2  and  C_8
REMARK    3  A    between atoms: C_2  and  O_18
REMARK    4  A    between atoms: C_11  and  C_17
REMARK    5  A    between atoms: C_20  and  C_21
REMARK    6  A    between atoms: C_21  and  C_22
REMARK    7  A    between atoms: C_22  and  C_24
REMARK    8  A    between atoms: C_24  and  C_26
REMARK                            x       y       z     vdW  Elec       q    Type
REMARK                         _______ _______ _______ _____ _____    ______ ____
ROOT
ATOM      1  N   UNL     1      35.952 -20.204 -19.673  0.00  0.00    +0.387 N 
ATOM      2  C   UNL     1      35.553 -18.539 -22.101  0.00  0.00    +0.103 C 
ATOM      3  C   UNL     1      36.674 -18.297 -21.066  0.00  0.00    +0.008 C 
ATOM      4  C   UNL     1      34.417 -19.335 -21.419  0.00  0.00    +0.008 C 
ATOM      5  C   UNL     1      37.101 -19.574 -20.332  0.00  0.00    -0.075 C 
ATOM      6  C   UNL     1      34.916 -20.564 -20.647  0.00  0.00    -0.075 C 
ATOM      7  H   UNL     1      35.552 -19.527 -19.023  0.00  0.00    -0.080 HD
ENDROOT
BRANCH   2   8
ATOM      8  C   UNL     1      35.001 -17.275 -22.761  0.00  0.00    +0.002 C 
ATOM      9  C   UNL     1      34.794 -16.125 -22.000  0.00  0.00    +0.002 C 
ATOM     10  C   UNL     1      34.708 -17.274 -24.124  0.00  0.00    -0.002 C 
ATOM     11  C   UNL     1      34.291 -14.971 -22.603  0.00  0.00    +0.071 C 
ATOM     12  C   UNL     1      34.205 -16.120 -24.727  0.00  0.00    -0.000 C 
ATOM     13  C   UNL     1      33.997 -14.970 -23.966  0.00  0.00    +0.004 C 
BRANCH  11  17
ATOM     14  F   UNL     1      32.752 -13.510 -21.499  0.00  0.00    -0.166 F 
ATOM     15  F   UNL     1      34.701 -13.764 -20.579  0.00  0.00    -0.166 F 
ATOM     16  F   UNL     1      34.508 -12.612 -22.413  0.00  0.00    -0.166 F 
ATOM     17  C   UNL     1      34.067 -13.742 -21.789  0.00  0.00    +0.419 C 
ENDBRANCH  11  17
ENDBRANCH   2   8
BRANCH   2  18
ATOM     18  O   UNL     1      36.106 -19.319 -23.172  0.00  0.00    -0.383 OA
ATOM     19  H   UNL     1      37.007 -19.594 -22.940  0.00  0.00    +0.211 HD
ENDBRANCH   2  18
BRANCH   1  20
ATOM     20  C   UNL     1      36.377 -21.382 -18.917  0.00  0.00    -0.077 C 
BRANCH  20  21
ATOM     21  C   UNL     1      35.245 -22.411 -18.861  0.00  0.00    -0.015 C 
BRANCH  21  22
ATOM     22  C   UNL     1      34.634 -22.526 -17.461  0.00  0.00    +0.067 C 
BRANCH  22  24
ATOM     23  O   UNL     1      32.451 -22.479 -18.488  0.00  0.00    -0.291 OA
ATOM     24  C   UNL     1      33.118 -22.659 -17.473  0.00  0.00    +0.173 C 
BRANCH  24  26
ATOM     25  F   UNL     1      30.525 -24.102 -12.743  0.00  0.00    -0.204 F 
ATOM     26  C   UNL     1      32.426 -23.043 -16.210  0.00  0.00    +0.035 C 
ATOM     27  C   UNL     1      31.050 -22.991 -16.168  0.00  0.00    +0.005 C 
ATOM     28  C   UNL     1      33.187 -23.437 -15.133  0.00  0.00    +0.005 C 
ATOM     29  C   UNL     1      30.402 -23.352 -14.986  0.00  0.00    +0.030 C 
ATOM     30  C   UNL     1      32.539 -23.797 -13.951  0.00  0.00    +0.030 C 
ATOM     31  C   UNL     1      31.146 -23.756 -13.878  0.00  0.00    +0.140 C 
ENDBRANCH  24  26
ENDBRANCH  22  24
ENDBRANCH  21  22
ENDBRANCH  20  21
ENDBRANCH   1  20
TORSDOF 8
ENDMDL
MODEL 9
REMARK VINA RESULT:     -10.4      3.682      9.752
REMARK  Name = 5567
REMARK  8 active torsions:
REMARK  status: ('A' for Active; 'I' for Inactive)
REMARK    1  A    between atoms: N_1  and  C_20
REMARK    2  A    between atoms: C_2  and  C_8
REMARK    3  A    between atoms: C_2  and  O_18
REMARK    4  A    between atoms: C_11  and  C_17
REMARK    5  A    between atoms: C_20  and  C_21
REMARK    6  A    between atoms: C_21  and  C_22
REMARK    7  A    between atoms: C_22  and  C_24
REMARK    8  A    between atoms: C_24  and  C_26
REMARK                            x       y       z     vdW  Elec       q    Type
REMARK                         _______ _______ _______ _____ _____    ______ ____
ROOT
ATOM      1  N   UNL     1      34.243 -23.323 -15.271  0.00  0.00    +0.387 N 
ATOM      2  C   UNL     1      34.217 -22.541 -18.137  0.00  0.00    +0.103 C 
ATOM      3  C   UNL     1      35.440 -22.369 -17.209  0.00  0.00    +0.008 C 
ATOM      4  C   UNL     1      32.943 -22.618 -17.264  0.00  0.00    +0.008 C 
ATOM      5  C   UNL     1      35.475 -23.389 -16.065  0.00  0.00    -0.075 C 
ATOM      6  C   UNL     1      33.066 -23.608 -16.098  0.00  0.00    -0.075 C 
ATOM      7  H   UNL     1      34.153 -22.374 -14.910  0.00  0.00    -0.080 HD
ENDROOT
BRANCH   2   8
ATOM      8  C   UNL     1      34.066 -21.464 -19.212  0.00  0.00    +0.002 C 
ATOM      9  C   UNL     1      35.185 -20.759 -19.653  0.00  0.00    +0.002 C 
ATOM     10  C   UNL     1      32.810 -21.192 -19.752  0.00  0.00    -0.002 C 
ATOM     11  C   UNL     1      35.048 -19.778 -20.635  0.00  0.00    +0.071 C 
ATOM     12  C   UNL     1      32.673 -20.210 -20.734  0.00  0.00    -0.000 C 
ATOM     13  C   UNL     1      33.792 -19.503 -21.175  0.00  0.00    +0.004 C 
BRANCH  11  17
ATOM     14  F   UNL     1      37.425 -19.512 -20.625  0.00  0.00    -0.166 F 
ATOM     15  F   UNL     1      36.387 -19.016 -22.464  0.00  0.00    -0.166 F 
ATOM     16  F   UNL     1      36.214 -17.709 -20.735  0.00  0.00    -0.166 F 
ATOM     17  C   UNL     1      36.244 -19.021 -21.106  0.00  0.00    +0.419 C 
ENDBRANCH  11  17
ENDBRANCH   2   8
BRANCH   2  18
ATOM     18  O   UNL     1      34.379 -23.775 -18.852  0.00  0.00    -0.383 OA
ATOM     19  H   UNL     1      33.545 -24.271 -18.836  0.00  0.00    +0.211 HD
ENDBRANCH   2  18
BRANCH   1  20
ATOM     20  C   UNL     1      34.312 -24.249 -14.140  0.00  0.00    -0.077 C 
BRANCH  20  21
ATOM     21  C   UNL     1      33.213 -23.926 -13.125  0.00  0.00    -0.015 C 
BRANCH  21  22
ATOM     22  C   UNL     1      32.150 -25.025 -13.051  0.00  0.00    +0.067 C 
BRANCH  22  24
ATOM     23  O   UNL     1      30.247 -24.302 -11.754  0.00  0.00    -0.291 OA
ATOM     24  C   UNL     1      30.737 -24.488 -12.865  0.00  0.00    +0.173 C 
BRANCH  24  26
ATOM     25  F   UNL     1      27.725 -23.252 -17.400  0.00  0.00    -0.204 F 
ATOM     26  C   UNL     1      29.934 -24.158 -14.076  0.00  0.00    +0.035 C 
ATOM     27  C   UNL     1      29.322 -25.183 -14.763  0.00  0.00    +0.005 C 
ATOM     28  C   UNL     1      29.833 -22.841 -14.463  0.00  0.00    +0.005 C 
ATOM     29  C   UNL     1      28.569 -24.874 -15.896  0.00  0.00    +0.030 C 
ATOM     30  C   UNL     1      29.080 -22.532 -15.597  0.00  0.00    +0.030 C 
ATOM     31  C   UNL     1      28.448 -23.549 -16.313  0.00  0.00    +0.140 C 
ENDBRANCH  24  26
ENDBRANCH  22  24
ENDBRANCH  21  22
ENDBRANCH  20  21
ENDBRANCH   1  20
TORSDOF 8
ENDMDL
