MODEL 1
REMARK VINA RESULT:     -11.5      0.000      0.000
REMARK  Name = 68488178
REMARK  9 active torsions:
REMARK  status: ('A' for Active; 'I' for Inactive)
REMARK    1  A    between atoms: N_1  and  C_10
REMARK    2  A    between atoms: N_2  and  C_29
REMARK    3  A    between atoms: C_10  and  C_11
REMARK    4  A    between atoms: C_16  and  O_17
REMARK    5  A    between atoms: O_17  and  C_18
REMARK    6  A    between atoms: C_23  and  C_26
REMARK    7  A    between atoms: C_29  and  C_30
REMARK    8  A    between atoms: C_35  and  C_37
REMARK    9  A    between atoms: C_37  and  O_38
REMARK                            x       y       z     vdW  Elec       q    Type
REMARK                         _______ _______ _______ _____ _____    ______ ____
ROOT
ATOM      1  N   UNL     1      33.804 -12.210 -23.607  0.00  0.00    +0.388 N 
ATOM      2  N   UNL     1      34.581  -9.518 -23.559  0.00  0.00    +0.388 N 
ATOM      3  C   UNL     1      34.137 -11.454 -24.838  0.00  0.00    -0.081 C 
ATOM      4  C   UNL     1      33.158  -9.938 -23.602  0.00  0.00    -0.081 C 
ATOM      5  C   UNL     1      32.978 -10.488 -25.006  0.00  0.00    -0.046 C 
ATOM      6  C   UNL     1      33.064 -11.232 -22.772  0.00  0.00    -0.098 C 
ATOM      7  C   UNL     1      35.268 -10.482 -24.455  0.00  0.00    -0.098 C 
ATOM      8  H   UNL     1      34.639 -12.568 -23.141  0.00  0.00    -0.079 HD
ATOM      9  H   UNL     1      34.955  -9.535 -22.609  0.00  0.00    -0.079 HD
ENDROOT
BRANCH   1  10
ATOM     10  C   UNL     1      33.016 -13.407 -23.879  0.00  0.00    -0.050 C 
BRANCH  10  11
ATOM     11  C   UNL     1      33.794 -14.665 -23.603  0.00  0.00    -0.043 C 
ATOM     12  C   UNL     1      34.356 -14.876 -22.344  0.00  0.00    -0.003 C 
ATOM     13  C   UNL     1      33.953 -15.621 -24.608  0.00  0.00    -0.003 C 
ATOM     14  C   UNL     1      35.077 -16.043 -22.088  0.00  0.00    +0.037 C 
ATOM     15  C   UNL     1      34.675 -16.787 -24.352  0.00  0.00    +0.037 C 
ATOM     16  C   UNL     1      35.237 -16.998 -23.092  0.00  0.00    +0.145 C 
BRANCH  16  17
ATOM     17  O   UNL     1      35.941 -18.136 -22.843  0.00  0.00    -0.453 OA
BRANCH  17  18
ATOM     18  C   UNL     1      35.458 -18.992 -21.868  0.00  0.00    +0.145 C 
ATOM     19  C   UNL     1      34.122 -19.393 -21.892  0.00  0.00    +0.038 C 
ATOM     20  C   UNL     1      36.306 -19.452 -20.861  0.00  0.00    +0.038 C 
ATOM     21  C   UNL     1      33.635 -20.252 -20.908  0.00  0.00    +0.008 C 
ATOM     22  C   UNL     1      35.819 -20.312 -19.877  0.00  0.00    +0.008 C 
ATOM     23  C   UNL     1      34.482 -20.713 -19.900  0.00  0.00    +0.054 C 
BRANCH  23  26
ATOM     24  O   UNL     1      34.921 -22.124 -18.051  0.00  0.00    -0.431 OA
ATOM     25  N   UNL     1      32.742 -21.977 -18.641  0.00  0.00    -0.206 NA
ATOM     26  C   UNL     1      33.978 -21.601 -18.882  0.00  0.00    +0.230 C 
ATOM     27  C   UNL     1      34.199 -22.910 -17.204  0.00  0.00    +0.202 C 
ATOM     28  C   UNL     1      32.878 -22.817 -17.566  0.00  0.00    +0.143 C 
ENDBRANCH  23  26
ENDBRANCH  17  18
ENDBRANCH  16  17
ENDBRANCH  10  11
ENDBRANCH   1  10
BRANCH   2  29
ATOM     29  C   UNL     1      34.772  -8.138 -23.987  0.00  0.00    -0.050 C 
BRANCH  29  30
ATOM     30  C   UNL     1      33.780  -7.208 -23.342  0.00  0.00    -0.043 C 
ATOM     31  C   UNL     1      33.008  -6.355 -24.131  0.00  0.00    -0.006 C 
ATOM     32  C   UNL     1      33.632  -7.198 -21.954  0.00  0.00    -0.006 C 
ATOM     33  C   UNL     1      32.090  -5.493 -23.533  0.00  0.00    +0.006 C 
ATOM     34  C   UNL     1      32.714  -6.336 -21.357  0.00  0.00    +0.006 C 
ATOM     35  C   UNL     1      31.941  -5.484 -22.146  0.00  0.00    +0.075 C 
BRANCH  35  37
ATOM     36  O   UNL     1      30.442  -3.621 -22.073  0.00  0.00    -0.245 OA
ATOM     37  C   UNL     1      30.983  -4.586 -21.523  0.00  0.00    +0.338 C 
BRANCH  37  38
ATOM     38  O   UNL     1      30.724  -4.918 -20.228  0.00  0.00    -0.477 OA
ATOM     39  H   UNL     1      30.019  -4.502 -19.770  0.00  0.00    +0.295 HD
ENDBRANCH  37  38
ENDBRANCH  35  37
ENDBRANCH  29  30
ENDBRANCH   2  29
TORSDOF 9
ENDMDL
MODEL 2
REMARK VINA RESULT:     -11.2      2.480     12.883
REMARK  Name = 68488178
REMARK  9 active torsions:
REMARK  status: ('A' for Active; 'I' for Inactive)
REMARK    1  A    between atoms: N_1  and  C_10
REMARK    2  A    between atoms: N_2  and  C_29
REMARK    3  A    between atoms: C_10  and  C_11
REMARK    4  A    between atoms: C_16  and  O_17
REMARK    5  A    between atoms: O_17  and  C_18
REMARK    6  A    between atoms: C_23  and  C_26
REMARK    7  A    between atoms: C_29  and  C_30
REMARK    8  A    between atoms: C_35  and  C_37
REMARK    9  A    between atoms: C_37  and  O_38
REMARK                            x       y       z     vdW  Elec       q    Type
REMARK                         _______ _______ _______ _____ _____    ______ ____
ROOT
ATOM      1  N   UNL     1      34.938 -17.334 -22.277  0.00  0.00    +0.388 N 
ATOM      2  N   UNL     1      35.162 -19.629 -20.686  0.00  0.00    +0.388 N 
ATOM      3  C   UNL     1      35.614 -18.567 -22.747  0.00  0.00    -0.081 C 
ATOM      4  C   UNL     1      36.141 -18.517 -20.625  0.00  0.00    -0.081 C 
ATOM      5  C   UNL     1      36.898 -18.618 -21.938  0.00  0.00    -0.046 C 
ATOM      6  C   UNL     1      35.340 -17.222 -20.853  0.00  0.00    -0.098 C 
ATOM      7  C   UNL     1      34.839 -19.746 -22.131  0.00  0.00    -0.098 C 
ATOM      8  H   UNL     1      33.926 -17.386 -22.394  0.00  0.00    -0.079 HD
ATOM      9  H   UNL     1      34.335 -19.442 -20.116  0.00  0.00    -0.079 HD
ENDROOT
BRANCH   1  10
ATOM     10  C   UNL     1      35.319 -16.156 -23.049  0.00  0.00    -0.050 C 
BRANCH  10  11
ATOM     11  C   UNL     1      34.407 -14.989 -22.778  0.00  0.00    -0.043 C 
ATOM     12  C   UNL     1      34.275 -14.495 -21.479  0.00  0.00    -0.003 C 
ATOM     13  C   UNL     1      33.696 -14.402 -23.824  0.00  0.00    -0.003 C 
ATOM     14  C   UNL     1      33.431 -13.414 -21.227  0.00  0.00    +0.037 C 
ATOM     15  C   UNL     1      32.851 -13.320 -23.571  0.00  0.00    +0.037 C 
ATOM     16  C   UNL     1      32.719 -12.826 -22.273  0.00  0.00    +0.145 C 
BRANCH  16  17
ATOM     17  O   UNL     1      31.894 -11.772 -22.027  0.00  0.00    -0.453 OA
BRANCH  17  18
ATOM     18  C   UNL     1      32.278 -10.529 -22.504  0.00  0.00    +0.145 C 
ATOM     19  C   UNL     1      33.464 -10.396 -23.226  0.00  0.00    +0.038 C 
ATOM     20  C   UNL     1      31.480  -9.412 -22.262  0.00  0.00    +0.038 C 
ATOM     21  C   UNL     1      33.853  -9.145 -23.703  0.00  0.00    +0.008 C 
ATOM     22  C   UNL     1      31.868  -8.160 -22.739  0.00  0.00    +0.008 C 
ATOM     23  C   UNL     1      33.055  -8.026 -23.461  0.00  0.00    +0.054 C 
BRANCH  23  26
ATOM     24  O   UNL     1      32.534  -5.743 -23.803  0.00  0.00    -0.431 OA
ATOM     25  N   UNL     1      34.583  -6.371 -24.528  0.00  0.00    -0.206 NA
ATOM     26  C   UNL     1      33.457  -6.732 -23.955  0.00  0.00    +0.230 C 
ATOM     27  C   UNL     1      33.148  -4.650 -24.339  0.00  0.00    +0.202 C 
ATOM     28  C   UNL     1      34.390  -5.036 -24.776  0.00  0.00    +0.143 C 
ENDBRANCH  23  26
ENDBRANCH  17  18
ENDBRANCH  16  17
ENDBRANCH  10  11
ENDBRANCH   1  10
BRANCH   2  29
ATOM     29  C   UNL     1      35.690 -20.874 -20.140  0.00  0.00    -0.050 C 
BRANCH  29  30
ATOM     30  C   UNL     1      34.750 -21.488 -19.137  0.00  0.00    -0.043 C 
ATOM     31  C   UNL     1      33.372 -21.319 -19.277  0.00  0.00    -0.006 C 
ATOM     32  C   UNL     1      35.257 -22.227 -18.067  0.00  0.00    -0.006 C 
ATOM     33  C   UNL     1      32.503 -21.888 -18.347  0.00  0.00    +0.006 C 
ATOM     34  C   UNL     1      34.387 -22.795 -17.137  0.00  0.00    +0.006 C 
ATOM     35  C   UNL     1      33.009 -22.627 -17.278  0.00  0.00    +0.075 C 
BRANCH  35  37
ATOM     36  O   UNL     1      32.435 -23.941 -15.364  0.00  0.00    -0.245 OA
ATOM     37  C   UNL     1      32.102 -23.220 -16.309  0.00  0.00    +0.338 C 
BRANCH  37  38
ATOM     38  O   UNL     1      30.801 -22.895 -16.547  0.00  0.00    -0.477 OA
ATOM     39  H   UNL     1      30.414 -22.161 -16.110  0.00  0.00    +0.295 HD
ENDBRANCH  37  38
ENDBRANCH  35  37
ENDBRANCH  29  30
ENDBRANCH   2  29
TORSDOF 9
ENDMDL
MODEL 3
REMARK VINA RESULT:     -11.1      4.914     14.885
REMARK  Name = 68488178
REMARK  9 active torsions:
REMARK  status: ('A' for Active; 'I' for Inactive)
REMARK    1  A    between atoms: N_1  and  C_10
REMARK    2  A    between atoms: N_2  and  C_29
REMARK    3  A    between atoms: C_10  and  C_11
REMARK    4  A    between atoms: C_16  and  O_17
REMARK    5  A    between atoms: O_17  and  C_18
REMARK    6  A    between atoms: C_23  and  C_26
REMARK    7  A    between atoms: C_29  and  C_30
REMARK    8  A    between atoms: C_35  and  C_37
REMARK    9  A    between atoms: C_37  and  O_38
REMARK                            x       y       z     vdW  Elec       q    Type
REMARK                         _______ _______ _______ _____ _____    ______ ____
ROOT
ATOM      1  N   UNL     1      33.116 -23.650 -16.569  0.00  0.00    +0.388 N 
ATOM      2  N   UNL     1      34.217 -24.898 -14.314  0.00  0.00    +0.388 N 
ATOM      3  C   UNL     1      34.298 -23.109 -15.856  0.00  0.00    -0.081 C 
ATOM      4  C   UNL     1      33.095 -23.931 -14.224  0.00  0.00    -0.081 C 
ATOM      5  C   UNL     1      33.735 -22.592 -14.544  0.00  0.00    -0.046 C 
ATOM      6  C   UNL     1      32.235 -24.148 -15.483  0.00  0.00    -0.098 C 
ATOM      7  C   UNL     1      35.100 -24.327 -15.363  0.00  0.00    -0.098 C 
ATOM      8  H   UNL     1      33.373 -24.385 -17.230  0.00  0.00    -0.079 HD
ATOM      9  H   UNL     1      33.894 -25.838 -14.547  0.00  0.00    -0.079 HD
ENDROOT
BRANCH   1  10
ATOM     10  C   UNL     1      32.454 -22.650 -17.398  0.00  0.00    -0.050 C 
BRANCH  10  11
ATOM     11  C   UNL     1      33.416 -21.975 -18.339  0.00  0.00    -0.043 C 
ATOM     12  C   UNL     1      32.944 -21.060 -19.280  0.00  0.00    -0.003 C 
ATOM     13  C   UNL     1      34.780 -22.264 -18.269  0.00  0.00    -0.003 C 
ATOM     14  C   UNL     1      33.835 -20.434 -20.152  0.00  0.00    +0.037 C 
ATOM     15  C   UNL     1      35.671 -21.639 -19.141  0.00  0.00    +0.037 C 
ATOM     16  C   UNL     1      35.198 -20.724 -20.083  0.00  0.00    +0.145 C 
BRANCH  16  17
ATOM     17  O   UNL     1      36.068 -20.114 -20.934  0.00  0.00    -0.453 OA
BRANCH  17  18
ATOM     18  C   UNL     1      35.606 -19.025 -21.655  0.00  0.00    +0.145 C 
ATOM     19  C   UNL     1      35.693 -17.743 -21.113  0.00  0.00    +0.038 C 
ATOM     20  C   UNL     1      35.054 -19.211 -22.922  0.00  0.00    +0.038 C 
ATOM     21  C   UNL     1      35.225 -16.647 -21.837  0.00  0.00    +0.008 C 
ATOM     22  C   UNL     1      34.586 -18.115 -23.647  0.00  0.00    +0.008 C 
ATOM     23  C   UNL     1      34.672 -16.831 -23.105  0.00  0.00    +0.054 C 
BRANCH  23  26
ATOM     24  O   UNL     1      34.036 -14.552 -23.135  0.00  0.00    -0.431 OA
ATOM     25  N   UNL     1      33.873 -15.613 -25.126  0.00  0.00    -0.206 NA
ATOM     26  C   UNL     1      34.188 -15.698 -23.854  0.00  0.00    +0.230 C 
ATOM     27  C   UNL     1      33.578 -13.658 -24.056  0.00  0.00    +0.202 C 
ATOM     28  C   UNL     1      33.482 -14.306 -25.262  0.00  0.00    +0.143 C 
ENDBRANCH  23  26
ENDBRANCH  17  18
ENDBRANCH  16  17
ENDBRANCH  10  11
ENDBRANCH   1  10
BRANCH   2  29
ATOM     29  C   UNL     1      34.913 -25.071 -13.045  0.00  0.00    -0.050 C 
BRANCH  29  30
ATOM     30  C   UNL     1      36.385 -25.318 -13.242  0.00  0.00    -0.043 C 
ATOM     31  C   UNL     1      36.813 -26.368 -14.055  0.00  0.00    -0.006 C 
ATOM     32  C   UNL     1      37.321 -24.498 -12.610  0.00  0.00    -0.006 C 
ATOM     33  C   UNL     1      38.176 -26.597 -14.236  0.00  0.00    +0.006 C 
ATOM     34  C   UNL     1      38.684 -24.728 -12.791  0.00  0.00    +0.006 C 
ATOM     35  C   UNL     1      39.113 -25.777 -13.606  0.00  0.00    +0.075 C 
BRANCH  35  37
ATOM     36  O   UNL     1      41.139 -27.041 -13.465  0.00  0.00    -0.245 OA
ATOM     37  C   UNL     1      40.534 -26.016 -13.796  0.00  0.00    +0.338 C 
BRANCH  37  38
ATOM     38  O   UNL     1      41.162 -24.968 -14.396  0.00  0.00    -0.477 OA
ATOM     39  H   UNL     1      41.615 -25.095 -15.207  0.00  0.00    +0.295 HD
ENDBRANCH  37  38
ENDBRANCH  35  37
ENDBRANCH  29  30
ENDBRANCH   2  29
TORSDOF 9
ENDMDL
MODEL 4
REMARK VINA RESULT:     -10.7      2.783     13.089
REMARK  Name = 68488178
REMARK  9 active torsions:
REMARK  status: ('A' for Active; 'I' for Inactive)
REMARK    1  A    between atoms: N_1  and  C_10
REMARK    2  A    between atoms: N_2  and  C_29
REMARK    3  A    between atoms: C_10  and  C_11
REMARK    4  A    between atoms: C_16  and  O_17
REMARK    5  A    between atoms: O_17  and  C_18
REMARK    6  A    between atoms: C_23  and  C_26
REMARK    7  A    between atoms: C_29  and  C_30
REMARK    8  A    between atoms: C_35  and  C_37
REMARK    9  A    between atoms: C_37  and  O_38
REMARK                            x       y       z     vdW  Elec       q    Type
REMARK                         _______ _______ _______ _____ _____    ______ ____
ROOT
ATOM      1  N   UNL     1      35.347 -17.586 -21.284  0.00  0.00    +0.388 N 
ATOM      2  N   UNL     1      35.410 -20.071 -19.989  0.00  0.00    +0.388 N 
ATOM      3  C   UNL     1      34.716 -18.800 -21.856  0.00  0.00    -0.081 C 
ATOM      4  C   UNL     1      36.501 -19.608 -20.883  0.00  0.00    -0.081 C 
ATOM      5  C   UNL     1      35.891 -19.667 -22.272  0.00  0.00    -0.046 C 
ATOM      6  C   UNL     1      36.609 -18.085 -20.681  0.00  0.00    -0.098 C 
ATOM      7  C   UNL     1      34.172 -19.607 -20.663  0.00  0.00    -0.098 C 
ATOM      8  H   UNL     1      34.743 -17.128 -20.600  0.00  0.00    -0.079 HD
ATOM      9  H   UNL     1      35.505 -19.694 -19.045  0.00  0.00    -0.079 HD
ENDROOT
BRANCH   1  10
ATOM     10  C   UNL     1      35.588 -16.553 -22.284  0.00  0.00    -0.050 C 
BRANCH  10  11
ATOM     11  C   UNL     1      34.595 -15.427 -22.179  0.00  0.00    -0.043 C 
ATOM     12  C   UNL     1      34.274 -14.895 -20.930  0.00  0.00    -0.003 C 
ATOM     13  C   UNL     1      33.995 -14.917 -23.331  0.00  0.00    -0.003 C 
ATOM     14  C   UNL     1      33.353 -13.852 -20.832  0.00  0.00    +0.037 C 
ATOM     15  C   UNL     1      33.074 -13.873 -23.233  0.00  0.00    +0.037 C 
ATOM     16  C   UNL     1      32.753 -13.341 -21.983  0.00  0.00    +0.145 C 
BRANCH  16  17
ATOM     17  O   UNL     1      31.854 -12.323 -21.888  0.00  0.00    -0.453 OA
BRANCH  17  18
ATOM     18  C   UNL     1      32.257 -11.066 -22.307  0.00  0.00    +0.145 C 
ATOM     19  C   UNL     1      31.651  -9.927 -21.778  0.00  0.00    +0.038 C 
ATOM     20  C   UNL     1      33.269 -10.940 -23.259  0.00  0.00    +0.038 C 
ATOM     21  C   UNL     1      32.055  -8.662 -22.202  0.00  0.00    +0.008 C 
ATOM     22  C   UNL     1      33.673  -9.674 -23.684  0.00  0.00    +0.008 C 
ATOM     23  C   UNL     1      33.066  -8.534 -23.155  0.00  0.00    +0.054 C 
BRANCH  23  26
ATOM     24  O   UNL     1      34.735  -7.164 -24.124  0.00  0.00    -0.431 OA
ATOM     25  N   UNL     1      32.830  -6.086 -23.556  0.00  0.00    -0.206 NA
ATOM     26  C   UNL     1      33.483  -7.225 -23.594  0.00  0.00    +0.230 C 
ATOM     27  C   UNL     1      34.879  -5.850 -24.451  0.00  0.00    +0.202 C 
ATOM     28  C   UNL     1      33.721  -5.200 -24.105  0.00  0.00    +0.143 C 
ENDBRANCH  23  26
ENDBRANCH  17  18
ENDBRANCH  16  17
ENDBRANCH  10  11
ENDBRANCH   1  10
BRANCH   2  29
ATOM     29  C   UNL     1      35.420 -21.515 -19.793  0.00  0.00    -0.050 C 
BRANCH  29  30
ATOM     30  C   UNL     1      35.696 -21.884 -18.360  0.00  0.00    -0.043 C 
ATOM     31  C   UNL     1      34.729 -22.560 -17.615  0.00  0.00    -0.006 C 
ATOM     32  C   UNL     1      36.919 -21.550 -17.776  0.00  0.00    -0.006 C 
ATOM     33  C   UNL     1      34.985 -22.901 -16.288  0.00  0.00    +0.006 C 
ATOM     34  C   UNL     1      37.174 -21.891 -16.448  0.00  0.00    +0.006 C 
ATOM     35  C   UNL     1      36.207 -22.568 -15.703  0.00  0.00    +0.075 C 
BRANCH  35  37
ATOM     36  O   UNL     1      37.591 -23.117 -13.832  0.00  0.00    -0.245 OA
ATOM     37  C   UNL     1      36.473 -22.924 -14.320  0.00  0.00    +0.338 C 
BRANCH  37  38
ATOM     38  O   UNL     1      35.335 -23.027 -13.581  0.00  0.00    -0.477 OA
ATOM     39  H   UNL     1      34.537 -22.647 -13.893  0.00  0.00    +0.295 HD
ENDBRANCH  37  38
ENDBRANCH  35  37
ENDBRANCH  29  30
ENDBRANCH   2  29
TORSDOF 9
ENDMDL
MODEL 5
REMARK VINA RESULT:     -10.5      3.891      7.643
REMARK  Name = 68488178
REMARK  9 active torsions:
REMARK  status: ('A' for Active; 'I' for Inactive)
REMARK    1  A    between atoms: N_1  and  C_10
REMARK    2  A    between atoms: N_2  and  C_29
REMARK    3  A    between atoms: C_10  and  C_11
REMARK    4  A    between atoms: C_16  and  O_17
REMARK    5  A    between atoms: O_17  and  C_18
REMARK    6  A    between atoms: C_23  and  C_26
REMARK    7  A    between atoms: C_29  and  C_30
REMARK    8  A    between atoms: C_35  and  C_37
REMARK    9  A    between atoms: C_37  and  O_38
REMARK                            x       y       z     vdW  Elec       q    Type
REMARK                         _______ _______ _______ _____ _____    ______ ____
ROOT
ATOM      1  N   UNL     1      34.971 -19.183 -21.067  0.00  0.00    +0.388 N 
ATOM      2  N   UNL     1      34.696 -16.643 -22.217  0.00  0.00    +0.388 N 
ATOM      3  C   UNL     1      36.037 -18.155 -20.994  0.00  0.00    -0.081 C 
ATOM      4  C   UNL     1      35.188 -17.816 -22.981  0.00  0.00    -0.081 C 
ATOM      5  C   UNL     1      36.572 -18.073 -22.412  0.00  0.00    -0.046 C 
ATOM      6  C   UNL     1      34.422 -19.037 -22.439  0.00  0.00    -0.098 C 
ATOM      7  C   UNL     1      35.320 -16.797 -20.879  0.00  0.00    -0.098 C 
ATOM      8  H   UNL     1      34.261 -19.049 -20.347  0.00  0.00    -0.079 HD
ATOM      9  H   UNL     1      33.677 -16.617 -22.171  0.00  0.00    -0.079 HD
ENDROOT
BRANCH   1  10
ATOM     10  C   UNL     1      35.472 -20.530 -20.818  0.00  0.00    -0.050 C 
BRANCH  10  11
ATOM     11  C   UNL     1      34.697 -21.223 -19.729  0.00  0.00    -0.043 C 
ATOM     12  C   UNL     1      35.352 -22.085 -18.848  0.00  0.00    -0.003 C 
ATOM     13  C   UNL     1      33.325 -21.006 -19.602  0.00  0.00    -0.003 C 
ATOM     14  C   UNL     1      34.635 -22.728 -17.840  0.00  0.00    +0.037 C 
ATOM     15  C   UNL     1      32.608 -21.649 -18.593  0.00  0.00    +0.037 C 
ATOM     16  C   UNL     1      33.263 -22.510 -17.712  0.00  0.00    +0.145 C 
BRANCH  16  17
ATOM     17  O   UNL     1      32.562 -23.139 -16.729  0.00  0.00    -0.453 OA
BRANCH  17  18
ATOM     18  C   UNL     1      33.209 -23.373 -15.527  0.00  0.00    +0.145 C 
ATOM     19  C   UNL     1      34.599 -23.283 -15.454  0.00  0.00    +0.038 C 
ATOM     20  C   UNL     1      32.471 -23.702 -14.390  0.00  0.00    +0.038 C 
ATOM     21  C   UNL     1      35.251 -23.522 -14.245  0.00  0.00    +0.008 C 
ATOM     22  C   UNL     1      33.123 -23.941 -13.180  0.00  0.00    +0.008 C 
ATOM     23  C   UNL     1      34.514 -23.851 -13.107  0.00  0.00    +0.054 C 
BRANCH  23  26
ATOM     24  O   UNL     1      36.311 -23.358 -11.647  0.00  0.00    -0.431 OA
ATOM     25  N   UNL     1      34.876 -24.936 -10.893  0.00  0.00    -0.206 NA
ATOM     26  C   UNL     1      35.189 -24.099 -11.857  0.00  0.00    +0.230 C 
ATOM     27  C   UNL     1      36.745 -23.776 -10.425  0.00  0.00    +0.202 C 
ATOM     28  C   UNL     1      35.871 -24.732  -9.972  0.00  0.00    +0.143 C 
ENDBRANCH  23  26
ENDBRANCH  17  18
ENDBRANCH  16  17
ENDBRANCH  10  11
ENDBRANCH   1  10
BRANCH   2  29
ATOM     29  C   UNL     1      35.050 -15.375 -22.844  0.00  0.00    -0.050 C 
BRANCH  29  30
ATOM     30  C   UNL     1      34.125 -14.264 -22.425  0.00  0.00    -0.043 C 
ATOM     31  C   UNL     1      33.532 -14.290 -21.163  0.00  0.00    -0.006 C 
ATOM     32  C   UNL     1      33.860 -13.209 -23.299  0.00  0.00    -0.006 C 
ATOM     33  C   UNL     1      32.674 -13.262 -20.775  0.00  0.00    +0.006 C 
ATOM     34  C   UNL     1      33.002 -12.181 -22.911  0.00  0.00    +0.006 C 
ATOM     35  C   UNL     1      32.410 -12.206 -21.648  0.00  0.00    +0.075 C 
BRANCH  35  37
ATOM     36  O   UNL     1      30.850 -10.428 -22.007  0.00  0.00    -0.245 OA
ATOM     37  C   UNL     1      31.516 -11.134 -21.242  0.00  0.00    +0.338 C 
BRANCH  37  38
ATOM     38  O   UNL     1      31.476 -10.971 -19.891  0.00  0.00    -0.477 OA
ATOM     39  H   UNL     1      32.219 -11.206 -19.369  0.00  0.00    +0.295 HD
ENDBRANCH  37  38
ENDBRANCH  35  37
ENDBRANCH  29  30
ENDBRANCH   2  29
TORSDOF 9
ENDMDL
MODEL 6
REMARK VINA RESULT:     -10.4      2.440      3.457
REMARK  Name = 68488178
REMARK  9 active torsions:
REMARK  status: ('A' for Active; 'I' for Inactive)
REMARK    1  A    between atoms: N_1  and  C_10
REMARK    2  A    between atoms: N_2  and  C_29
REMARK    3  A    between atoms: C_10  and  C_11
REMARK    4  A    between atoms: C_16  and  O_17
REMARK    5  A    between atoms: O_17  and  C_18
REMARK    6  A    between atoms: C_23  and  C_26
REMARK    7  A    between atoms: C_29  and  C_30
REMARK    8  A    between atoms: C_35  and  C_37
REMARK    9  A    between atoms: C_37  and  O_38
REMARK                            x       y       z     vdW  Elec       q    Type
REMARK                         _______ _______ _______ _____ _____    ______ ____
ROOT
ATOM      1  N   UNL     1      32.567 -10.438 -22.155  0.00  0.00    +0.388 N 
ATOM      2  N   UNL     1      33.104  -7.718 -21.748  0.00  0.00    +0.388 N 
ATOM      3  C   UNL     1      32.426  -9.428 -23.231  0.00  0.00    -0.081 C 
ATOM      4  C   UNL     1      31.781  -8.323 -21.456  0.00  0.00    -0.081 C 
ATOM      5  C   UNL     1      31.203  -8.624 -22.827  0.00  0.00    -0.046 C 
ATOM      6  C   UNL     1      32.061  -9.748 -20.943  0.00  0.00    -0.098 C 
ATOM      7  C   UNL     1      33.540  -8.390 -22.998  0.00  0.00    -0.098 C 
ATOM      8  H   UNL     1      33.533 -10.752 -22.051  0.00  0.00    -0.079 HD
ATOM      9  H   UNL     1      33.765  -7.856 -20.981  0.00  0.00    -0.079 HD
ENDROOT
BRANCH   1  10
ATOM     10  C   UNL     1      31.830 -11.664 -22.437  0.00  0.00    -0.050 C 
BRANCH  10  11
ATOM     11  C   UNL     1      32.751 -12.820 -22.722  0.00  0.00    -0.043 C 
ATOM     12  C   UNL     1      32.961 -13.236 -24.037  0.00  0.00    -0.003 C 
ATOM     13  C   UNL     1      33.395 -13.475 -21.671  0.00  0.00    -0.003 C 
ATOM     14  C   UNL     1      33.815 -14.307 -24.302  0.00  0.00    +0.037 C 
ATOM     15  C   UNL     1      34.249 -14.546 -21.936  0.00  0.00    +0.037 C 
ATOM     16  C   UNL     1      34.458 -14.962 -23.251  0.00  0.00    +0.145 C 
BRANCH  16  17
ATOM     17  O   UNL     1      35.291 -16.008 -23.510  0.00  0.00    -0.453 OA
BRANCH  17  18
ATOM     18  C   UNL     1      35.194 -17.124 -22.695  0.00  0.00    +0.145 C 
ATOM     19  C   UNL     1      35.713 -17.089 -21.401  0.00  0.00    +0.038 C 
ATOM     20  C   UNL     1      34.580 -18.282 -23.169  0.00  0.00    +0.038 C 
ATOM     21  C   UNL     1      35.619 -18.213 -20.582  0.00  0.00    +0.008 C 
ATOM     22  C   UNL     1      34.485 -19.407 -22.350  0.00  0.00    +0.008 C 
ATOM     23  C   UNL     1      35.005 -19.373 -21.055  0.00  0.00    +0.054 C 
BRANCH  23  26
ATOM     24  O   UNL     1      33.651 -20.838 -19.781  0.00  0.00    -0.431 OA
ATOM     25  N   UNL     1      35.856 -21.344 -19.789  0.00  0.00    -0.206 NA
ATOM     26  C   UNL     1      34.908 -20.536 -20.208  0.00  0.00    +0.230 C 
ATOM     27  C   UNL     1      33.833 -21.951 -19.016  0.00  0.00    +0.202 C 
ATOM     28  C   UNL     1      35.172 -22.254 -19.024  0.00  0.00    +0.143 C 
ENDBRANCH  23  26
ENDBRANCH  17  18
ENDBRANCH  16  17
ENDBRANCH  10  11
ENDBRANCH   1  10
BRANCH   2  29
ATOM     29  C   UNL     1      33.039  -6.269 -21.898  0.00  0.00    -0.050 C 
BRANCH  29  30
ATOM     30  C   UNL     1      33.359  -5.836 -23.304  0.00  0.00    -0.043 C 
ATOM     31  C   UNL     1      32.348  -5.339 -24.127  0.00  0.00    -0.006 C 
ATOM     32  C   UNL     1      34.665  -5.932 -23.783  0.00  0.00    -0.006 C 
ATOM     33  C   UNL     1      32.645  -4.939 -25.429  0.00  0.00    +0.006 C 
ATOM     34  C   UNL     1      34.961  -5.532 -25.086  0.00  0.00    +0.006 C 
ATOM     35  C   UNL     1      33.951  -5.034 -25.909  0.00  0.00    +0.075 C 
BRANCH  35  37
ATOM     36  O   UNL     1      33.430  -4.288 -28.121  0.00  0.00    -0.245 OA
ATOM     37  C   UNL     1      34.259  -4.616 -27.267  0.00  0.00    +0.338 C 
BRANCH  37  38
ATOM     38  O   UNL     1      35.597  -4.618 -27.521  0.00  0.00    -0.477 OA
ATOM     39  H   UNL     1      36.078  -3.814 -27.503  0.00  0.00    +0.295 HD
ENDBRANCH  37  38
ENDBRANCH  35  37
ENDBRANCH  29  30
ENDBRANCH   2  29
TORSDOF 9
ENDMDL
MODEL 7
REMARK VINA RESULT:     -10.3      2.788      3.957
REMARK  Name = 68488178
REMARK  9 active torsions:
REMARK  status: ('A' for Active; 'I' for Inactive)
REMARK    1  A    between atoms: N_1  and  C_10
REMARK    2  A    between atoms: N_2  and  C_29
REMARK    3  A    between atoms: C_10  and  C_11
REMARK    4  A    between atoms: C_16  and  O_17
REMARK    5  A    between atoms: O_17  and  C_18
REMARK    6  A    between atoms: C_23  and  C_26
REMARK    7  A    between atoms: C_29  and  C_30
REMARK    8  A    between atoms: C_35  and  C_37
REMARK    9  A    between atoms: C_37  and  O_38
REMARK                            x       y       z     vdW  Elec       q    Type
REMARK                         _______ _______ _______ _____ _____    ______ ____
ROOT
ATOM      1  N   UNL     1      32.049 -10.293 -22.656  0.00  0.00    +0.388 N 
ATOM      2  N   UNL     1      32.648  -7.656 -23.392  0.00  0.00    +0.388 N 
ATOM      3  C   UNL     1      31.242  -9.135 -22.201  0.00  0.00    -0.081 C 
ATOM      4  C   UNL     1      33.272  -8.319 -22.220  0.00  0.00    -0.081 C 
ATOM      5  C   UNL     1      32.143  -8.421 -21.210  0.00  0.00    -0.046 C 
ATOM      6  C   UNL     1      33.448  -9.800 -22.604  0.00  0.00    -0.098 C 
ATOM      7  C   UNL     1      31.240  -8.127 -23.365  0.00  0.00    -0.098 C 
ATOM      8  H   UNL     1      31.779 -10.603 -23.590  0.00  0.00    -0.079 HD
ATOM      9  H   UNL     1      33.123  -7.897 -24.264  0.00  0.00    -0.079 HD
ENDROOT
BRANCH   1  10
ATOM     10  C   UNL     1      31.853 -11.475 -21.825  0.00  0.00    -0.050 C 
BRANCH  10  11
ATOM     11  C   UNL     1      32.686 -12.637 -22.296  0.00  0.00    -0.043 C 
ATOM     12  C   UNL     1      32.726 -12.961 -23.653  0.00  0.00    -0.003 C 
ATOM     13  C   UNL     1      33.417 -13.389 -21.376  0.00  0.00    -0.003 C 
ATOM     14  C   UNL     1      33.498 -14.037 -24.090  0.00  0.00    +0.037 C 
ATOM     15  C   UNL     1      34.188 -14.466 -21.814  0.00  0.00    +0.037 C 
ATOM     16  C   UNL     1      34.229 -14.790 -23.170  0.00  0.00    +0.145 C 
BRANCH  16  17
ATOM     17  O   UNL     1      34.981 -15.842 -23.596  0.00  0.00    -0.453 OA
BRANCH  17  18
ATOM     18  C   UNL     1      35.076 -16.945 -22.764  0.00  0.00    +0.145 C 
ATOM     19  C   UNL     1      34.687 -18.202 -23.227  0.00  0.00    +0.038 C 
ATOM     20  C   UNL     1      35.559 -16.798 -21.464  0.00  0.00    +0.038 C 
ATOM     21  C   UNL     1      34.779 -19.312 -22.388  0.00  0.00    +0.008 C 
ATOM     22  C   UNL     1      35.651 -17.909 -20.625  0.00  0.00    +0.008 C 
ATOM     23  C   UNL     1      35.261 -19.167 -21.087  0.00  0.00    +0.054 C 
BRANCH  23  26
ATOM     24  O   UNL     1      36.540 -20.448 -19.562  0.00  0.00    -0.431 OA
ATOM     25  N   UNL     1      34.466 -21.249 -19.973  0.00  0.00    -0.206 NA
ATOM     26  C   UNL     1      35.356 -20.315 -20.220  0.00  0.00    +0.230 C 
ATOM     27  C   UNL     1      36.372 -21.584 -18.830  0.00  0.00    +0.202 C 
ATOM     28  C   UNL     1      35.112 -22.066 -19.081  0.00  0.00    +0.143 C 
ENDBRANCH  23  26
ENDBRANCH  17  18
ENDBRANCH  16  17
ENDBRANCH  10  11
ENDBRANCH   1  10
BRANCH   2  29
ATOM     29  C   UNL     1      32.743  -6.203 -23.331  0.00  0.00    -0.050 C 
BRANCH  29  30
ATOM     30  C   UNL     1      33.326  -5.625 -24.593  0.00  0.00    -0.043 C 
ATOM     31  C   UNL     1      34.707  -5.626 -24.787  0.00  0.00    -0.006 C 
ATOM     32  C   UNL     1      32.484  -5.089 -25.569  0.00  0.00    -0.006 C 
ATOM     33  C   UNL     1      35.247  -5.090 -25.956  0.00  0.00    +0.006 C 
ATOM     34  C   UNL     1      33.024  -4.553 -26.737  0.00  0.00    +0.006 C 
ATOM     35  C   UNL     1      34.406  -4.554 -26.932  0.00  0.00    +0.075 C 
BRANCH  35  37
ATOM     36  O   UNL     1      36.127  -3.588 -28.283  0.00  0.00    -0.245 OA
ATOM     37  C   UNL     1      34.969  -3.997 -28.151  0.00  0.00    +0.338 C 
BRANCH  37  38
ATOM     38  O   UNL     1      34.070  -3.965 -29.172  0.00  0.00    -0.477 OA
ATOM     39  H   UNL     1      34.178  -4.534 -29.909  0.00  0.00    +0.295 HD
ENDBRANCH  37  38
ENDBRANCH  35  37
ENDBRANCH  29  30
ENDBRANCH   2  29
TORSDOF 9
ENDMDL
MODEL 8
REMARK VINA RESULT:     -10.3      2.587     13.014
REMARK  Name = 68488178
REMARK  9 active torsions:
REMARK  status: ('A' for Active; 'I' for Inactive)
REMARK    1  A    between atoms: N_1  and  C_10
REMARK    2  A    between atoms: N_2  and  C_29
REMARK    3  A    between atoms: C_10  and  C_11
REMARK    4  A    between atoms: C_16  and  O_17
REMARK    5  A    between atoms: O_17  and  C_18
REMARK    6  A    between atoms: C_23  and  C_26
REMARK    7  A    between atoms: C_29  and  C_30
REMARK    8  A    between atoms: C_35  and  C_37
REMARK    9  A    between atoms: C_37  and  O_38
REMARK                            x       y       z     vdW  Elec       q    Type
REMARK                         _______ _______ _______ _____ _____    ______ ____
ROOT
ATOM      1  N   UNL     1      35.610 -19.295 -20.247  0.00  0.00    +0.388 N 
ATOM      2  N   UNL     1      34.337 -21.419 -18.935  0.00  0.00    +0.388 N 
ATOM      3  C   UNL     1      34.596 -20.149 -20.911  0.00  0.00    -0.081 C 
ATOM      4  C   UNL     1      35.643 -21.572 -19.622  0.00  0.00    -0.081 C 
ATOM      5  C   UNL     1      35.298 -21.482 -21.098  0.00  0.00    -0.046 C 
ATOM      6  C   UNL     1      36.396 -20.245 -19.420  0.00  0.00    -0.098 C 
ATOM      7  C   UNL     1      33.565 -20.517 -19.827  0.00  0.00    -0.098 C 
ATOM      8  H   UNL     1      35.180 -18.556 -19.689  0.00  0.00    -0.079 HD
ATOM      9  H   UNL     1      34.443 -21.039 -17.994  0.00  0.00    -0.079 HD
ENDROOT
BRANCH   1  10
ATOM     10  C   UNL     1      36.446 -18.573 -21.199  0.00  0.00    -0.050 C 
BRANCH  10  11
ATOM     11  C   UNL     1      35.629 -17.701 -22.114  0.00  0.00    -0.043 C 
ATOM     12  C   UNL     1      35.171 -18.205 -23.332  0.00  0.00    -0.003 C 
ATOM     13  C   UNL     1      35.331 -16.389 -21.745  0.00  0.00    -0.003 C 
ATOM     14  C   UNL     1      34.415 -17.397 -24.181  0.00  0.00    +0.037 C 
ATOM     15  C   UNL     1      34.574 -15.581 -22.594  0.00  0.00    +0.037 C 
ATOM     16  C   UNL     1      34.116 -16.085 -23.812  0.00  0.00    +0.145 C 
BRANCH  16  17
ATOM     17  O   UNL     1      33.378 -15.296 -24.640  0.00  0.00    -0.453 OA
BRANCH  17  18
ATOM     18  C   UNL     1      33.409 -13.928 -24.424  0.00  0.00    +0.145 C 
ATOM     19  C   UNL     1      33.711 -13.063 -25.475  0.00  0.00    +0.038 C 
ATOM     20  C   UNL     1      33.140 -13.417 -23.154  0.00  0.00    +0.038 C 
ATOM     21  C   UNL     1      33.746 -11.686 -25.256  0.00  0.00    +0.008 C 
ATOM     22  C   UNL     1      33.175 -12.040 -22.935  0.00  0.00    +0.008 C 
ATOM     23  C   UNL     1      33.477 -11.174 -23.987  0.00  0.00    +0.054 C 
BRANCH  23  26
ATOM     24  O   UNL     1      34.750  -9.184 -23.825  0.00  0.00    -0.431 OA
ATOM     25  N   UNL     1      32.527  -8.921 -23.501  0.00  0.00    -0.206 NA
ATOM     26  C   UNL     1      33.513  -9.750 -23.760  0.00  0.00    +0.230 C 
ATOM     27  C   UNL     1      34.510  -7.866 -23.579  0.00  0.00    +0.202 C 
ATOM     28  C   UNL     1      33.161  -7.711 -23.385  0.00  0.00    +0.143 C 
ENDBRANCH  23  26
ENDBRANCH  17  18
ENDBRANCH  16  17
ENDBRANCH  10  11
ENDBRANCH   1  10
BRANCH   2  29
ATOM     29  C   UNL     1      33.660 -22.693 -18.725  0.00  0.00    -0.050 C 
BRANCH  29  30
ATOM     30  C   UNL     1      33.425 -22.968 -17.263  0.00  0.00    -0.043 C 
ATOM     31  C   UNL     1      32.123 -23.050 -16.770  0.00  0.00    -0.006 C 
ATOM     32  C   UNL     1      34.510 -23.140 -16.403  0.00  0.00    -0.006 C 
ATOM     33  C   UNL     1      31.906 -23.304 -15.416  0.00  0.00    +0.006 C 
ATOM     34  C   UNL     1      34.293 -23.393 -15.049  0.00  0.00    +0.006 C 
ATOM     35  C   UNL     1      32.990 -23.477 -14.555  0.00  0.00    +0.075 C 
BRANCH  35  37
ATOM     36  O   UNL     1      31.923 -23.179 -12.435  0.00  0.00    -0.245 OA
ATOM     37  C   UNL     1      32.763 -23.742 -13.144  0.00  0.00    +0.338 C 
BRANCH  37  38
ATOM     38  O   UNL     1      33.593 -24.705 -12.656  0.00  0.00    -0.477 OA
ATOM     39  H   UNL     1      34.519 -24.632 -12.778  0.00  0.00    +0.295 HD
ENDBRANCH  37  38
ENDBRANCH  35  37
ENDBRANCH  29  30
ENDBRANCH   2  29
TORSDOF 9
ENDMDL
MODEL 9
REMARK VINA RESULT:     -10.3      4.891     14.871
REMARK  Name = 68488178
REMARK  9 active torsions:
REMARK  status: ('A' for Active; 'I' for Inactive)
REMARK    1  A    between atoms: N_1  and  C_10
REMARK    2  A    between atoms: N_2  and  C_29
REMARK    3  A    between atoms: C_10  and  C_11
REMARK    4  A    between atoms: C_16  and  O_17
REMARK    5  A    between atoms: O_17  and  C_18
REMARK    6  A    between atoms: C_23  and  C_26
REMARK    7  A    between atoms: C_29  and  C_30
REMARK    8  A    between atoms: C_35  and  C_37
REMARK    9  A    between atoms: C_37  and  O_38
REMARK                            x       y       z     vdW  Elec       q    Type
REMARK                         _______ _______ _______ _____ _____    ______ ____
ROOT
ATOM      1  N   UNL     1      33.277 -22.710 -16.048  0.00  0.00    +0.388 N 
ATOM      2  N   UNL     1      34.691 -23.618 -13.805  0.00  0.00    +0.388 N 
ATOM      3  C   UNL     1      32.889 -23.931 -15.300  0.00  0.00    -0.081 C 
ATOM      4  C   UNL     1      35.073 -23.983 -15.191  0.00  0.00    -0.081 C 
ATOM      5  C   UNL     1      33.976 -24.934 -15.638  0.00  0.00    -0.046 C 
ATOM      6  C   UNL     1      34.761 -22.754 -16.065  0.00  0.00    -0.098 C 
ATOM      7  C   UNL     1      33.207 -23.650 -13.820  0.00  0.00    -0.098 C 
ATOM      8  H   UNL     1      32.917 -21.862 -15.608  0.00  0.00    -0.079 HD
ATOM      9  H   UNL     1      35.058 -22.704 -13.536  0.00  0.00    -0.079 HD
ENDROOT
BRANCH   1  10
ATOM     10  C   UNL     1      32.714 -22.672 -17.392  0.00  0.00    -0.050 C 
BRANCH  10  11
ATOM     11  C   UNL     1      33.629 -21.976 -18.364  0.00  0.00    -0.043 C 
ATOM     12  C   UNL     1      35.003 -22.216 -18.322  0.00  0.00    -0.003 C 
ATOM     13  C   UNL     1      33.103 -21.091 -19.306  0.00  0.00    -0.003 C 
ATOM     14  C   UNL     1      35.851 -21.571 -19.223  0.00  0.00    +0.037 C 
ATOM     15  C   UNL     1      33.951 -20.446 -20.207  0.00  0.00    +0.037 C 
ATOM     16  C   UNL     1      35.325 -20.686 -20.165  0.00  0.00    +0.145 C 
BRANCH  16  17
ATOM     17  O   UNL     1      36.152 -20.056 -21.043  0.00  0.00    -0.453 OA
BRANCH  17  18
ATOM     18  C   UNL     1      35.647 -18.969 -21.737  0.00  0.00    +0.145 C 
ATOM     19  C   UNL     1      35.113 -19.144 -23.014  0.00  0.00    +0.038 C 
ATOM     20  C   UNL     1      35.674 -17.700 -21.160  0.00  0.00    +0.038 C 
ATOM     21  C   UNL     1      34.608 -18.049 -23.714  0.00  0.00    +0.008 C 
ATOM     22  C   UNL     1      35.168 -16.605 -21.860  0.00  0.00    +0.008 C 
ATOM     23  C   UNL     1      34.634 -16.779 -23.138  0.00  0.00    +0.054 C 
BRANCH  23  26
ATOM     24  O   UNL     1      33.817 -14.558 -23.100  0.00  0.00    -0.431 OA
ATOM     25  N   UNL     1      33.878 -15.515 -25.148  0.00  0.00    -0.206 NA
ATOM     26  C   UNL     1      34.111 -15.647 -23.862  0.00  0.00    +0.230 C 
ATOM     27  C   UNL     1      33.352 -13.652 -24.005  0.00  0.00    +0.202 C 
ATOM     28  C   UNL     1      33.392 -14.237 -25.246  0.00  0.00    +0.143 C 
ENDBRANCH  23  26
ENDBRANCH  17  18
ENDBRANCH  16  17
ENDBRANCH  10  11
ENDBRANCH   1  10
BRANCH   2  29
ATOM     29  C   UNL     1      35.250 -24.526 -12.811  0.00  0.00    -0.050 C 
BRANCH  29  30
ATOM     30  C   UNL     1      36.604 -25.040 -13.219  0.00  0.00    -0.043 C 
ATOM     31  C   UNL     1      36.706 -26.158 -14.047  0.00  0.00    -0.006 C 
ATOM     32  C   UNL     1      37.759 -24.398 -12.768  0.00  0.00    -0.006 C 
ATOM     33  C   UNL     1      37.961 -26.634 -14.424  0.00  0.00    +0.006 C 
ATOM     34  C   UNL     1      39.013 -24.875 -13.145  0.00  0.00    +0.006 C 
ATOM     35  C   UNL     1      39.116 -25.992 -13.975  0.00  0.00    +0.075 C 
BRANCH  35  37
ATOM     36  O   UNL     1      41.306 -26.874 -13.595  0.00  0.00    -0.245 OA
ATOM     37  C   UNL     1      40.423 -26.489 -14.368  0.00  0.00    +0.338 C 
BRANCH  37  38
ATOM     38  O   UNL     1      40.594 -26.492 -15.719  0.00  0.00    -0.477 OA
ATOM     39  H   UNL     1      40.491 -25.698 -16.207  0.00  0.00    +0.295 HD
ENDBRANCH  37  38
ENDBRANCH  35  37
ENDBRANCH  29  30
ENDBRANCH   2  29
TORSDOF 9
ENDMDL
