MODEL 1
REMARK VINA RESULT:     -11.5      0.000      0.000
REMARK  Name = 25058128
REMARK  13 active torsions:
REMARK  status: ('A' for Active; 'I' for Inactive)
REMARK    1  A    between atoms: C_1  and  S_11
REMARK    2  A    between atoms: C_9  and  O_27
REMARK    3  A    between atoms: S_11  and  N_14
REMARK    4  A    between atoms: N_14  and  C_16
REMARK    5  A    between atoms: C_16  and  C_18
REMARK    6  A    between atoms: C_16  and  C_21
REMARK    7  A    between atoms: C_18  and  O_19
REMARK    8  A    between atoms: C_21  and  C_22
REMARK    9  A    between atoms: C_22  and  C_24
REMARK   10  A    between atoms: C_24  and  O_25
REMARK   11  A    between atoms: O_27  and  C_28
REMARK   12  A    between atoms: C_28  and  C_30
REMARK   13  A    between atoms: C_35  and  C_37
REMARK                            x       y       z     vdW  Elec       q    Type
REMARK                         _______ _______ _______ _____ _____    ______ ____
ROOT
ATOM      1  C   UNL     1      36.163 -22.790 -16.438  0.00  0.00    +0.122 C 
ATOM      2  C   UNL     1      34.675 -21.948 -18.168  0.00  0.00    +0.002 C 
ATOM      3  C   UNL     1      34.888 -22.688 -16.993  0.00  0.00    +0.020 C 
ATOM      4  C   UNL     1      35.772 -21.303 -18.787  0.00  0.00    +0.003 C 
ATOM      5  C   UNL     1      37.241 -22.155 -17.046  0.00  0.00    +0.020 C 
ATOM      6  C   UNL     1      37.048 -21.415 -18.214  0.00  0.00    +0.001 C 
ATOM      7  C   UNL     1      35.559 -20.562 -19.962  0.00  0.00    +0.037 C 
ATOM      8  C   UNL     1      33.398 -21.835 -18.742  0.00  0.00    +0.003 C 
ATOM      9  C   UNL     1      34.283 -20.460 -20.518  0.00  0.00    +0.139 C 
ATOM     10  C   UNL     1      33.205 -21.095 -19.909  0.00  0.00    +0.037 C 
ENDROOT
BRANCH   1  11
ATOM     11  S   UNL     1      36.410 -23.726 -14.958  0.00  0.00    +0.061 S 
ATOM     12  O   UNL     1      36.132 -22.860 -13.830  0.00  0.00    -0.153 OA
ATOM     13  O   UNL     1      35.682 -24.971 -15.120  0.00  0.00    -0.153 OA
BRANCH  11  14
ATOM     14  N   UNL     1      38.076 -24.051 -15.025  0.00  0.00    -0.170 NA
ATOM     15  H   UNL     1      38.554 -23.213 -14.695  0.00  0.00    +0.149 HD
BRANCH  14  16
ATOM     16  C   UNL     1      38.638 -25.190 -14.266  0.00  0.00    +0.174 C 
BRANCH  16  18
ATOM     17  O   UNL     1      41.051 -24.981 -14.045  0.00  0.00    -0.249 OA
ATOM     18  C   UNL     1      40.078 -25.366 -14.682  0.00  0.00    +0.330 C 
BRANCH  18  19
ATOM     19  O   UNL     1      40.193 -26.031 -15.861  0.00  0.00    -0.479 OA
ATOM     20  H   UNL     1      39.561 -26.681 -16.096  0.00  0.00    +0.295 HD
ENDBRANCH  18  19
ENDBRANCH  16  18
BRANCH  16  21
ATOM     21  C   UNL     1      38.430 -24.986 -12.760  0.00  0.00    +0.040 C 
BRANCH  21  22
ATOM     22  C   UNL     1      37.432 -25.924 -12.077  0.00  0.00    +0.111 C 
BRANCH  22  24
ATOM     23  O   UNL     1      36.566 -24.711 -10.176  0.00  0.00    -0.250 OA
ATOM     24  C   UNL     1      36.371 -25.210 -11.278  0.00  0.00    +0.314 C 
BRANCH  24  25
ATOM     25  O   UNL     1      35.166 -25.192 -11.899  0.00  0.00    -0.480 OA
ATOM     26  H   UNL     1      34.766 -24.373 -12.121  0.00  0.00    +0.295 HD
ENDBRANCH  24  25
ENDBRANCH  22  24
ENDBRANCH  21  22
ENDBRANCH  16  21
ENDBRANCH  14  16
ENDBRANCH  11  14
ENDBRANCH   1  11
BRANCH   9  27
ATOM     27  O   UNL     1      34.093 -19.738 -21.655  0.00  0.00    -0.471 OA
BRANCH  27  28
ATOM     28  C   UNL     1      35.247 -19.148 -22.251  0.00  0.00    +0.234 C 
BRANCH  28  30
ATOM     29  F   UNL     1      35.360 -17.022 -20.384  0.00  0.00    -0.204 F 
ATOM     30  C   UNL     1      34.939 -17.725 -22.612  0.00  0.00    +0.049 C 
ATOM     31  C   UNL     1      35.012 -16.724 -21.644  0.00  0.00    +0.140 C 
ATOM     32  C   UNL     1      34.578 -17.404 -23.921  0.00  0.00    +0.002 C 
ATOM     33  C   UNL     1      34.724 -15.402 -21.984  0.00  0.00    +0.040 C 
ATOM     34  C   UNL     1      34.289 -16.082 -24.261  0.00  0.00    +0.010 C 
ATOM     35  C   UNL     1      34.362 -15.081 -23.293  0.00  0.00    +0.071 C 
BRANCH  35  37
ATOM     36  N   UNL     1      33.830 -12.627 -23.924  0.00  0.00    -0.191 NA
ATOM     37  C   UNL     1      34.069 -13.726 -23.641  0.00  0.00    +0.100 C 
ENDBRANCH  35  37
ENDBRANCH  28  30
ENDBRANCH  27  28
ENDBRANCH   9  27
TORSDOF 13
ENDMDL
MODEL 2
REMARK VINA RESULT:     -11.4      2.504      4.098
REMARK  Name = 25058128
REMARK  13 active torsions:
REMARK  status: ('A' for Active; 'I' for Inactive)
REMARK    1  A    between atoms: C_1  and  S_11
REMARK    2  A    between atoms: C_9  and  O_27
REMARK    3  A    between atoms: S_11  and  N_14
REMARK    4  A    between atoms: N_14  and  C_16
REMARK    5  A    between atoms: C_16  and  C_18
REMARK    6  A    between atoms: C_16  and  C_21
REMARK    7  A    between atoms: C_18  and  O_19
REMARK    8  A    between atoms: C_21  and  C_22
REMARK    9  A    between atoms: C_22  and  C_24
REMARK   10  A    between atoms: C_24  and  O_25
REMARK   11  A    between atoms: O_27  and  C_28
REMARK   12  A    between atoms: C_28  and  C_30
REMARK   13  A    between atoms: C_35  and  C_37
REMARK                            x       y       z     vdW  Elec       q    Type
REMARK                         _______ _______ _______ _____ _____    ______ ____
ROOT
ATOM      1  C   UNL     1      35.654 -22.582 -16.613  0.00  0.00    +0.122 C 
ATOM      2  C   UNL     1      34.362 -21.679 -18.466  0.00  0.00    +0.002 C 
ATOM      3  C   UNL     1      34.430 -22.376 -17.248  0.00  0.00    +0.020 C 
ATOM      4  C   UNL     1      35.555 -21.185 -19.047  0.00  0.00    +0.003 C 
ATOM      5  C   UNL     1      36.826 -22.095 -17.184  0.00  0.00    +0.020 C 
ATOM      6  C   UNL     1      36.778 -21.400 -18.393  0.00  0.00    +0.001 C 
ATOM      7  C   UNL     1      35.488 -20.488 -20.265  0.00  0.00    +0.037 C 
ATOM      8  C   UNL     1      33.139 -21.463 -19.121  0.00  0.00    +0.003 C 
ATOM      9  C   UNL     1      34.263 -20.282 -20.900  0.00  0.00    +0.139 C 
ATOM     10  C   UNL     1      33.091 -20.769 -20.330  0.00  0.00    +0.037 C 
ENDROOT
BRANCH   1  11
ATOM     11  S   UNL     1      35.717 -23.461 -15.080  0.00  0.00    +0.061 S 
ATOM     12  O   UNL     1      35.587 -24.875 -15.370  0.00  0.00    -0.153 OA
ATOM     13  O   UNL     1      36.874 -22.967 -14.358  0.00  0.00    -0.153 OA
BRANCH  11  14
ATOM     14  N   UNL     1      34.309 -22.911 -14.304  0.00  0.00    -0.170 NA
ATOM     15  H   UNL     1      34.007 -22.072 -14.801  0.00  0.00    +0.149 HD
BRANCH  14  16
ATOM     16  C   UNL     1      33.128 -23.796 -14.202  0.00  0.00    +0.174 C 
BRANCH  16  18
ATOM     17  O   UNL     1      34.139 -24.464 -12.094  0.00  0.00    -0.249 OA
ATOM     18  C   UNL     1      33.215 -24.544 -12.894  0.00  0.00    +0.330 C 
BRANCH  18  19
ATOM     19  O   UNL     1      32.123 -25.323 -12.676  0.00  0.00    -0.479 OA
ATOM     20  H   UNL     1      31.452 -25.035 -12.089  0.00  0.00    +0.295 HD
ENDBRANCH  18  19
ENDBRANCH  16  18
BRANCH  16  21
ATOM     21  C   UNL     1      31.837 -22.991 -14.393  0.00  0.00    +0.040 C 
BRANCH  21  22
ATOM     22  C   UNL     1      31.153 -23.113 -15.757  0.00  0.00    +0.111 C 
BRANCH  22  24
ATOM     23  O   UNL     1      29.014 -23.694 -14.795  0.00  0.00    -0.250 OA
ATOM     24  C   UNL     1      29.647 -23.138 -15.685  0.00  0.00    +0.314 C 
BRANCH  24  25
ATOM     25  O   UNL     1      29.059 -22.492 -16.723  0.00  0.00    -0.480 OA
ATOM     26  H   UNL     1      29.587 -22.116 -17.399  0.00  0.00    +0.295 HD
ENDBRANCH  24  25
ENDBRANCH  22  24
ENDBRANCH  21  22
ENDBRANCH  16  21
ENDBRANCH  14  16
ENDBRANCH  11  14
ENDBRANCH   1  11
BRANCH   9  27
ATOM     27  O   UNL     1      34.214 -19.604 -22.079  0.00  0.00    -0.471 OA
BRANCH  27  28
ATOM     28  C   UNL     1      35.379 -18.872 -22.457  0.00  0.00    +0.234 C 
BRANCH  28  30
ATOM     29  F   UNL     1      35.365 -16.837 -20.488  0.00  0.00    -0.204 F 
ATOM     30  C   UNL     1      34.992 -17.452 -22.750  0.00  0.00    +0.049 C 
ATOM     31  C   UNL     1      35.006 -16.497 -21.734  0.00  0.00    +0.140 C 
ATOM     32  C   UNL     1      34.618 -17.089 -24.044  0.00  0.00    +0.002 C 
ATOM     33  C   UNL     1      34.645 -15.178 -22.011  0.00  0.00    +0.040 C 
ATOM     34  C   UNL     1      34.257 -15.769 -24.321  0.00  0.00    +0.010 C 
ATOM     35  C   UNL     1      34.270 -14.814 -23.304  0.00  0.00    +0.071 C 
BRANCH  35  37
ATOM     36  N   UNL     1      33.604 -12.366 -23.818  0.00  0.00    -0.191 NA
ATOM     37  C   UNL     1      33.902 -13.463 -23.588  0.00  0.00    +0.100 C 
ENDBRANCH  35  37
ENDBRANCH  28  30
ENDBRANCH  27  28
ENDBRANCH   9  27
TORSDOF 13
ENDMDL
MODEL 3
REMARK VINA RESULT:     -11.4      1.071      1.709
REMARK  Name = 25058128
REMARK  13 active torsions:
REMARK  status: ('A' for Active; 'I' for Inactive)
REMARK    1  A    between atoms: C_1  and  S_11
REMARK    2  A    between atoms: C_9  and  O_27
REMARK    3  A    between atoms: S_11  and  N_14
REMARK    4  A    between atoms: N_14  and  C_16
REMARK    5  A    between atoms: C_16  and  C_18
REMARK    6  A    between atoms: C_16  and  C_21
REMARK    7  A    between atoms: C_18  and  O_19
REMARK    8  A    between atoms: C_21  and  C_22
REMARK    9  A    between atoms: C_22  and  C_24
REMARK   10  A    between atoms: C_24  and  O_25
REMARK   11  A    between atoms: O_27  and  C_28
REMARK   12  A    between atoms: C_28  and  C_30
REMARK   13  A    between atoms: C_35  and  C_37
REMARK                            x       y       z     vdW  Elec       q    Type
REMARK                         _______ _______ _______ _____ _____    ______ ____
ROOT
ATOM      1  C   UNL     1      34.550 -23.127 -16.446  0.00  0.00    +0.122 C 
ATOM      2  C   UNL     1      35.279 -21.759 -18.321  0.00  0.00    +0.002 C 
ATOM      3  C   UNL     1      35.567 -22.492 -17.158  0.00  0.00    +0.020 C 
ATOM      4  C   UNL     1      33.938 -21.670 -18.767  0.00  0.00    +0.003 C 
ATOM      5  C   UNL     1      33.233 -23.041 -16.885  0.00  0.00    +0.020 C 
ATOM      6  C   UNL     1      32.927 -22.317 -18.039  0.00  0.00    +0.001 C 
ATOM      7  C   UNL     1      33.648 -20.938 -19.930  0.00  0.00    +0.037 C 
ATOM      8  C   UNL     1      36.289 -21.111 -19.050  0.00  0.00    +0.003 C 
ATOM      9  C   UNL     1      34.666 -20.301 -20.643  0.00  0.00    +0.139 C 
ATOM     10  C   UNL     1      35.983 -20.388 -20.203  0.00  0.00    +0.037 C 
ENDROOT
BRANCH   1  11
ATOM     11  S   UNL     1      34.936 -24.045 -14.985  0.00  0.00    +0.061 S 
ATOM     12  O   UNL     1      34.015 -23.635 -13.943  0.00  0.00    -0.153 OA
ATOM     13  O   UNL     1      35.024 -25.439 -15.374  0.00  0.00    -0.153 OA
BRANCH  11  14
ATOM     14  N   UNL     1      36.495 -23.477 -14.617  0.00  0.00    -0.170 NA
ATOM     15  H   UNL     1      36.381 -22.558 -14.188  0.00  0.00    +0.149 HD
BRANCH  14  16
ATOM     16  C   UNL     1      37.375 -24.260 -13.722  0.00  0.00    +0.174 C 
BRANCH  16  18
ATOM     17  O   UNL     1      39.695 -24.962 -13.920  0.00  0.00    -0.249 OA
ATOM     18  C   UNL     1      38.751 -24.304 -14.341  0.00  0.00    +0.330 C 
BRANCH  18  19
ATOM     19  O   UNL     1      38.837 -23.532 -15.455  0.00  0.00    -0.479 OA
ATOM     20  H   UNL     1      38.097 -23.446 -16.024  0.00  0.00    +0.295 HD
ENDBRANCH  18  19
ENDBRANCH  16  18
BRANCH  16  21
ATOM     21  C   UNL     1      37.333 -23.694 -12.298  0.00  0.00    +0.040 C 
BRANCH  21  22
ATOM     22  C   UNL     1      37.183 -24.712 -11.164  0.00  0.00    +0.111 C 
BRANCH  22  24
ATOM     23  O   UNL     1      35.582 -24.584  -9.360  0.00  0.00    -0.250 OA
ATOM     24  C   UNL     1      35.805 -24.748 -10.553  0.00  0.00    +0.314 C 
BRANCH  24  25
ATOM     25  O   UNL     1      34.832 -24.998 -11.463  0.00  0.00    -0.480 OA
ATOM     26  H   UNL     1      34.932 -24.706 -12.348  0.00  0.00    +0.295 HD
ENDBRANCH  24  25
ENDBRANCH  22  24
ENDBRANCH  21  22
ENDBRANCH  16  21
ENDBRANCH  14  16
ENDBRANCH  11  14
ENDBRANCH   1  11
BRANCH   9  27
ATOM     27  O   UNL     1      34.369 -19.597 -21.768  0.00  0.00    -0.471 OA
BRANCH  27  28
ATOM     28  C   UNL     1      35.451 -18.940 -22.428  0.00  0.00    +0.234 C 
BRANCH  28  30
ATOM     29  F   UNL     1      35.372 -16.884 -20.485  0.00  0.00    -0.204 F 
ATOM     30  C   UNL     1      35.049 -17.531 -22.745  0.00  0.00    +0.049 C 
ATOM     31  C   UNL     1      35.030 -16.564 -21.740  0.00  0.00    +0.140 C 
ATOM     32  C   UNL     1      34.693 -17.188 -24.050  0.00  0.00    +0.002 C 
ATOM     33  C   UNL     1      34.655 -15.254 -22.040  0.00  0.00    +0.040 C 
ATOM     34  C   UNL     1      34.317 -15.878 -24.349  0.00  0.00    +0.010 C 
ATOM     35  C   UNL     1      34.298 -14.911 -23.344  0.00  0.00    +0.071 C 
BRANCH  35  37
ATOM     36  N   UNL     1      33.604 -12.479 -23.898  0.00  0.00    -0.191 NA
ATOM     37  C   UNL     1      33.916 -13.568 -23.650  0.00  0.00    +0.100 C 
ENDBRANCH  35  37
ENDBRANCH  28  30
ENDBRANCH  27  28
ENDBRANCH   9  27
TORSDOF 13
ENDMDL
MODEL 4
REMARK VINA RESULT:     -11.4      1.420      3.018
REMARK  Name = 25058128
REMARK  13 active torsions:
REMARK  status: ('A' for Active; 'I' for Inactive)
REMARK    1  A    between atoms: C_1  and  S_11
REMARK    2  A    between atoms: C_9  and  O_27
REMARK    3  A    between atoms: S_11  and  N_14
REMARK    4  A    between atoms: N_14  and  C_16
REMARK    5  A    between atoms: C_16  and  C_18
REMARK    6  A    between atoms: C_16  and  C_21
REMARK    7  A    between atoms: C_18  and  O_19
REMARK    8  A    between atoms: C_21  and  C_22
REMARK    9  A    between atoms: C_22  and  C_24
REMARK   10  A    between atoms: C_24  and  O_25
REMARK   11  A    between atoms: O_27  and  C_28
REMARK   12  A    between atoms: C_28  and  C_30
REMARK   13  A    between atoms: C_35  and  C_37
REMARK                            x       y       z     vdW  Elec       q    Type
REMARK                         _______ _______ _______ _____ _____    ______ ____
ROOT
ATOM      1  C   UNL     1      36.014 -23.278 -15.315  0.00  0.00    +0.122 C 
ATOM      2  C   UNL     1      34.793 -22.476 -17.260  0.00  0.00    +0.002 C 
ATOM      3  C   UNL     1      34.828 -23.175 -16.042  0.00  0.00    +0.020 C 
ATOM      4  C   UNL     1      35.978 -21.872 -17.745  0.00  0.00    +0.003 C 
ATOM      5  C   UNL     1      37.178 -22.684 -15.792  0.00  0.00    +0.020 C 
ATOM      6  C   UNL     1      37.162 -21.985 -17.000  0.00  0.00    +0.001 C 
ATOM      7  C   UNL     1      35.943 -21.172 -18.963  0.00  0.00    +0.037 C 
ATOM      8  C   UNL     1      33.608 -22.362 -18.006  0.00  0.00    +0.003 C 
ATOM      9  C   UNL     1      34.756 -21.069 -19.691  0.00  0.00    +0.139 C 
ATOM     10  C   UNL     1      33.592 -21.663 -19.214  0.00  0.00    +0.037 C 
ENDROOT
BRANCH   1  11
ATOM     11  S   UNL     1      36.037 -24.163 -13.784  0.00  0.00    +0.061 S 
ATOM     12  O   UNL     1      34.970 -23.643 -12.951  0.00  0.00    -0.153 OA
ATOM     13  O   UNL     1      36.085 -25.574 -14.114  0.00  0.00    -0.153 OA
BRANCH  11  14
ATOM     14  N   UNL     1      37.537 -23.698 -13.135  0.00  0.00    -0.170 NA
ATOM     15  H   UNL     1      37.386 -22.817 -12.644  0.00  0.00    +0.149 HD
BRANCH  14  16
ATOM     16  C   UNL     1      38.246 -24.596 -12.196  0.00  0.00    +0.174 C 
BRANCH  16  18
ATOM     17  O   UNL     1      36.896 -24.246 -10.204  0.00  0.00    -0.249 OA
ATOM     18  C   UNL     1      37.281 -24.984 -11.102  0.00  0.00    +0.330 C 
BRANCH  18  19
ATOM     19  O   UNL     1      36.854 -26.267 -11.228  0.00  0.00    -0.479 OA
ATOM     20  H   UNL     1      36.097 -26.461 -11.745  0.00  0.00    +0.295 HD
ENDBRANCH  18  19
ENDBRANCH  16  18
BRANCH  16  21
ATOM     21  C   UNL     1      38.867 -25.778 -12.949  0.00  0.00    +0.040 C 
BRANCH  21  22
ATOM     22  C   UNL     1      39.557 -25.454 -14.277  0.00  0.00    +0.111 C 
BRANCH  22  24
ATOM     23  O   UNL     1      41.288 -27.113 -13.976  0.00  0.00    -0.250 OA
ATOM     24  C   UNL     1      40.534 -26.509 -14.730  0.00  0.00    +0.314 C 
BRANCH  24  25
ATOM     25  O   UNL     1      40.505 -26.712 -16.071  0.00  0.00    -0.480 OA
ATOM     26  H   UNL     1      41.051 -26.197 -16.634  0.00  0.00    +0.295 HD
ENDBRANCH  24  25
ENDBRANCH  22  24
ENDBRANCH  21  22
ENDBRANCH  16  21
ENDBRANCH  14  16
ENDBRANCH  11  14
ENDBRANCH   1  11
BRANCH   9  27
ATOM     27  O   UNL     1      34.738 -20.387 -20.868  0.00  0.00    -0.471 OA
BRANCH  27  28
ATOM     28  C   UNL     1      35.795 -19.456 -21.096  0.00  0.00    +0.234 C 
BRANCH  28  30
ATOM     29  F   UNL     1      34.790 -20.041 -23.677  0.00  0.00    -0.204 F 
ATOM     30  C   UNL     1      35.319 -18.398 -22.047  0.00  0.00    +0.049 C 
ATOM     31  C   UNL     1      34.836 -18.753 -23.306  0.00  0.00    +0.140 C 
ATOM     32  C   UNL     1      35.362 -17.056 -21.670  0.00  0.00    +0.002 C 
ATOM     33  C   UNL     1      34.395 -17.766 -24.188  0.00  0.00    +0.040 C 
ATOM     34  C   UNL     1      34.921 -16.069 -22.553  0.00  0.00    +0.010 C 
ATOM     35  C   UNL     1      34.438 -16.424 -23.812  0.00  0.00    +0.071 C 
BRANCH  35  37
ATOM     36  N   UNL     1      33.617 -14.594 -25.449  0.00  0.00    -0.191 NA
ATOM     37  C   UNL     1      33.985 -15.414 -24.715  0.00  0.00    +0.100 C 
ENDBRANCH  35  37
ENDBRANCH  28  30
ENDBRANCH  27  28
ENDBRANCH   9  27
TORSDOF 13
ENDMDL
MODEL 5
REMARK VINA RESULT:     -11.3      1.899      3.462
REMARK  Name = 25058128
REMARK  13 active torsions:
REMARK  status: ('A' for Active; 'I' for Inactive)
REMARK    1  A    between atoms: C_1  and  S_11
REMARK    2  A    between atoms: C_9  and  O_27
REMARK    3  A    between atoms: S_11  and  N_14
REMARK    4  A    between atoms: N_14  and  C_16
REMARK    5  A    between atoms: C_16  and  C_18
REMARK    6  A    between atoms: C_16  and  C_21
REMARK    7  A    between atoms: C_18  and  O_19
REMARK    8  A    between atoms: C_21  and  C_22
REMARK    9  A    between atoms: C_22  and  C_24
REMARK   10  A    between atoms: C_24  and  O_25
REMARK   11  A    between atoms: O_27  and  C_28
REMARK   12  A    between atoms: C_28  and  C_30
REMARK   13  A    between atoms: C_35  and  C_37
REMARK                            x       y       z     vdW  Elec       q    Type
REMARK                         _______ _______ _______ _____ _____    ______ ____
ROOT
ATOM      1  C   UNL     1      33.267 -23.685 -14.886  0.00  0.00    +0.122 C 
ATOM      2  C   UNL     1      34.520 -22.729 -16.738  0.00  0.00    +0.002 C 
ATOM      3  C   UNL     1      34.482 -23.334 -15.471  0.00  0.00    +0.020 C 
ATOM      4  C   UNL     1      33.305 -22.478 -17.421  0.00  0.00    +0.003 C 
ATOM      5  C   UNL     1      32.073 -23.439 -15.556  0.00  0.00    +0.020 C 
ATOM      6  C   UNL     1      32.090 -22.840 -16.816  0.00  0.00    +0.001 C 
ATOM      7  C   UNL     1      33.341 -21.874 -18.688  0.00  0.00    +0.037 C 
ATOM      8  C   UNL     1      35.734 -22.367 -17.343  0.00  0.00    +0.003 C 
ATOM      9  C   UNL     1      34.558 -21.522 -19.274  0.00  0.00    +0.139 C 
ATOM     10  C   UNL     1      35.751 -21.768 -18.603  0.00  0.00    +0.037 C 
ENDROOT
BRANCH   1  11
ATOM     11  S   UNL     1      33.242 -24.445 -13.289  0.00  0.00    +0.061 S 
ATOM     12  O   UNL     1      32.829 -23.446 -12.324  0.00  0.00    -0.153 OA
ATOM     13  O   UNL     1      32.498 -25.683 -13.423  0.00  0.00    -0.153 OA
BRANCH  11  14
ATOM     14  N   UNL     1      34.884 -24.814 -13.053  0.00  0.00    -0.170 NA
ATOM     15  H   UNL     1      35.322 -24.815 -13.975  0.00  0.00    +0.149 HD
BRANCH  14  16
ATOM     16  C   UNL     1      35.718 -23.952 -12.185  0.00  0.00    +0.174 C 
BRANCH  16  18
ATOM     17  O   UNL     1      35.122 -25.326 -10.269  0.00  0.00    -0.249 OA
ATOM     18  C   UNL     1      35.963 -24.690 -10.891  0.00  0.00    +0.330 C 
BRANCH  18  19
ATOM     19  O   UNL     1      37.256 -24.592 -10.483  0.00  0.00    -0.479 OA
ATOM     20  H   UNL     1      37.456 -24.223  -9.646  0.00  0.00    +0.295 HD
ENDBRANCH  18  19
ENDBRANCH  16  18
BRANCH  16  21
ATOM     21  C   UNL     1      36.990 -23.518 -12.924  0.00  0.00    +0.040 C 
BRANCH  21  22
ATOM     22  C   UNL     1      37.525 -24.483 -13.984  0.00  0.00    +0.111 C 
BRANCH  22  24
ATOM     23  O   UNL     1      38.497 -26.288 -12.707  0.00  0.00    -0.250 OA
ATOM     24  C   UNL     1      38.648 -25.364 -13.497  0.00  0.00    +0.314 C 
BRANCH  24  25
ATOM     25  O   UNL     1      39.853 -25.016 -14.012  0.00  0.00    -0.480 OA
ATOM     26  H   UNL     1      40.631 -25.444 -13.712  0.00  0.00    +0.295 HD
ENDBRANCH  24  25
ENDBRANCH  22  24
ENDBRANCH  21  22
ENDBRANCH  16  21
ENDBRANCH  14  16
ENDBRANCH  11  14
ENDBRANCH   1  11
BRANCH   9  27
ATOM     27  O   UNL     1      34.576 -20.938 -20.503  0.00  0.00    -0.471 OA
BRANCH  27  28
ATOM     28  C   UNL     1      35.720 -20.152 -20.832  0.00  0.00    +0.234 C 
BRANCH  28  30
ATOM     29  F   UNL     1      36.024 -17.380 -20.346  0.00  0.00    -0.204 F 
ATOM     30  C   UNL     1      35.323 -19.100 -21.824  0.00  0.00    +0.049 C 
ATOM     31  C   UNL     1      35.499 -17.749 -21.522  0.00  0.00    +0.140 C 
ATOM     32  C   UNL     1      34.777 -19.474 -23.052  0.00  0.00    +0.002 C 
ATOM     33  C   UNL     1      35.128 -16.774 -22.448  0.00  0.00    +0.040 C 
ATOM     34  C   UNL     1      34.405 -18.498 -23.977  0.00  0.00    +0.010 C 
ATOM     35  C   UNL     1      34.581 -17.148 -23.675  0.00  0.00    +0.071 C 
BRANCH  35  37
ATOM     36  N   UNL     1      33.894 -15.336 -25.393  0.00  0.00    -0.191 NA
ATOM     37  C   UNL     1      34.202 -16.148 -24.623  0.00  0.00    +0.100 C 
ENDBRANCH  35  37
ENDBRANCH  28  30
ENDBRANCH  27  28
ENDBRANCH   9  27
TORSDOF 13
ENDMDL
MODEL 6
REMARK VINA RESULT:     -11.1      3.602      5.441
REMARK  Name = 25058128
REMARK  13 active torsions:
REMARK  status: ('A' for Active; 'I' for Inactive)
REMARK    1  A    between atoms: C_1  and  S_11
REMARK    2  A    between atoms: C_9  and  O_27
REMARK    3  A    between atoms: S_11  and  N_14
REMARK    4  A    between atoms: N_14  and  C_16
REMARK    5  A    between atoms: C_16  and  C_18
REMARK    6  A    between atoms: C_16  and  C_21
REMARK    7  A    between atoms: C_18  and  O_19
REMARK    8  A    between atoms: C_21  and  C_22
REMARK    9  A    between atoms: C_22  and  C_24
REMARK   10  A    between atoms: C_24  and  O_25
REMARK   11  A    between atoms: O_27  and  C_28
REMARK   12  A    between atoms: C_28  and  C_30
REMARK   13  A    between atoms: C_35  and  C_37
REMARK                            x       y       z     vdW  Elec       q    Type
REMARK                         _______ _______ _______ _____ _____    ______ ____
ROOT
ATOM      1  C   UNL     1      33.961 -22.182 -18.458  0.00  0.00    +0.122 C 
ATOM      2  C   UNL     1      35.418 -20.690 -19.711  0.00  0.00    +0.002 C 
ATOM      3  C   UNL     1      35.237 -21.707 -18.759  0.00  0.00    +0.020 C 
ATOM      4  C   UNL     1      34.286 -20.148 -20.366  0.00  0.00    +0.003 C 
ATOM      5  C   UNL     1      32.849 -21.650 -19.103  0.00  0.00    +0.020 C 
ATOM      6  C   UNL     1      33.009 -20.639 -20.052  0.00  0.00    +0.001 C 
ATOM      7  C   UNL     1      34.465 -19.131 -21.318  0.00  0.00    +0.037 C 
ATOM      8  C   UNL     1      36.695 -20.198 -20.026  0.00  0.00    +0.003 C 
ATOM      9  C   UNL     1      35.742 -18.655 -21.619  0.00  0.00    +0.139 C 
ATOM     10  C   UNL     1      36.854 -19.187 -20.974  0.00  0.00    +0.037 C 
ENDROOT
BRANCH   1  11
ATOM     11  S   UNL     1      33.757 -23.464 -17.257  0.00  0.00    +0.061 S 
ATOM     12  O   UNL     1      33.495 -24.702 -17.964  0.00  0.00    -0.153 OA
ATOM     13  O   UNL     1      34.878 -23.368 -16.343  0.00  0.00    -0.153 OA
BRANCH  11  14
ATOM     14  N   UNL     1      32.346 -22.964 -16.451  0.00  0.00    -0.170 NA
ATOM     15  H   UNL     1      31.634 -22.817 -17.167  0.00  0.00    +0.149 HD
BRANCH  14  16
ATOM     16  C   UNL     1      31.740 -23.831 -15.416  0.00  0.00    +0.174 C 
BRANCH  16  18
ATOM     17  O   UNL     1      31.301 -23.170 -13.118  0.00  0.00    -0.249 OA
ATOM     18  C   UNL     1      32.074 -23.249 -14.064  0.00  0.00    +0.330 C 
BRANCH  18  19
ATOM     19  O   UNL     1      33.363 -22.826 -13.993  0.00  0.00    -0.479 OA
ATOM     20  H   UNL     1      33.748 -22.370 -14.715  0.00  0.00    +0.295 HD
ENDBRANCH  18  19
ENDBRANCH  16  18
BRANCH  16  21
ATOM     21  C   UNL     1      30.240 -24.013 -15.680  0.00  0.00    +0.040 C 
BRANCH  21  22
ATOM     22  C   UNL     1      29.454 -22.750 -16.040  0.00  0.00    +0.111 C 
BRANCH  22  24
ATOM     23  O   UNL     1      27.713 -24.127 -16.992  0.00  0.00    -0.250 OA
ATOM     24  C   UNL     1      28.085 -23.025 -16.611  0.00  0.00    +0.314 C 
BRANCH  24  25
ATOM     25  O   UNL     1      27.309 -21.914 -16.675  0.00  0.00    -0.480 OA
ATOM     26  H   UNL     1      26.513 -21.871 -16.181  0.00  0.00    +0.295 HD
ENDBRANCH  24  25
ENDBRANCH  22  24
ENDBRANCH  21  22
ENDBRANCH  16  21
ENDBRANCH  14  16
ENDBRANCH  11  14
ENDBRANCH   1  11
BRANCH   9  27
ATOM     27  O   UNL     1      35.900 -17.670 -22.545  0.00  0.00    -0.471 OA
BRANCH  27  28
ATOM     28  C   UNL     1      34.821 -17.451 -23.452  0.00  0.00    +0.234 C 
BRANCH  28  30
ATOM     29  F   UNL     1      35.078 -15.832 -21.144  0.00  0.00    -0.204 F 
ATOM     30  C   UNL     1      34.445 -15.999 -23.426  0.00  0.00    +0.049 C 
ATOM     31  C   UNL     1      34.595 -15.257 -22.254  0.00  0.00    +0.140 C 
ATOM     32  C   UNL     1      33.942 -15.392 -24.577  0.00  0.00    +0.002 C 
ATOM     33  C   UNL     1      34.244 -13.907 -22.234  0.00  0.00    +0.040 C 
ATOM     34  C   UNL     1      33.590 -14.041 -24.556  0.00  0.00    +0.010 C 
ATOM     35  C   UNL     1      33.741 -13.299 -23.385  0.00  0.00    +0.071 C 
BRANCH  35  37
ATOM     36  N   UNL     1      33.091 -10.793 -23.347  0.00  0.00    -0.191 NA
ATOM     37  C   UNL     1      33.383 -11.916 -23.364  0.00  0.00    +0.100 C 
ENDBRANCH  35  37
ENDBRANCH  28  30
ENDBRANCH  27  28
ENDBRANCH   9  27
TORSDOF 13
ENDMDL
MODEL 7
REMARK VINA RESULT:     -10.2      3.411     11.307
REMARK  Name = 25058128
REMARK  13 active torsions:
REMARK  status: ('A' for Active; 'I' for Inactive)
REMARK    1  A    between atoms: C_1  and  S_11
REMARK    2  A    between atoms: C_9  and  O_27
REMARK    3  A    between atoms: S_11  and  N_14
REMARK    4  A    between atoms: N_14  and  C_16
REMARK    5  A    between atoms: C_16  and  C_18
REMARK    6  A    between atoms: C_16  and  C_21
REMARK    7  A    between atoms: C_18  and  O_19
REMARK    8  A    between atoms: C_21  and  C_22
REMARK    9  A    between atoms: C_22  and  C_24
REMARK   10  A    between atoms: C_24  and  O_25
REMARK   11  A    between atoms: O_27  and  C_28
REMARK   12  A    between atoms: C_28  and  C_30
REMARK   13  A    between atoms: C_35  and  C_37
REMARK                            x       y       z     vdW  Elec       q    Type
REMARK                         _______ _______ _______ _____ _____    ______ ____
ROOT
ATOM      1  C   UNL     1      35.489 -19.833 -20.773  0.00  0.00    +0.122 C 
ATOM      2  C   UNL     1      34.264 -21.256 -19.227  0.00  0.00    +0.002 C 
ATOM      3  C   UNL     1      34.285 -20.369 -20.316  0.00  0.00    +0.020 C 
ATOM      4  C   UNL     1      35.481 -21.604 -18.594  0.00  0.00    +0.003 C 
ATOM      5  C   UNL     1      36.685 -20.175 -20.151  0.00  0.00    +0.020 C 
ATOM      6  C   UNL     1      36.683 -21.056 -19.069  0.00  0.00    +0.001 C 
ATOM      7  C   UNL     1      35.460 -22.492 -17.506  0.00  0.00    +0.037 C 
ATOM      8  C   UNL     1      33.061 -21.805 -18.752  0.00  0.00    +0.003 C 
ATOM      9  C   UNL     1      34.256 -23.028 -17.048  0.00  0.00    +0.139 C 
ATOM     10  C   UNL     1      33.059 -22.686 -17.670  0.00  0.00    +0.037 C 
ENDROOT
BRANCH   1  11
ATOM     11  S   UNL     1      35.494 -18.717 -22.145  0.00  0.00    +0.061 S 
ATOM     12  O   UNL     1      36.763 -18.858 -22.831  0.00  0.00    -0.153 OA
ATOM     13  O   UNL     1      34.250 -18.923 -22.861  0.00  0.00    -0.153 OA
BRANCH  11  14
ATOM     14  N   UNL     1      35.436 -17.207 -21.367  0.00  0.00    -0.170 NA
ATOM     15  H   UNL     1      36.394 -16.858 -21.328  0.00  0.00    +0.149 HD
BRANCH  14  16
ATOM     16  C   UNL     1      34.608 -16.117 -21.929  0.00  0.00    +0.174 C 
BRANCH  16  18
ATOM     17  O   UNL     1      34.667 -15.115 -19.714  0.00  0.00    -0.249 OA
ATOM     18  C   UNL     1      34.581 -14.987 -20.929  0.00  0.00    +0.330 C 
BRANCH  18  19
ATOM     19  O   UNL     1      34.470 -13.774 -21.530  0.00  0.00    -0.479 OA
ATOM     20  H   UNL     1      34.389 -12.998 -21.011  0.00  0.00    +0.295 HD
ENDBRANCH  18  19
ENDBRANCH  16  18
BRANCH  16  21
ATOM     21  C   UNL     1      35.111 -15.725 -23.323  0.00  0.00    +0.040 C 
BRANCH  21  22
ATOM     22  C   UNL     1      34.105 -15.846 -24.470  0.00  0.00    +0.111 C 
BRANCH  22  24
ATOM     23  O   UNL     1      33.524 -14.041 -25.967  0.00  0.00    -0.250 OA
ATOM     24  C   UNL     1      33.453 -14.541 -24.851  0.00  0.00    +0.314 C 
BRANCH  24  25
ATOM     25  O   UNL     1      32.789 -13.963 -23.819  0.00  0.00    -0.480 OA
ATOM     26  H   UNL     1      33.268 -13.588 -23.106  0.00  0.00    +0.295 HD
ENDBRANCH  24  25
ENDBRANCH  22  24
ENDBRANCH  21  22
ENDBRANCH  16  21
ENDBRANCH  14  16
ENDBRANCH  11  14
ENDBRANCH   1  11
BRANCH   9  27
ATOM     27  O   UNL     1      34.252 -23.888 -15.994  0.00  0.00    -0.471 OA
BRANCH  27  28
ATOM     28  C   UNL     1      34.912 -23.460 -14.804  0.00  0.00    +0.234 C 
BRANCH  28  30
ATOM     29  F   UNL     1      37.423 -22.154 -14.866  0.00  0.00    -0.204 F 
ATOM     30  C   UNL     1      36.217 -24.190 -14.677  0.00  0.00    +0.049 C 
ATOM     31  C   UNL     1      37.421 -23.486 -14.717  0.00  0.00    +0.140 C 
ATOM     32  C   UNL     1      36.225 -25.576 -14.520  0.00  0.00    +0.002 C 
ATOM     33  C   UNL     1      38.632 -24.168 -14.600  0.00  0.00    +0.040 C 
ATOM     34  C   UNL     1      37.437 -26.258 -14.404  0.00  0.00    +0.010 C 
ATOM     35  C   UNL     1      38.640 -25.554 -14.443  0.00  0.00    +0.071 C 
BRANCH  35  37
ATOM     36  N   UNL     1      40.888 -26.819 -14.221  0.00  0.00    -0.191 NA
ATOM     37  C   UNL     1      39.881 -26.252 -14.321  0.00  0.00    +0.100 C 
ENDBRANCH  35  37
ENDBRANCH  28  30
ENDBRANCH  27  28
ENDBRANCH   9  27
TORSDOF 13
ENDMDL
MODEL 8
REMARK VINA RESULT:     -10.1      4.982      8.750
REMARK  Name = 25058128
REMARK  13 active torsions:
REMARK  status: ('A' for Active; 'I' for Inactive)
REMARK    1  A    between atoms: C_1  and  S_11
REMARK    2  A    between atoms: C_9  and  O_27
REMARK    3  A    between atoms: S_11  and  N_14
REMARK    4  A    between atoms: N_14  and  C_16
REMARK    5  A    between atoms: C_16  and  C_18
REMARK    6  A    between atoms: C_16  and  C_21
REMARK    7  A    between atoms: C_18  and  O_19
REMARK    8  A    between atoms: C_21  and  C_22
REMARK    9  A    between atoms: C_22  and  C_24
REMARK   10  A    between atoms: C_24  and  O_25
REMARK   11  A    between atoms: O_27  and  C_28
REMARK   12  A    between atoms: C_28  and  C_30
REMARK   13  A    between atoms: C_35  and  C_37
REMARK                            x       y       z     vdW  Elec       q    Type
REMARK                         _______ _______ _______ _____ _____    ______ ____
ROOT
ATOM      1  C   UNL     1      34.993 -16.923 -22.401  0.00  0.00    +0.122 C 
ATOM      2  C   UNL     1      34.202 -15.041 -23.723  0.00  0.00    +0.002 C 
ATOM      3  C   UNL     1      34.583 -16.389 -23.622  0.00  0.00    +0.020 C 
ATOM      4  C   UNL     1      34.237 -14.224 -22.567  0.00  0.00    +0.003 C 
ATOM      5  C   UNL     1      35.026 -16.121 -21.265  0.00  0.00    +0.020 C 
ATOM      6  C   UNL     1      34.651 -14.779 -21.346  0.00  0.00    +0.001 C 
ATOM      7  C   UNL     1      33.856 -12.876 -22.668  0.00  0.00    +0.037 C 
ATOM      8  C   UNL     1      33.788 -14.485 -24.945  0.00  0.00    +0.003 C 
ATOM      9  C   UNL     1      33.447 -12.341 -23.890  0.00  0.00    +0.139 C 
ATOM     10  C   UNL     1      33.413 -13.144 -25.026  0.00  0.00    +0.037 C 
ENDROOT
BRANCH   1  11
ATOM     11  S   UNL     1      35.468 -18.623 -22.295  0.00  0.00    +0.061 S 
ATOM     12  O   UNL     1      34.627 -19.380 -23.201  0.00  0.00    -0.153 OA
ATOM     13  O   UNL     1      36.912 -18.667 -22.430  0.00  0.00    -0.153 OA
BRANCH  11  14
ATOM     14  N   UNL     1      35.054 -19.002 -20.691  0.00  0.00    -0.170 NA
ATOM     15  H   UNL     1      34.113 -18.641 -20.535  0.00  0.00    +0.149 HD
BRANCH  14  16
ATOM     16  C   UNL     1      35.050 -20.412 -20.242  0.00  0.00    +0.174 C 
BRANCH  16  18
ATOM     17  O   UNL     1      36.593 -21.695 -18.869  0.00  0.00    -0.249 OA
ATOM     18  C   UNL     1      36.318 -20.659 -19.461  0.00  0.00    +0.330 C 
BRANCH  18  19
ATOM     19  O   UNL     1      37.158 -19.593 -19.499  0.00  0.00    -0.479 OA
ATOM     20  H   UNL     1      37.365 -19.130 -18.710  0.00  0.00    +0.295 HD
ENDBRANCH  18  19
ENDBRANCH  16  18
BRANCH  16  21
ATOM     21  C   UNL     1      33.758 -20.728 -19.478  0.00  0.00    +0.040 C 
BRANCH  21  22
ATOM     22  C   UNL     1      33.390 -22.208 -19.344  0.00  0.00    +0.111 C 
BRANCH  22  24
ATOM     23  O   UNL     1      32.130 -22.811 -17.373  0.00  0.00    -0.250 OA
ATOM     24  C   UNL     1      33.217 -22.667 -17.918  0.00  0.00    +0.314 C 
BRANCH  24  25
ATOM     25  O   UNL     1      34.398 -22.889 -17.289  0.00  0.00    -0.480 OA
ATOM     26  H   UNL     1      34.463 -22.772 -16.362  0.00  0.00    +0.295 HD
ENDBRANCH  24  25
ENDBRANCH  22  24
ENDBRANCH  21  22
ENDBRANCH  16  21
ENDBRANCH  14  16
ENDBRANCH  11  14
ENDBRANCH   1  11
BRANCH   9  27
ATOM     27  O   UNL     1      33.079 -11.033 -23.971  0.00  0.00    -0.471 OA
BRANCH  27  28
ATOM     28  C   UNL     1      34.017 -10.065 -23.506  0.00  0.00    +0.234 C 
BRANCH  28  30
ATOM     29  F   UNL     1      35.336  -7.642 -22.868  0.00  0.00    -0.204 F 
ATOM     30  C   UNL     1      33.285  -8.804 -23.151  0.00  0.00    +0.049 C 
ATOM     31  C   UNL     1      33.996  -7.644 -22.845  0.00  0.00    +0.140 C 
ATOM     32  C   UNL     1      31.891  -8.795 -23.126  0.00  0.00    +0.002 C 
ATOM     33  C   UNL     1      33.311  -6.474 -22.515  0.00  0.00    +0.040 C 
ATOM     34  C   UNL     1      31.206  -7.625 -22.795  0.00  0.00    +0.010 C 
ATOM     35  C   UNL     1      31.917  -6.464 -22.489  0.00  0.00    +0.071 C 
BRANCH  35  37
ATOM     36  N   UNL     1      30.648  -4.291 -21.878  0.00  0.00    -0.191 NA
ATOM     37  C   UNL     1      31.216  -5.265 -22.152  0.00  0.00    +0.100 C 
ENDBRANCH  35  37
ENDBRANCH  28  30
ENDBRANCH  27  28
ENDBRANCH   9  27
TORSDOF 13
ENDMDL
MODEL 9
REMARK VINA RESULT:     -10.1      6.351     13.496
REMARK  Name = 25058128
REMARK  13 active torsions:
REMARK  status: ('A' for Active; 'I' for Inactive)
REMARK    1  A    between atoms: C_1  and  S_11
REMARK    2  A    between atoms: C_9  and  O_27
REMARK    3  A    between atoms: S_11  and  N_14
REMARK    4  A    between atoms: N_14  and  C_16
REMARK    5  A    between atoms: C_16  and  C_18
REMARK    6  A    between atoms: C_16  and  C_21
REMARK    7  A    between atoms: C_18  and  O_19
REMARK    8  A    between atoms: C_21  and  C_22
REMARK    9  A    between atoms: C_22  and  C_24
REMARK   10  A    between atoms: C_24  and  O_25
REMARK   11  A    between atoms: O_27  and  C_28
REMARK   12  A    between atoms: C_28  and  C_30
REMARK   13  A    between atoms: C_35  and  C_37
REMARK                            x       y       z     vdW  Elec       q    Type
REMARK                         _______ _______ _______ _____ _____    ______ ____
ROOT
ATOM      1  C   UNL     1      32.739 -12.190 -21.790  0.00  0.00    +0.122 C 
ATOM      2  C   UNL     1      34.007 -14.206 -22.282  0.00  0.00    +0.002 C 
ATOM      3  C   UNL     1      33.439 -12.989 -22.693  0.00  0.00    +0.020 C 
ATOM      4  C   UNL     1      33.862 -14.617 -20.935  0.00  0.00    +0.003 C 
ATOM      5  C   UNL     1      32.597 -12.593 -20.466  0.00  0.00    +0.020 C 
ATOM      6  C   UNL     1      33.155 -13.799 -20.040  0.00  0.00    +0.001 C 
ATOM      7  C   UNL     1      34.430 -15.834 -20.524  0.00  0.00    +0.037 C 
ATOM      8  C   UNL     1      34.715 -15.024 -23.177  0.00  0.00    +0.003 C 
ATOM      9  C   UNL     1      35.131 -16.634 -21.427  0.00  0.00    +0.139 C 
ATOM     10  C   UNL     1      35.273 -16.230 -22.751  0.00  0.00    +0.037 C 
ENDROOT
BRANCH   1  11
ATOM     11  S   UNL     1      32.032 -10.661 -22.328  0.00  0.00    +0.061 S 
ATOM     12  O   UNL     1      32.487 -10.409 -23.681  0.00  0.00    -0.153 OA
ATOM     13  O   UNL     1      30.613 -10.726 -22.035  0.00  0.00    -0.153 OA
BRANCH  11  14
ATOM     14  N   UNL     1      32.761  -9.548 -21.271  0.00  0.00    -0.170 NA
ATOM     15  H   UNL     1      33.699  -9.370 -21.629  0.00  0.00    +0.149 HD
BRANCH  14  16
ATOM     16  C   UNL     1      32.134  -8.227 -21.041  0.00  0.00    +0.174 C 
BRANCH  16  18
ATOM     17  O   UNL     1      32.505  -6.680 -19.201  0.00  0.00    -0.249 OA
ATOM     18  C   UNL     1      32.392  -7.830 -19.608  0.00  0.00    +0.330 C 
BRANCH  18  19
ATOM     19  O   UNL     1      32.468  -8.907 -18.783  0.00  0.00    -0.479 OA
ATOM     20  H   UNL     1      31.696  -9.234 -18.366  0.00  0.00    +0.295 HD
ENDBRANCH  18  19
ENDBRANCH  16  18
BRANCH  16  21
ATOM     21  C   UNL     1      32.624  -7.213 -22.082  0.00  0.00    +0.040 C 
BRANCH  21  22
ATOM     22  C   UNL     1      34.141  -7.065 -22.228  0.00  0.00    +0.111 C 
BRANCH  22  24
ATOM     23  O   UNL     1      34.767  -6.963 -24.559  0.00  0.00    -0.250 OA
ATOM     24  C   UNL     1      34.686  -7.612 -23.523  0.00  0.00    +0.314 C 
BRANCH  24  25
ATOM     25  O   UNL     1      35.063  -8.912 -23.429  0.00  0.00    -0.480 OA
ATOM     26  H   UNL     1      34.677  -9.465 -22.777  0.00  0.00    +0.295 HD
ENDBRANCH  24  25
ENDBRANCH  22  24
ENDBRANCH  21  22
ENDBRANCH  16  21
ENDBRANCH  14  16
ENDBRANCH  11  14
ENDBRANCH   1  11
BRANCH   9  27
ATOM     27  O   UNL     1      35.677 -17.810 -21.013  0.00  0.00    -0.471 OA
BRANCH  27  28
ATOM     28  C   UNL     1      35.244 -18.996 -21.676  0.00  0.00    +0.234 C 
BRANCH  28  30
ATOM     29  F   UNL     1      36.993 -20.498 -20.033  0.00  0.00    -0.204 F 
ATOM     30  C   UNL     1      34.760 -19.981 -20.652  0.00  0.00    +0.049 C 
ATOM     31  C   UNL     1      35.676 -20.690 -19.875  0.00  0.00    +0.140 C 
ATOM     32  C   UNL     1      33.391 -20.187 -20.479  0.00  0.00    +0.002 C 
ATOM     33  C   UNL     1      35.222 -21.606 -18.924  0.00  0.00    +0.040 C 
ATOM     34  C   UNL     1      32.938 -21.103 -19.529  0.00  0.00    +0.010 C 
ATOM     35  C   UNL     1      33.853 -21.812 -18.752  0.00  0.00    +0.071 C 
BRANCH  35  37
ATOM     36  N   UNL     1      33.011 -23.508 -16.986  0.00  0.00    -0.191 NA
ATOM     37  C   UNL     1      33.389 -22.748 -17.777  0.00  0.00    +0.100 C 
ENDBRANCH  35  37
ENDBRANCH  28  30
ENDBRANCH  27  28
ENDBRANCH   9  27
TORSDOF 13
ENDMDL
