MODEL 1
REMARK VINA RESULT:     -11.5      0.000      0.000
REMARK  Name = 9801640
REMARK  6 active torsions:
REMARK  status: ('A' for Active; 'I' for Inactive)
REMARK    1  A    between atoms: C_1  and  C_2
REMARK    2  A    between atoms: C_1  and  C_16
REMARK    3  A    between atoms: C_2  and  N_3
REMARK    4  A    between atoms: C_7  and  C_11
REMARK    5  A    between atoms: C_16  and  C_17
REMARK    6  A    between atoms: C_17  and  N_21
REMARK                            x       y       z     vdW  Elec       q    Type
REMARK                         _______ _______ _______ _____ _____    ______ ____
ROOT
ATOM      1  C   UNL     1      33.819 -15.195 -23.796  0.00  0.00    -0.021 C 
ENDROOT
BRANCH   1   2
ATOM      2  C   UNL     1      35.031 -16.000 -24.261  0.00  0.00    -0.077 C 
BRANCH   2   3
ATOM      3  N   UNL     1      35.312 -17.082 -23.321  0.00  0.00    +0.390 N 
ATOM      4  C   UNL     1      35.150 -16.635 -21.934  0.00  0.00    -0.072 C 
ATOM      5  C   UNL     1      34.455 -18.247 -23.595  0.00  0.00    -0.051 C 
ATOM      6  C   UNL     1      35.611 -17.740 -20.972  0.00  0.00    +0.005 C 
ATOM      7  C   UNL     1      35.040 -19.098 -21.314  0.00  0.00    -0.013 C 
ATOM      8  C   UNL     1      34.508 -19.311 -22.532  0.00  0.00    -0.052 C 
ATOM      9  H   UNL     1      36.284 -17.363 -23.447  0.00  0.00    -0.079 HD
BRANCH   7  11
ATOM     10  N   UNL     1      36.314 -20.436 -19.771  0.00  0.00    -0.244 NA
ATOM     11  C   UNL     1      35.092 -20.163 -20.284  0.00  0.00    +0.077 C 
ATOM     12  C   UNL     1      33.930 -20.816 -19.900  0.00  0.00    +0.019 C 
ATOM     13  C   UNL     1      34.029 -21.809 -18.931  0.00  0.00    +0.003 C 
ATOM     14  C   UNL     1      36.371 -21.407 -18.832  0.00  0.00    +0.099 C 
ATOM     15  C   UNL     1      35.269 -22.116 -18.382  0.00  0.00    +0.021 C 
ENDBRANCH   7  11
ENDBRANCH   2   3
ENDBRANCH   1   2
BRANCH   1  16
ATOM     16  C   UNL     1      34.211 -13.754 -23.453  0.00  0.00    +0.020 C 
BRANCH  16  17
ATOM     17  C   UNL     1      33.378 -12.723 -24.206  0.00  0.00    +0.099 C 
BRANCH  17  21
ATOM     18 CL   UNL     1      35.058 -10.399 -24.840  0.00  0.00    -0.062 Cl
ATOM     19  O   UNL     1      32.156  -8.777 -22.693  0.00  0.00    -0.448 OA
ATOM     20  O   UNL     1      31.570 -12.738 -22.113  0.00  0.00    -0.269 OA
ATOM     21  N   UNL     1      33.099 -11.528 -23.398  0.00  0.00    -0.244 N 
ATOM     22  C   UNL     1      32.233 -11.713 -22.297  0.00  0.00    +0.256 C 
ATOM     23  C   UNL     1      33.688 -10.321 -23.768  0.00  0.00    +0.151 C 
ATOM     24  C   UNL     1      32.154 -10.700 -21.218  0.00  0.00    +0.088 C 
ATOM     25  C   UNL     1      32.105  -9.328 -21.445  0.00  0.00    +0.150 C 
ATOM     26  C   UNL     1      33.260  -9.097 -23.432  0.00  0.00    +0.206 C 
ATOM     27  C   UNL     1      32.062 -11.172 -19.898  0.00  0.00    +0.008 C 
ATOM     28  C   UNL     1      31.942  -8.435 -20.379  0.00  0.00    +0.038 C 
ATOM     29  C   UNL     1      31.921 -10.281 -18.832  0.00  0.00    +0.000 C 
ATOM     30  C   UNL     1      31.857  -8.913 -19.073  0.00  0.00    +0.003 C 
ENDBRANCH  17  21
ENDBRANCH  16  17
ENDBRANCH   1  16
TORSDOF 6
ENDMDL
MODEL 2
REMARK VINA RESULT:     -10.9      4.158     10.434
REMARK  Name = 9801640
REMARK  6 active torsions:
REMARK  status: ('A' for Active; 'I' for Inactive)
REMARK    1  A    between atoms: C_1  and  C_2
REMARK    2  A    between atoms: C_1  and  C_16
REMARK    3  A    between atoms: C_2  and  N_3
REMARK    4  A    between atoms: C_7  and  C_11
REMARK    5  A    between atoms: C_16  and  C_17
REMARK    6  A    between atoms: C_17  and  N_21
REMARK                            x       y       z     vdW  Elec       q    Type
REMARK                         _______ _______ _______ _____ _____    ______ ____
ROOT
ATOM      1  C   UNL     1      36.264 -18.254 -21.923  0.00  0.00    -0.021 C 
ENDROOT
BRANCH   1   2
ATOM      2  C   UNL     1      35.306 -17.971 -23.080  0.00  0.00    -0.077 C 
BRANCH   2   3
ATOM      3  N   UNL     1      35.083 -16.533 -23.213  0.00  0.00    +0.390 N 
ATOM      4  C   UNL     1      33.978 -16.252 -24.134  0.00  0.00    -0.072 C 
ATOM      5  C   UNL     1      34.832 -15.921 -21.898  0.00  0.00    -0.051 C 
ATOM      6  C   UNL     1      33.877 -14.739 -24.382  0.00  0.00    +0.005 C 
ATOM      7  C   UNL     1      33.914 -13.929 -23.105  0.00  0.00    -0.013 C 
ATOM      8  C   UNL     1      34.357 -14.495 -21.967  0.00  0.00    -0.052 C 
ATOM      9  H   UNL     1      35.929 -16.119 -23.602  0.00  0.00    -0.079 HD
BRANCH   7  11
ATOM     10  N   UNL     1      32.566 -12.146 -22.210  0.00  0.00    -0.244 NA
ATOM     11  C   UNL     1      33.461 -12.518 -23.155  0.00  0.00    +0.077 C 
ATOM     12  C   UNL     1      33.953 -11.664 -24.131  0.00  0.00    +0.019 C 
ATOM     13  C   UNL     1      33.498 -10.349 -24.138  0.00  0.00    +0.003 C 
ATOM     14  C   UNL     1      32.146 -10.861 -22.250  0.00  0.00    +0.099 C 
ATOM     15  C   UNL     1      32.577  -9.933 -23.183  0.00  0.00    +0.021 C 
ENDBRANCH   7  11
ENDBRANCH   2   3
ENDBRANCH   1   2
BRANCH   1  16
ATOM     16  C   UNL     1      35.519 -18.842 -20.721  0.00  0.00    +0.020 C 
BRANCH  16  17
ATOM     17  C   UNL     1      35.062 -20.278 -20.958  0.00  0.00    +0.099 C 
BRANCH  17  21
ATOM     18 CL   UNL     1      32.321 -20.321 -19.903  0.00  0.00    -0.062 Cl
ATOM     19  O   UNL     1      34.065 -23.203 -17.827  0.00  0.00    -0.448 OA
ATOM     20  O   UNL     1      37.208 -21.370 -19.596  0.00  0.00    -0.269 OA
ATOM     21  N   UNL     1      34.900 -21.029 -19.704  0.00  0.00    -0.244 N 
ATOM     22  C   UNL     1      36.095 -21.435 -19.068  0.00  0.00    +0.256 C 
ATOM     23  C   UNL     1      33.611 -21.288 -19.244  0.00  0.00    +0.151 C 
ATOM     24  C   UNL     1      36.085 -21.874 -17.652  0.00  0.00    +0.088 C 
ATOM     25  C   UNL     1      35.121 -22.719 -17.109  0.00  0.00    +0.150 C 
ATOM     26  C   UNL     1      33.256 -22.258 -18.392  0.00  0.00    +0.206 C 
ATOM     27  C   UNL     1      37.152 -21.455 -16.841  0.00  0.00    +0.008 C 
ATOM     28  C   UNL     1      35.227 -23.161 -15.785  0.00  0.00    +0.038 C 
ATOM     29  C   UNL     1      37.248 -21.879 -15.514  0.00  0.00    +0.000 C 
ATOM     30  C   UNL     1      36.286 -22.736 -14.987  0.00  0.00    +0.003 C 
ENDBRANCH  17  21
ENDBRANCH  16  17
ENDBRANCH   1  16
TORSDOF 6
ENDMDL
MODEL 3
REMARK VINA RESULT:     -10.7      6.629     12.034
REMARK  Name = 9801640
REMARK  6 active torsions:
REMARK  status: ('A' for Active; 'I' for Inactive)
REMARK    1  A    between atoms: C_1  and  C_2
REMARK    2  A    between atoms: C_1  and  C_16
REMARK    3  A    between atoms: C_2  and  N_3
REMARK    4  A    between atoms: C_7  and  C_11
REMARK    5  A    between atoms: C_16  and  C_17
REMARK    6  A    between atoms: C_17  and  N_21
REMARK                            x       y       z     vdW  Elec       q    Type
REMARK                         _______ _______ _______ _____ _____    ______ ____
ROOT
ATOM      1  C   UNL     1      37.034 -21.492 -16.676  0.00  0.00    -0.021 C 
ENDROOT
BRANCH   1   2
ATOM      2  C   UNL     1      36.277 -21.994 -17.905  0.00  0.00    -0.077 C 
BRANCH   2   3
ATOM      3  N   UNL     1      35.956 -20.880 -18.793  0.00  0.00    +0.390 N 
ATOM      4  C   UNL     1      37.055 -20.610 -19.725  0.00  0.00    -0.072 C 
ATOM      5  C   UNL     1      34.706 -21.140 -19.525  0.00  0.00    -0.051 C 
ATOM      6  C   UNL     1      36.758 -19.335 -20.528  0.00  0.00    +0.005 C 
ATOM      7  C   UNL     1      35.361 -19.314 -21.108  0.00  0.00    -0.013 C 
ATOM      8  C   UNL     1      34.427 -20.158 -20.632  0.00  0.00    -0.052 C 
ATOM      9  H   UNL     1      35.823 -20.048 -18.217  0.00  0.00    -0.079 HD
BRANCH   7  11
ATOM     10  N   UNL     1      35.329 -17.048 -21.920  0.00  0.00    -0.244 NA
ATOM     11  C   UNL     1      35.064 -18.346 -22.191  0.00  0.00    +0.077 C 
ATOM     12  C   UNL     1      34.544 -18.793 -23.398  0.00  0.00    +0.019 C 
ATOM     13  C   UNL     1      34.281 -17.848 -24.384  0.00  0.00    +0.003 C 
ATOM     14  C   UNL     1      35.059 -16.159 -22.902  0.00  0.00    +0.099 C 
ATOM     15  C   UNL     1      34.540 -16.504 -24.139  0.00  0.00    +0.021 C 
ENDBRANCH   7  11
ENDBRANCH   2   3
ENDBRANCH   1   2
BRANCH   1  16
ATOM     16  C   UNL     1      36.606 -22.252 -15.417  0.00  0.00    +0.020 C 
BRANCH  16  17
ATOM     17  C   UNL     1      35.899 -23.565 -15.735  0.00  0.00    +0.099 C 
BRANCH  17  21
ATOM     18 CL   UNL     1      36.490 -25.229 -13.388  0.00  0.00    -0.062 Cl
ATOM     19  O   UNL     1      32.980 -23.663 -12.445  0.00  0.00    -0.448 OA
ATOM     20  O   UNL     1      33.344 -22.711 -16.360  0.00  0.00    -0.269 OA
ATOM     21  N   UNL     1      34.748 -23.810 -14.853  0.00  0.00    -0.244 N 
ATOM     22  C   UNL     1      33.489 -23.410 -15.354  0.00  0.00    +0.256 C 
ATOM     23  C   UNL     1      34.974 -24.401 -13.612  0.00  0.00    +0.151 C 
ATOM     24  C   UNL     1      32.238 -23.911 -14.738  0.00  0.00    +0.088 C 
ATOM     25  C   UNL     1      32.030 -24.002 -13.366  0.00  0.00    +0.150 C 
ATOM     26  C   UNL     1      34.165 -24.336 -12.548  0.00  0.00    +0.206 C 
ATOM     27  C   UNL     1      31.186 -24.252 -15.606  0.00  0.00    +0.008 C 
ATOM     28  C   UNL     1      30.789 -24.402 -12.858  0.00  0.00    +0.038 C 
ATOM     29  C   UNL     1      29.954 -24.673 -15.101  0.00  0.00    +0.000 C 
ATOM     30  C   UNL     1      29.755 -24.743 -13.726  0.00  0.00    +0.003 C 
ENDBRANCH  17  21
ENDBRANCH  16  17
ENDBRANCH   1  16
TORSDOF 6
ENDMDL
MODEL 4
REMARK VINA RESULT:     -10.4      6.627     12.326
REMARK  Name = 9801640
REMARK  6 active torsions:
REMARK  status: ('A' for Active; 'I' for Inactive)
REMARK    1  A    between atoms: C_1  and  C_2
REMARK    2  A    between atoms: C_1  and  C_16
REMARK    3  A    between atoms: C_2  and  N_3
REMARK    4  A    between atoms: C_7  and  C_11
REMARK    5  A    between atoms: C_16  and  C_17
REMARK    6  A    between atoms: C_17  and  N_21
REMARK                            x       y       z     vdW  Elec       q    Type
REMARK                         _______ _______ _______ _____ _____    ______ ____
ROOT
ATOM      1  C   UNL     1      35.051 -22.615 -18.279  0.00  0.00    -0.021 C 
ENDROOT
BRANCH   1   2
ATOM      2  C   UNL     1      36.241 -21.663 -18.395  0.00  0.00    -0.077 C 
BRANCH   2   3
ATOM      3  N   UNL     1      35.894 -20.517 -19.232  0.00  0.00    +0.390 N 
ATOM      4  C   UNL     1      37.016 -20.129 -20.092  0.00  0.00    -0.072 C 
ATOM      5  C   UNL     1      34.697 -20.804 -20.038  0.00  0.00    -0.051 C 
ATOM      6  C   UNL     1      36.681 -18.827 -20.833  0.00  0.00    +0.005 C 
ATOM      7  C   UNL     1      35.313 -18.851 -21.479  0.00  0.00    -0.013 C 
ATOM      8  C   UNL     1      34.411 -19.775 -21.099  0.00  0.00    -0.052 C 
ATOM      9  H   UNL     1      35.685 -19.731 -18.616  0.00  0.00    -0.079 HD
BRANCH   7  11
ATOM     10  N   UNL     1      35.230 -16.548 -22.176  0.00  0.00    -0.244 NA
ATOM     11  C   UNL     1      35.008 -17.838 -22.518  0.00  0.00    +0.077 C 
ATOM     12  C   UNL     1      34.524 -18.236 -23.756  0.00  0.00    +0.019 C 
ATOM     13  C   UNL     1      34.251 -17.251 -24.698  0.00  0.00    +0.003 C 
ATOM     14  C   UNL     1      34.953 -15.618 -23.118  0.00  0.00    +0.099 C 
ATOM     15  C   UNL     1      34.467 -15.914 -24.381  0.00  0.00    +0.021 C 
ENDBRANCH   7  11
ENDBRANCH   2   3
ENDBRANCH   1   2
BRANCH   1  16
ATOM     16  C   UNL     1      34.313 -22.414 -16.952  0.00  0.00    +0.020 C 
BRANCH  16  17
ATOM     17  C   UNL     1      33.753 -23.716 -16.389  0.00  0.00    +0.099 C 
BRANCH  17  21
ATOM     18 CL   UNL     1      31.555 -22.786 -14.677  0.00  0.00    -0.062 Cl
ATOM     19  O   UNL     1      33.759 -24.884 -12.147  0.00  0.00    -0.448 OA
ATOM     20  O   UNL     1      36.178 -24.578 -15.375  0.00  0.00    -0.269 OA
ATOM     21  N   UNL     1      34.000 -23.855 -14.946  0.00  0.00    -0.244 N 
ATOM     22  C   UNL     1      35.318 -24.203 -14.574  0.00  0.00    +0.256 C 
ATOM     23  C   UNL     1      32.940 -23.646 -14.066  0.00  0.00    +0.151 C 
ATOM     24  C   UNL     1      35.779 -24.029 -13.176  0.00  0.00    +0.088 C 
ATOM     25  C   UNL     1      35.023 -24.374 -12.061  0.00  0.00    +0.150 C 
ATOM     26  C   UNL     1      32.855 -24.103 -12.810  0.00  0.00    +0.206 C 
ATOM     27  C   UNL     1      37.084 -23.543 -12.986  0.00  0.00    +0.008 C 
ATOM     28  C   UNL     1      35.561 -24.263 -10.773  0.00  0.00    +0.038 C 
ATOM     29  C   UNL     1      37.614 -23.411 -11.701  0.00  0.00    +0.000 C 
ATOM     30  C   UNL     1      36.853 -23.775 -10.594  0.00  0.00    +0.003 C 
ENDBRANCH  17  21
ENDBRANCH  16  17
ENDBRANCH   1  16
TORSDOF 6
ENDMDL
MODEL 5
REMARK VINA RESULT:     -10.3      8.332     11.980
REMARK  Name = 9801640
REMARK  6 active torsions:
REMARK  status: ('A' for Active; 'I' for Inactive)
REMARK    1  A    between atoms: C_1  and  C_2
REMARK    2  A    between atoms: C_1  and  C_16
REMARK    3  A    between atoms: C_2  and  N_3
REMARK    4  A    between atoms: C_7  and  C_11
REMARK    5  A    between atoms: C_16  and  C_17
REMARK    6  A    between atoms: C_17  and  N_21
REMARK                            x       y       z     vdW  Elec       q    Type
REMARK                         _______ _______ _______ _____ _____    ______ ____
ROOT
ATOM      1  C   UNL     1      34.012 -24.181 -13.164  0.00  0.00    -0.021 C 
ENDROOT
BRANCH   1   2
ATOM      2  C   UNL     1      32.749 -25.041 -13.132  0.00  0.00    -0.077 C 
BRANCH   2   3
ATOM      3  N   UNL     1      31.718 -24.459 -13.989  0.00  0.00    +0.390 N 
ATOM      4  C   UNL     1      30.603 -25.391 -14.183  0.00  0.00    -0.072 C 
ATOM      5  C   UNL     1      31.239 -23.183 -13.435  0.00  0.00    -0.051 C 
ATOM      6  C   UNL     1      29.620 -24.821 -15.216  0.00  0.00    +0.005 C 
ATOM      7  C   UNL     1      29.255 -23.378 -14.949  0.00  0.00    -0.013 C 
ATOM      8  C   UNL     1      30.015 -22.638 -14.121  0.00  0.00    -0.052 C 
ATOM      9  H   UNL     1      32.136 -24.276 -14.901  0.00  0.00    -0.079 HD
BRANCH   7  11
ATOM     10  N   UNL     1      28.087 -22.814 -16.977  0.00  0.00    -0.244 NA
ATOM     11  C   UNL     1      28.059 -22.819 -15.625  0.00  0.00    +0.077 C 
ATOM     12  C   UNL     1      26.997 -22.339 -14.872  0.00  0.00    +0.019 C 
ATOM     13  C   UNL     1      25.897 -21.823 -15.550  0.00  0.00    +0.003 C 
ATOM     14  C   UNL     1      27.000 -22.304 -17.601  0.00  0.00    +0.099 C 
ATOM     15  C   UNL     1      25.891 -21.802 -16.940  0.00  0.00    +0.021 C 
ENDBRANCH   7  11
ENDBRANCH   2   3
ENDBRANCH   1   2
BRANCH   1  16
ATOM     16  C   UNL     1      34.071 -23.335 -14.439  0.00  0.00    +0.020 C 
BRANCH  16  17
ATOM     17  C   UNL     1      34.965 -23.951 -15.511  0.00  0.00    +0.099 C 
BRANCH  17  21
ATOM     18 CL   UNL     1      37.079 -21.984 -14.972  0.00  0.00    -0.062 Cl
ATOM     19  O   UNL     1      36.667 -21.719 -18.899  0.00  0.00    -0.448 OA
ATOM     20  O   UNL     1      33.450 -23.923 -17.824  0.00  0.00    -0.269 OA
ATOM     21  N   UNL     1      35.234 -23.022 -16.618  0.00  0.00    -0.244 N 
ATOM     22  C   UNL     1      34.313 -23.052 -17.689  0.00  0.00    +0.256 C 
ATOM     23  C   UNL     1      36.357 -22.201 -16.541  0.00  0.00    +0.151 C 
ATOM     24  C   UNL     1      34.265 -21.947 -18.675  0.00  0.00    +0.088 C 
ATOM     25  C   UNL     1      35.394 -21.356 -19.233  0.00  0.00    +0.150 C 
ATOM     26  C   UNL     1      36.979 -21.614 -17.572  0.00  0.00    +0.206 C 
ATOM     27  C   UNL     1      32.996 -21.527 -19.109  0.00  0.00    +0.008 C 
ATOM     28  C   UNL     1      35.268 -20.376 -20.226  0.00  0.00    +0.038 C 
ATOM     29  C   UNL     1      32.869 -20.535 -20.084  0.00  0.00    +0.000 C 
ATOM     30  C   UNL     1      34.006 -19.963 -20.645  0.00  0.00    +0.003 C 
ENDBRANCH  17  21
ENDBRANCH  16  17
ENDBRANCH   1  16
TORSDOF 6
ENDMDL
MODEL 6
REMARK VINA RESULT:     -10.2      3.326      5.596
REMARK  Name = 9801640
REMARK  6 active torsions:
REMARK  status: ('A' for Active; 'I' for Inactive)
REMARK    1  A    between atoms: C_1  and  C_2
REMARK    2  A    between atoms: C_1  and  C_16
REMARK    3  A    between atoms: C_2  and  N_3
REMARK    4  A    between atoms: C_7  and  C_11
REMARK    5  A    between atoms: C_16  and  C_17
REMARK    6  A    between atoms: C_17  and  N_21
REMARK                            x       y       z     vdW  Elec       q    Type
REMARK                         _______ _______ _______ _____ _____    ______ ____
ROOT
ATOM      1  C   UNL     1      34.442 -10.329 -24.836  0.00  0.00    -0.021 C 
ENDROOT
BRANCH   1   2
ATOM      2  C   UNL     1      33.579 -11.172 -23.898  0.00  0.00    -0.077 C 
BRANCH   2   3
ATOM      3  N   UNL     1      34.071 -12.547 -23.855  0.00  0.00    +0.390 N 
ATOM      4  C   UNL     1      33.860 -13.144 -22.533  0.00  0.00    -0.072 C 
ATOM      5  C   UNL     1      33.432 -13.362 -24.901  0.00  0.00    -0.051 C 
ATOM      6  C   UNL     1      34.534 -14.523 -22.469  0.00  0.00    +0.005 C 
ATOM      7  C   UNL     1      34.209 -15.394 -23.662  0.00  0.00    -0.013 C 
ATOM      8  C   UNL     1      33.698 -14.838 -24.776  0.00  0.00    -0.052 C 
ATOM      9  H   UNL     1      35.075 -12.527 -24.033  0.00  0.00    -0.079 HD
BRANCH   7  11
ATOM     10  N   UNL     1      33.888 -17.627 -24.501  0.00  0.00    -0.244 NA
ATOM     11  C   UNL     1      34.475 -16.850 -23.563  0.00  0.00    +0.077 C 
ATOM     12  C   UNL     1      35.285 -17.341 -22.549  0.00  0.00    +0.019 C 
ATOM     13  C   UNL     1      35.505 -18.713 -22.496  0.00  0.00    +0.003 C 
ATOM     14  C   UNL     1      34.124 -18.957 -24.417  0.00  0.00    +0.099 C 
ATOM     15  C   UNL     1      34.917 -19.543 -23.444  0.00  0.00    +0.021 C 
ENDBRANCH   7  11
ENDBRANCH   2   3
ENDBRANCH   1   2
BRANCH   1  16
ATOM     16  C   UNL     1      34.915  -9.046 -24.147  0.00  0.00    +0.020 C 
BRANCH  16  17
ATOM     17  C   UNL     1      34.101  -8.715 -22.900  0.00  0.00    +0.099 C 
BRANCH  17  21
ATOM     18 CL   UNL     1      31.200  -9.073 -22.611  0.00  0.00    -0.062 Cl
ATOM     19  O   UNL     1      31.593  -5.145 -22.329  0.00  0.00    -0.448 OA
ATOM     20  O   UNL     1      35.247  -6.304 -23.624  0.00  0.00    -0.269 OA
ATOM     21  N   UNL     1      33.314  -7.483 -23.055  0.00  0.00    -0.244 N 
ATOM     22  C   UNL     1      34.018  -6.354 -23.531  0.00  0.00    +0.256 C 
ATOM     23  C   UNL     1      31.961  -7.511 -22.722  0.00  0.00    +0.151 C 
ATOM     24  C   UNL     1      33.289  -5.177 -24.060  0.00  0.00    +0.088 C 
ATOM     25  C   UNL     1      32.161  -4.628 -23.459  0.00  0.00    +0.150 C 
ATOM     26  C   UNL     1      31.202  -6.452 -22.413  0.00  0.00    +0.206 C 
ATOM     27  C   UNL     1      33.818  -4.553 -25.203  0.00  0.00    +0.008 C 
ATOM     28  C   UNL     1      31.578  -3.462 -23.967  0.00  0.00    +0.038 C 
ATOM     29  C   UNL     1      33.225  -3.402 -25.724  0.00  0.00    +0.000 C 
ATOM     30  C   UNL     1      32.106  -2.854 -25.103  0.00  0.00    +0.003 C 
ENDBRANCH  17  21
ENDBRANCH  16  17
ENDBRANCH   1  16
TORSDOF 6
ENDMDL
MODEL 7
REMARK VINA RESULT:     -10.1      7.343     13.185
REMARK  Name = 9801640
REMARK  6 active torsions:
REMARK  status: ('A' for Active; 'I' for Inactive)
REMARK    1  A    between atoms: C_1  and  C_2
REMARK    2  A    between atoms: C_1  and  C_16
REMARK    3  A    between atoms: C_2  and  N_3
REMARK    4  A    between atoms: C_7  and  C_11
REMARK    5  A    between atoms: C_16  and  C_17
REMARK    6  A    between atoms: C_17  and  N_21
REMARK                            x       y       z     vdW  Elec       q    Type
REMARK                         _______ _______ _______ _____ _____    ______ ____
ROOT
ATOM      1  C   UNL     1      32.976 -22.888 -16.265  0.00  0.00    -0.021 C 
ENDROOT
BRANCH   1   2
ATOM      2  C   UNL     1      33.456 -23.677 -17.484  0.00  0.00    -0.077 C 
BRANCH   2   3
ATOM      3  N   UNL     1      33.725 -22.772 -18.599  0.00  0.00    +0.390 N 
ATOM      4  C   UNL     1      32.797 -21.637 -18.597  0.00  0.00    -0.072 C 
ATOM      5  C   UNL     1      35.120 -22.303 -18.565  0.00  0.00    -0.051 C 
ATOM      6  C   UNL     1      32.995 -20.798 -19.868  0.00  0.00    +0.005 C 
ATOM      7  C   UNL     1      34.448 -20.481 -20.145  0.00  0.00    -0.013 C 
ATOM      8  C   UNL     1      35.415 -21.187 -19.531  0.00  0.00    -0.052 C 
ATOM      9  H   UNL     1      33.583 -23.291 -19.465  0.00  0.00    -0.079 HD
BRANCH   7  11
ATOM     10  N   UNL     1      35.396 -18.314 -20.591  0.00  0.00    -0.244 NA
ATOM     11  C   UNL     1      34.760 -19.393 -21.103  0.00  0.00    +0.077 C 
ATOM     12  C   UNL     1      34.400 -19.517 -22.437  0.00  0.00    +0.019 C 
ATOM     13  C   UNL     1      34.713 -18.470 -23.298  0.00  0.00    +0.003 C 
ATOM     14  C   UNL     1      35.683 -17.316 -21.458  0.00  0.00    +0.099 C 
ATOM     15  C   UNL     1      35.367 -17.345 -22.806  0.00  0.00    +0.021 C 
ENDBRANCH   7  11
ENDBRANCH   2   3
ENDBRANCH   1   2
BRANCH   1  16
ATOM     16  C   UNL     1      33.432 -23.554 -14.963  0.00  0.00    +0.020 C 
BRANCH  16  17
ATOM     17  C   UNL     1      34.653 -22.874 -14.353  0.00  0.00    +0.099 C 
BRANCH  17  21
ATOM     18 CL   UNL     1      34.556 -23.756 -11.553  0.00  0.00    -0.062 Cl
ATOM     19  O   UNL     1      36.981 -26.421 -13.189  0.00  0.00    -0.448 OA
ATOM     20  O   UNL     1      36.678 -23.614 -16.086  0.00  0.00    -0.269 OA
ATOM     21  N   UNL     1      35.701 -23.834 -13.977  0.00  0.00    -0.244 N 
ATOM     22  C   UNL     1      36.727 -24.034 -14.927  0.00  0.00    +0.256 C 
ATOM     23  C   UNL     1      35.608 -24.472 -12.741  0.00  0.00    +0.151 C 
ATOM     24  C   UNL     1      38.001 -24.685 -14.538  0.00  0.00    +0.088 C 
ATOM     25  C   UNL     1      38.079 -25.816 -13.731  0.00  0.00    +0.150 C 
ATOM     26  C   UNL     1      36.199 -25.624 -12.401  0.00  0.00    +0.206 C 
ATOM     27  C   UNL     1      39.185 -24.154 -15.076  0.00  0.00    +0.008 C 
ATOM     28  C   UNL     1      39.313 -26.427 -13.478  0.00  0.00    +0.038 C 
ATOM     29  C   UNL     1      40.419 -24.750 -14.807  0.00  0.00    +0.000 C 
ATOM     30  C   UNL     1      40.482 -25.890 -14.011  0.00  0.00    +0.003 C 
ENDBRANCH  17  21
ENDBRANCH  16  17
ENDBRANCH   1  16
TORSDOF 6
ENDMDL
MODEL 8
REMARK VINA RESULT:     -10.1      3.387      5.591
REMARK  Name = 9801640
REMARK  6 active torsions:
REMARK  status: ('A' for Active; 'I' for Inactive)
REMARK    1  A    between atoms: C_1  and  C_2
REMARK    2  A    between atoms: C_1  and  C_16
REMARK    3  A    between atoms: C_2  and  N_3
REMARK    4  A    between atoms: C_7  and  C_11
REMARK    5  A    between atoms: C_16  and  C_17
REMARK    6  A    between atoms: C_17  and  N_21
REMARK                            x       y       z     vdW  Elec       q    Type
REMARK                         _______ _______ _______ _____ _____    ______ ____
ROOT
ATOM      1  C   UNL     1      32.908 -10.505 -22.761  0.00  0.00    -0.021 C 
ENDROOT
BRANCH   1   2
ATOM      2  C   UNL     1      33.413 -10.997 -24.117  0.00  0.00    -0.077 C 
BRANCH   2   3
ATOM      3  N   UNL     1      33.941 -12.354 -23.998  0.00  0.00    +0.390 N 
ATOM      4  C   UNL     1      33.691 -12.905 -22.663  0.00  0.00    -0.072 C 
ATOM      5  C   UNL     1      33.370 -13.228 -25.036  0.00  0.00    -0.051 C 
ATOM      6  C   UNL     1      34.400 -14.260 -22.516  0.00  0.00    +0.005 C 
ATOM      7  C   UNL     1      34.152 -15.186 -23.685  0.00  0.00    -0.013 C 
ATOM      8  C   UNL     1      33.673 -14.690 -24.841  0.00  0.00    -0.052 C 
ATOM      9  H   UNL     1      34.951 -12.311 -24.136  0.00  0.00    -0.079 HD
BRANCH   7  11
ATOM     10  N   UNL     1      35.265 -16.950 -22.482  0.00  0.00    -0.244 NA
ATOM     11  C   UNL     1      34.454 -16.628 -23.517  0.00  0.00    +0.077 C 
ATOM     12  C   UNL     1      33.915 -17.558 -24.394  0.00  0.00    +0.019 C 
ATOM     13  C   UNL     1      34.227 -18.899 -24.196  0.00  0.00    +0.003 C 
ATOM     14  C   UNL     1      35.547 -18.263 -22.323  0.00  0.00    +0.099 C 
ATOM     15  C   UNL     1      35.058 -19.266 -23.144  0.00  0.00    +0.021 C 
ENDBRANCH   7  11
ENDBRANCH   2   3
ENDBRANCH   1   2
BRANCH   1  16
ATOM     16  C   UNL     1      32.040  -9.252 -22.918  0.00  0.00    +0.020 C 
BRANCH  16  17
ATOM     17  C   UNL     1      32.509  -8.099 -22.036  0.00  0.00    +0.099 C 
BRANCH  17  21
ATOM     18 CL   UNL     1      35.181  -7.708 -23.192  0.00  0.00    -0.062 Cl
ATOM     19  O   UNL     1      33.030  -5.001 -25.117  0.00  0.00    -0.448 OA
ATOM     20  O   UNL     1      30.527  -6.174 -22.162  0.00  0.00    -0.269 OA
ATOM     21  N   UNL     1      32.673  -6.847 -22.789  0.00  0.00    -0.244 N 
ATOM     22  C   UNL     1      31.619  -5.914 -22.675  0.00  0.00    +0.256 C 
ATOM     23  C   UNL     1      33.827  -6.674 -23.551  0.00  0.00    +0.151 C 
ATOM     24  C   UNL     1      31.813  -4.502 -23.081  0.00  0.00    +0.088 C 
ATOM     25  C   UNL     1      32.469  -4.112 -24.245  0.00  0.00    +0.150 C 
ATOM     26  C   UNL     1      33.973  -5.832 -24.582  0.00  0.00    +0.206 C 
ATOM     27  C   UNL     1      31.239  -3.513 -22.264  0.00  0.00    +0.008 C 
ATOM     28  C   UNL     1      32.536  -2.762 -24.607  0.00  0.00    +0.038 C 
ATOM     29  C   UNL     1      31.324  -2.163 -22.613  0.00  0.00    +0.000 C 
ATOM     30  C   UNL     1      31.969  -1.788 -23.788  0.00  0.00    +0.003 C 
ENDBRANCH  17  21
ENDBRANCH  16  17
ENDBRANCH   1  16
TORSDOF 6
ENDMDL
MODEL 9
REMARK VINA RESULT:      -9.9      7.974     13.271
REMARK  Name = 9801640
REMARK  6 active torsions:
REMARK  status: ('A' for Active; 'I' for Inactive)
REMARK    1  A    between atoms: C_1  and  C_2
REMARK    2  A    between atoms: C_1  and  C_16
REMARK    3  A    between atoms: C_2  and  N_3
REMARK    4  A    between atoms: C_7  and  C_11
REMARK    5  A    between atoms: C_16  and  C_17
REMARK    6  A    between atoms: C_17  and  N_21
REMARK                            x       y       z     vdW  Elec       q    Type
REMARK                         _______ _______ _______ _____ _____    ______ ____
ROOT
ATOM      1  C   UNL     1      32.588 -23.071 -15.382  0.00  0.00    -0.021 C 
ENDROOT
BRANCH   1   2
ATOM      2  C   UNL     1      32.700 -23.474 -16.852  0.00  0.00    -0.077 C 
BRANCH   2   3
ATOM      3  N   UNL     1      33.369 -22.424 -17.616  0.00  0.00    +0.390 N 
ATOM      4  C   UNL     1      34.489 -22.965 -18.391  0.00  0.00    -0.072 C 
ATOM      5  C   UNL     1      32.414 -21.732 -18.497  0.00  0.00    -0.051 C 
ATOM      6  C   UNL     1      35.271 -21.819 -19.049  0.00  0.00    +0.005 C 
ATOM      7  C   UNL     1      34.378 -20.826 -19.758  0.00  0.00    -0.013 C 
ATOM      8  C   UNL     1      33.059 -20.803 -19.490  0.00  0.00    -0.052 C 
ATOM      9  H   UNL     1      33.745 -21.745 -16.955  0.00  0.00    -0.079 HD
BRANCH   7  11
ATOM     10  N   UNL     1      36.162 -19.322 -20.352  0.00  0.00    -0.244 NA
ATOM     11  C   UNL     1      34.996 -19.894 -20.732  0.00  0.00    +0.077 C 
ATOM     12  C   UNL     1      34.378 -19.653 -21.951  0.00  0.00    +0.019 C 
ATOM     13  C   UNL     1      34.995 -18.772 -22.833  0.00  0.00    +0.003 C 
ATOM     14  C   UNL     1      36.731 -18.470 -21.235  0.00  0.00    +0.099 C 
ATOM     15  C   UNL     1      36.194 -18.165 -22.475  0.00  0.00    +0.021 C 
ENDBRANCH   7  11
ENDBRANCH   2   3
ENDBRANCH   1   2
BRANCH   1  16
ATOM     16  C   UNL     1      33.692 -23.726 -14.545  0.00  0.00    +0.020 C 
BRANCH  16  17
ATOM     17  C   UNL     1      34.628 -24.591 -15.382  0.00  0.00    +0.099 C 
BRANCH  17  21
ATOM     18 CL   UNL     1      35.940 -21.968 -15.211  0.00  0.00    -0.062 Cl
ATOM     19  O   UNL     1      38.267 -24.221 -12.938  0.00  0.00    -0.448 OA
ATOM     20  O   UNL     1      35.929 -26.957 -14.786  0.00  0.00    -0.269 OA
ATOM     21  N   UNL     1      35.995 -24.624 -14.842  0.00  0.00    -0.244 N 
ATOM     22  C   UNL     1      36.567 -25.906 -14.686  0.00  0.00    +0.256 C 
ATOM     23  C   UNL     1      36.614 -23.418 -14.521  0.00  0.00    +0.151 C 
ATOM     24  C   UNL     1      38.029 -26.063 -14.495  0.00  0.00    +0.088 C 
ATOM     25  C   UNL     1      38.792 -25.260 -13.653  0.00  0.00    +0.150 C 
ATOM     26  C   UNL     1      37.640 -23.257 -13.676  0.00  0.00    +0.206 C 
ATOM     27  C   UNL     1      38.654 -27.129 -15.164  0.00  0.00    +0.008 C 
ATOM     28  C   UNL     1      40.152 -25.525 -13.456  0.00  0.00    +0.038 C 
ATOM     29  C   UNL     1      40.016 -27.381 -14.985  0.00  0.00    +0.000 C 
ATOM     30  C   UNL     1      40.764 -26.580 -14.128  0.00  0.00    +0.003 C 
ENDBRANCH  17  21
ENDBRANCH  16  17
ENDBRANCH   1  16
TORSDOF 6
ENDMDL
