MODEL 1
REMARK VINA RESULT:     -11.6      0.000      0.000
REMARK  Name = 6420159
REMARK  9 active torsions:
REMARK  status: ('A' for Active; 'I' for Inactive)
REMARK    1  A    between atoms: C_1  and  N_3
REMARK    2  A    between atoms: C_1  and  C_15
REMARK    3  A    between atoms: C_1  and  C_29
REMARK    4  A    between atoms: N_14  and  C_17
REMARK    5  A    between atoms: C_17  and  C_18
REMARK    6  A    between atoms: C_18  and  N_19
REMARK    7  A    between atoms: N_19  and  C_21
REMARK    8  A    between atoms: C_26  and  O_27
REMARK    9  A    between atoms: C_29  and  C_30
REMARK                            x       y       z     vdW  Elec       q    Type
REMARK                         _______ _______ _______ _____ _____    ______ ____
ROOT
ATOM      1  C   UNL     1      33.230 -23.414 -16.849  0.00  0.00    +0.151 C 
ENDROOT
BRANCH   1   3
ATOM      2  O   UNL     1      35.765 -23.086 -14.221  0.00  0.00    -0.414 OA
ATOM      3  N   UNL     1      34.108 -22.933 -15.803  0.00  0.00    -0.271 N 
ATOM      4  N   UNL     1      35.298 -24.980 -15.377  0.00  0.00    -0.356 NA
ATOM      5  C   UNL     1      35.046 -23.726 -15.167  0.00  0.00    +0.345 C 
ATOM      6  C   UNL     1      36.592 -24.072 -13.764  0.00  0.00    +0.175 C 
ATOM      7  C   UNL     1      36.304 -25.229 -14.474  0.00  0.00    +0.152 C 
ATOM      8  C   UNL     1      37.559 -23.974 -12.772  0.00  0.00    +0.040 C 
ATOM      9  C   UNL     1      37.025 -26.397 -14.189  0.00  0.00    +0.088 C 
ATOM     10  C   UNL     1      38.270 -25.147 -12.499  0.00  0.00    -0.001 C 
ATOM     11  C   UNL     1      38.010 -26.336 -13.192  0.00  0.00    -0.018 C 
ATOM     12  H   UNL     1      34.033 -21.990 -15.531  0.00  0.00    +0.153 HD
ENDBRANCH   1   3
BRANCH   1  15
ATOM     13  O   UNL     1      33.817 -23.980 -19.129  0.00  0.00    -0.273 OA
ATOM     14  N   UNL     1      34.630 -22.005 -18.228  0.00  0.00    -0.301 N 
ATOM     15  C   UNL     1      33.906 -23.188 -18.194  0.00  0.00    +0.240 C 
ATOM     16  H   UNL     1      34.643 -21.431 -17.428  0.00  0.00    +0.150 HD
BRANCH  14  17
ATOM     17  C   UNL     1      35.364 -21.589 -19.398  0.00  0.00    +0.111 C 
BRANCH  17  18
ATOM     18  C   UNL     1      34.633 -20.512 -20.184  0.00  0.00    +0.109 C 
BRANCH  18  19
ATOM     19  N   UNL     1      35.570 -19.708 -20.931  0.00  0.00    -0.331 N 
ATOM     20  H   UNL     1      36.524 -19.762 -20.690  0.00  0.00    +0.147 HD
BRANCH  19  21
ATOM     21  C   UNL     1      35.205 -18.864 -21.968  0.00  0.00    +0.045 C 
ATOM     22  C   UNL     1      34.519 -19.357 -23.093  0.00  0.00    +0.017 C 
ATOM     23  C   UNL     1      35.512 -17.491 -21.923  0.00  0.00    +0.017 C 
ATOM     24  C   UNL     1      34.153 -18.507 -24.137  0.00  0.00    +0.038 C 
ATOM     25  C   UNL     1      35.146 -16.642 -22.967  0.00  0.00    +0.038 C 
ATOM     26  C   UNL     1      34.467 -17.149 -24.074  0.00  0.00    +0.139 C 
BRANCH  26  27
ATOM     27  O   UNL     1      34.109 -16.319 -25.091  0.00  0.00    -0.471 OA
ATOM     28  C   UNL     1      33.695 -15.000 -24.740  0.00  0.00    +0.252 C 
ENDBRANCH  26  27
ENDBRANCH  19  21
ENDBRANCH  18  19
ENDBRANCH  17  18
ENDBRANCH  14  17
ENDBRANCH   1  15
BRANCH   1  29
ATOM     29  C   UNL     1      31.891 -22.675 -16.803  0.00  0.00    +0.029 C 
BRANCH  29  30
ATOM     30  C   UNL     1      30.996 -23.156 -15.663  0.00  0.00    +0.002 C 
ATOM     31  C   UNL     1      31.372 -24.584 -15.244  0.00  0.00    +0.000 C 
ATOM     32  C   UNL     1      29.517 -23.077 -16.063  0.00  0.00    +0.000 C 
ATOM     33  C   UNL     1      30.456 -25.108 -14.140  0.00  0.00    +0.000 C 
ATOM     34  C   UNL     1      28.604 -23.603 -14.959  0.00  0.00    +0.000 C 
ATOM     35  C   UNL     1      28.987 -25.019 -14.540  0.00  0.00    +0.000 C 
ENDBRANCH  29  30
ENDBRANCH   1  29
TORSDOF 9
ENDMDL
MODEL 2
REMARK VINA RESULT:     -10.8      1.439      4.922
REMARK  Name = 6420159
REMARK  9 active torsions:
REMARK  status: ('A' for Active; 'I' for Inactive)
REMARK    1  A    between atoms: C_1  and  N_3
REMARK    2  A    between atoms: C_1  and  C_15
REMARK    3  A    between atoms: C_1  and  C_29
REMARK    4  A    between atoms: N_14  and  C_17
REMARK    5  A    between atoms: C_17  and  C_18
REMARK    6  A    between atoms: C_18  and  N_19
REMARK    7  A    between atoms: N_19  and  C_21
REMARK    8  A    between atoms: C_26  and  O_27
REMARK    9  A    between atoms: C_29  and  C_30
REMARK                            x       y       z     vdW  Elec       q    Type
REMARK                         _______ _______ _______ _____ _____    ______ ____
ROOT
ATOM      1  C   UNL     1      35.702 -22.785 -15.602  0.00  0.00    +0.151 C 
ENDROOT
BRANCH   1   3
ATOM      2  O   UNL     1      32.164 -23.584 -16.136  0.00  0.00    -0.414 OA
ATOM      3  N   UNL     1      34.374 -22.962 -16.152  0.00  0.00    -0.271 N 
ATOM      4  N   UNL     1      33.323 -23.935 -14.219  0.00  0.00    -0.356 NA
ATOM      5  C   UNL     1      33.319 -23.506 -15.442  0.00  0.00    +0.345 C 
ATOM      6  C   UNL     1      31.312 -24.142 -15.225  0.00  0.00    +0.175 C 
ATOM      7  C   UNL     1      32.025 -24.355 -14.054  0.00  0.00    +0.152 C 
ATOM      8  C   UNL     1      29.970 -24.454 -15.402  0.00  0.00    +0.040 C 
ATOM      9  C   UNL     1      31.367 -24.925 -12.955  0.00  0.00    +0.088 C 
ATOM     10  C   UNL     1      29.328 -25.022 -14.297  0.00  0.00    -0.001 C 
ATOM     11  C   UNL     1      30.011 -25.253 -13.096  0.00  0.00    -0.018 C 
ATOM     12  H   UNL     1      34.214 -22.680 -17.081  0.00  0.00    +0.153 HD
ENDBRANCH   1   3
BRANCH   1  15
ATOM     13  O   UNL     1      37.586 -21.430 -16.296  0.00  0.00    -0.273 OA
ATOM     14  N   UNL     1      35.986 -22.003 -17.872  0.00  0.00    -0.301 N 
ATOM     15  C   UNL     1      36.542 -22.002 -16.602  0.00  0.00    +0.240 C 
ATOM     16  H   UNL     1      35.144 -22.490 -18.025  0.00  0.00    +0.150 HD
BRANCH  14  17
ATOM     17  C   UNL     1      36.603 -21.314 -18.980  0.00  0.00    +0.111 C 
BRANCH  17  18
ATOM     18  C   UNL     1      35.578 -20.746 -19.948  0.00  0.00    +0.109 C 
BRANCH  18  19
ATOM     19  N   UNL     1      35.907 -19.382 -20.289  0.00  0.00    -0.331 N 
ATOM     20  H   UNL     1      36.476 -18.872 -19.667  0.00  0.00    +0.147 HD
BRANCH  19  21
ATOM     21  C   UNL     1      35.469 -18.750 -21.441  0.00  0.00    +0.045 C 
ATOM     22  C   UNL     1      34.815 -19.472 -22.457  0.00  0.00    +0.017 C 
ATOM     23  C   UNL     1      35.667 -17.369 -21.627  0.00  0.00    +0.017 C 
ATOM     24  C   UNL     1      34.375 -18.835 -23.618  0.00  0.00    +0.038 C 
ATOM     25  C   UNL     1      35.226 -16.733 -22.788  0.00  0.00    +0.038 C 
ATOM     26  C   UNL     1      34.581 -17.465 -23.783  0.00  0.00    +0.139 C 
BRANCH  26  27
ATOM     27  O   UNL     1      34.150 -16.843 -24.915  0.00  0.00    -0.471 OA
ATOM     28  C   UNL     1      33.776 -15.472 -24.800  0.00  0.00    +0.252 C 
ENDBRANCH  26  27
ENDBRANCH  19  21
ENDBRANCH  18  19
ENDBRANCH  17  18
ENDBRANCH  14  17
ENDBRANCH   1  15
BRANCH   1  29
ATOM     29  C   UNL     1      36.348 -24.143 -15.323  0.00  0.00    +0.029 C 
BRANCH  29  30
ATOM     30  C   UNL     1      37.168 -24.147 -14.034  0.00  0.00    +0.002 C 
ATOM     31  C   UNL     1      37.200 -25.551 -13.417  0.00  0.00    +0.000 C 
ATOM     32  C   UNL     1      36.612 -23.124 -13.034  0.00  0.00    +0.000 C 
ATOM     33  C   UNL     1      37.970 -25.570 -12.098  0.00  0.00    +0.000 C 
ATOM     34  C   UNL     1      37.382 -23.147 -11.717  0.00  0.00    +0.000 C 
ATOM     35  C   UNL     1      37.420 -24.546 -11.111  0.00  0.00    +0.000 C 
ENDBRANCH  29  30
ENDBRANCH   1  29
TORSDOF 9
ENDMDL
MODEL 3
REMARK VINA RESULT:     -10.5      2.231      5.086
REMARK  Name = 6420159
REMARK  9 active torsions:
REMARK  status: ('A' for Active; 'I' for Inactive)
REMARK    1  A    between atoms: C_1  and  N_3
REMARK    2  A    between atoms: C_1  and  C_15
REMARK    3  A    between atoms: C_1  and  C_29
REMARK    4  A    between atoms: N_14  and  C_17
REMARK    5  A    between atoms: C_17  and  C_18
REMARK    6  A    between atoms: C_18  and  N_19
REMARK    7  A    between atoms: N_19  and  C_21
REMARK    8  A    between atoms: C_26  and  O_27
REMARK    9  A    between atoms: C_29  and  C_30
REMARK                            x       y       z     vdW  Elec       q    Type
REMARK                         _______ _______ _______ _____ _____    ______ ____
ROOT
ATOM      1  C   UNL     1      33.440 -21.605 -18.289  0.00  0.00    +0.151 C 
ENDROOT
BRANCH   1   3
ATOM      2  O   UNL     1      30.715 -23.624 -16.897  0.00  0.00    -0.414 OA
ATOM      3  N   UNL     1      32.243 -22.396 -18.093  0.00  0.00    -0.271 N 
ATOM      4  N   UNL     1      32.474 -22.796 -15.731  0.00  0.00    -0.356 NA
ATOM      5  C   UNL     1      31.863 -22.915 -16.868  0.00  0.00    +0.345 C 
ATOM      6  C   UNL     1      30.575 -24.010 -15.595  0.00  0.00    +0.175 C 
ATOM      7  C   UNL     1      31.653 -23.502 -14.885  0.00  0.00    +0.152 C 
ATOM      8  C   UNL     1      29.554 -24.773 -15.043  0.00  0.00    +0.040 C 
ATOM      9  C   UNL     1      31.743 -23.762 -13.510  0.00  0.00    +0.088 C 
ATOM     10  C   UNL     1      29.657 -25.024 -13.671  0.00  0.00    -0.001 C 
ATOM     11  C   UNL     1      30.729 -24.530 -12.917  0.00  0.00    -0.018 C 
ATOM     12  H   UNL     1      31.670 -22.574 -18.872  0.00  0.00    +0.153 HD
ENDBRANCH   1   3
BRANCH   1  15
ATOM     13  O   UNL     1      32.302 -20.805 -20.272  0.00  0.00    -0.273 OA
ATOM     14  N   UNL     1      34.590 -20.479 -20.094  0.00  0.00    -0.301 N 
ATOM     15  C   UNL     1      33.355 -20.925 -19.649  0.00  0.00    +0.240 C 
ATOM     16  H   UNL     1      35.381 -20.619 -19.525  0.00  0.00    +0.150 HD
BRANCH  14  17
ATOM     17  C   UNL     1      34.753 -19.813 -21.364  0.00  0.00    +0.111 C 
BRANCH  17  18
ATOM     18  C   UNL     1      35.625 -18.572 -21.256  0.00  0.00    +0.109 C 
BRANCH  18  19
ATOM     19  N   UNL     1      35.787 -17.955 -22.551  0.00  0.00    -0.331 N 
ATOM     20  H   UNL     1      36.408 -18.374 -23.191  0.00  0.00    +0.147 HD
BRANCH  19  21
ATOM     21  C   UNL     1      35.119 -16.807 -22.946  0.00  0.00    +0.045 C 
ATOM     22  C   UNL     1      34.940 -15.733 -22.055  0.00  0.00    +0.017 C 
ATOM     23  C   UNL     1      34.600 -16.685 -24.248  0.00  0.00    +0.017 C 
ATOM     24  C   UNL     1      34.267 -14.578 -22.452  0.00  0.00    +0.038 C 
ATOM     25  C   UNL     1      33.927 -15.530 -24.646  0.00  0.00    +0.038 C 
ATOM     26  C   UNL     1      33.760 -14.477 -23.748  0.00  0.00    +0.139 C 
BRANCH  26  27
ATOM     27  O   UNL     1      33.104 -13.349 -24.136  0.00  0.00    -0.471 OA
ATOM     28  C   UNL     1      33.704 -12.099 -23.801  0.00  0.00    +0.252 C 
ENDBRANCH  26  27
ENDBRANCH  19  21
ENDBRANCH  18  19
ENDBRANCH  17  18
ENDBRANCH  14  17
ENDBRANCH   1  15
BRANCH   1  29
ATOM     29  C   UNL     1      34.683 -22.495 -18.224  0.00  0.00    +0.029 C 
BRANCH  29  30
ATOM     30  C   UNL     1      35.539 -22.214 -16.992  0.00  0.00    +0.002 C 
ATOM     31  C   UNL     1      36.979 -21.874 -17.398  0.00  0.00    +0.000 C 
ATOM     32  C   UNL     1      35.511 -23.408 -16.028  0.00  0.00    +0.000 C 
ATOM     33  C   UNL     1      37.869 -21.640 -16.179  0.00  0.00    +0.000 C 
ATOM     34  C   UNL     1      36.403 -23.172 -14.812  0.00  0.00    +0.000 C 
ATOM     35  C   UNL     1      37.832 -22.826 -15.220  0.00  0.00    +0.000 C 
ENDBRANCH  29  30
ENDBRANCH   1  29
TORSDOF 9
ENDMDL
MODEL 4
REMARK VINA RESULT:     -10.5      3.254      7.548
REMARK  Name = 6420159
REMARK  9 active torsions:
REMARK  status: ('A' for Active; 'I' for Inactive)
REMARK    1  A    between atoms: C_1  and  N_3
REMARK    2  A    between atoms: C_1  and  C_15
REMARK    3  A    between atoms: C_1  and  C_29
REMARK    4  A    between atoms: N_14  and  C_17
REMARK    5  A    between atoms: C_17  and  C_18
REMARK    6  A    between atoms: C_18  and  N_19
REMARK    7  A    between atoms: N_19  and  C_21
REMARK    8  A    between atoms: C_26  and  O_27
REMARK    9  A    between atoms: C_29  and  C_30
REMARK                            x       y       z     vdW  Elec       q    Type
REMARK                         _______ _______ _______ _____ _____    ______ ____
ROOT
ATOM      1  C   UNL     1      33.830 -23.050 -16.434  0.00  0.00    +0.151 C 
ENDROOT
BRANCH   1   3
ATOM      2  O   UNL     1      36.136 -25.415 -14.843  0.00  0.00    -0.414 OA
ATOM      3  N   UNL     1      34.633 -24.203 -16.087  0.00  0.00    -0.271 N 
ATOM      4  N   UNL     1      35.690 -23.314 -14.117  0.00  0.00    -0.356 NA
ATOM      5  C   UNL     1      35.475 -24.247 -14.990  0.00  0.00    +0.345 C 
ATOM      6  C   UNL     1      36.875 -25.193 -13.716  0.00  0.00    +0.175 C 
ATOM      7  C   UNL     1      36.599 -23.907 -13.275  0.00  0.00    +0.152 C 
ATOM      8  C   UNL     1      37.754 -26.071 -13.094  0.00  0.00    +0.040 C 
ATOM      9  C   UNL     1      37.240 -23.434 -12.121  0.00  0.00    +0.088 C 
ATOM     10  C   UNL     1      38.385 -25.585 -11.944  0.00  0.00    -0.001 C 
ATOM     11  C   UNL     1      38.135 -24.292 -11.465  0.00  0.00    -0.018 C 
ATOM     12  H   UNL     1      34.577 -24.999 -16.663  0.00  0.00    +0.153 HD
ENDBRANCH   1   3
BRANCH   1  15
ATOM     13  O   UNL     1      31.422 -22.895 -16.229  0.00  0.00    -0.273 OA
ATOM     14  N   UNL     1      32.659 -23.523 -14.372  0.00  0.00    -0.301 N 
ATOM     15  C   UNL     1      32.501 -23.143 -15.696  0.00  0.00    +0.240 C 
ATOM     16  H   UNL     1      33.565 -23.702 -14.032  0.00  0.00    +0.150 HD
BRANCH  14  17
ATOM     17  C   UNL     1      31.537 -23.665 -13.476  0.00  0.00    +0.111 C 
BRANCH  17  18
ATOM     18  C   UNL     1      31.037 -25.099 -13.403  0.00  0.00    +0.109 C 
BRANCH  18  19
ATOM     19  N   UNL     1      29.605 -25.144 -13.587  0.00  0.00    -0.331 N 
ATOM     20  H   UNL     1      29.075 -25.699 -12.971  0.00  0.00    +0.147 HD
BRANCH  19  21
ATOM     21  C   UNL     1      28.935 -24.451 -14.583  0.00  0.00    +0.045 C 
ATOM     22  C   UNL     1      28.390 -23.178 -14.334  0.00  0.00    +0.017 C 
ATOM     23  C   UNL     1      28.781 -25.002 -15.868  0.00  0.00    +0.017 C 
ATOM     24  C   UNL     1      27.714 -22.480 -15.336  0.00  0.00    +0.038 C 
ATOM     25  C   UNL     1      28.105 -24.305 -16.870  0.00  0.00    +0.038 C 
ATOM     26  C   UNL     1      27.572 -23.044 -16.603  0.00  0.00    +0.139 C 
BRANCH  26  27
ATOM     27  O   UNL     1      26.914 -22.364 -17.582  0.00  0.00    -0.471 OA
ATOM     28  C   UNL     1      25.996 -21.353 -17.166  0.00  0.00    +0.252 C 
ENDBRANCH  26  27
ENDBRANCH  19  21
ENDBRANCH  18  19
ENDBRANCH  17  18
ENDBRANCH  14  17
ENDBRANCH   1  15
BRANCH   1  29
ATOM     29  C   UNL     1      33.590 -23.002 -17.944  0.00  0.00    +0.029 C 
BRANCH  29  30
ATOM     30  C   UNL     1      34.093 -21.706 -18.576  0.00  0.00    +0.002 C 
ATOM     31  C   UNL     1      33.158 -21.255 -19.706  0.00  0.00    +0.000 C 
ATOM     32  C   UNL     1      35.529 -21.875 -19.090  0.00  0.00    +0.000 C 
ATOM     33  C   UNL     1      33.669 -19.989 -20.389  0.00  0.00    +0.000 C 
ATOM     34  C   UNL     1      36.036 -20.609 -19.775  0.00  0.00    +0.000 C 
ATOM     35  C   UNL     1      35.099 -20.158 -20.891  0.00  0.00    +0.000 C 
ENDBRANCH  29  30
ENDBRANCH   1  29
TORSDOF 9
ENDMDL
MODEL 5
REMARK VINA RESULT:      -9.9      9.854     15.861
REMARK  Name = 6420159
REMARK  9 active torsions:
REMARK  status: ('A' for Active; 'I' for Inactive)
REMARK    1  A    between atoms: C_1  and  N_3
REMARK    2  A    between atoms: C_1  and  C_15
REMARK    3  A    between atoms: C_1  and  C_29
REMARK    4  A    between atoms: N_14  and  C_17
REMARK    5  A    between atoms: C_17  and  C_18
REMARK    6  A    between atoms: C_18  and  N_19
REMARK    7  A    between atoms: N_19  and  C_21
REMARK    8  A    between atoms: C_26  and  O_27
REMARK    9  A    between atoms: C_29  and  C_30
REMARK                            x       y       z     vdW  Elec       q    Type
REMARK                         _______ _______ _______ _____ _____    ______ ____
ROOT
ATOM      1  C   UNL     1      32.580  -6.738 -21.269  0.00  0.00    +0.151 C 
ENDROOT
BRANCH   1   3
ATOM      2  O   UNL     1      35.031  -8.071 -23.648  0.00  0.00    -0.414 OA
ATOM      3  N   UNL     1      33.753  -6.979 -22.083  0.00  0.00    -0.271 N 
ATOM      4  N   UNL     1      32.967  -8.924 -23.261  0.00  0.00    -0.356 NA
ATOM      5  C   UNL     1      33.855  -8.020 -22.989  0.00  0.00    +0.345 C 
ATOM      6  C   UNL     1      34.869  -9.161 -24.455  0.00  0.00    +0.175 C 
ATOM      7  C   UNL     1      33.604  -9.680 -24.215  0.00  0.00    +0.152 C 
ATOM      8  C   UNL     1      35.780  -9.685 -25.363  0.00  0.00    +0.040 C 
ATOM      9  C   UNL     1      33.192 -10.815 -24.927  0.00  0.00    +0.088 C 
ATOM     10  C   UNL     1      35.353 -10.817 -26.065  0.00  0.00    -0.001 C 
ATOM     11  C   UNL     1      34.085 -11.372 -25.854  0.00  0.00    -0.018 C 
ATOM     12  H   UNL     1      34.519  -6.370 -21.986  0.00  0.00    +0.153 HD
ENDBRANCH   1   3
BRANCH   1  15
ATOM     13  O   UNL     1      32.965  -7.769 -19.112  0.00  0.00    -0.273 OA
ATOM     14  N   UNL     1      31.767  -8.946 -20.710  0.00  0.00    -0.301 N 
ATOM     15  C   UNL     1      32.470  -7.849 -20.234  0.00  0.00    +0.240 C 
ATOM     16  H   UNL     1      31.405  -8.920 -21.625  0.00  0.00    +0.150 HD
BRANCH  14  17
ATOM     17  C   UNL     1      31.548 -10.124 -19.906  0.00  0.00    +0.111 C 
BRANCH  17  18
ATOM     18  C   UNL     1      31.206 -11.342 -20.750  0.00  0.00    +0.109 C 
BRANCH  18  19
ATOM     19  N   UNL     1      31.885 -12.511 -20.246  0.00  0.00    -0.331 N 
ATOM     20  H   UNL     1      31.731 -12.771 -19.309  0.00  0.00    +0.147 HD
BRANCH  19  21
ATOM     21  C   UNL     1      32.743 -13.291 -21.006  0.00  0.00    +0.045 C 
ATOM     22  C   UNL     1      32.707 -13.243 -22.413  0.00  0.00    +0.017 C 
ATOM     23  C   UNL     1      33.671 -14.152 -20.393  0.00  0.00    +0.017 C 
ATOM     24  C   UNL     1      33.569 -14.029 -23.178  0.00  0.00    +0.038 C 
ATOM     25  C   UNL     1      34.534 -14.937 -21.158  0.00  0.00    +0.038 C 
ATOM     26  C   UNL     1      34.482 -14.876 -22.550  0.00  0.00    +0.139 C 
BRANCH  26  27
ATOM     27  O   UNL     1      35.325 -15.641 -23.296  0.00  0.00    -0.471 OA
ATOM     28  C   UNL     1      34.741 -16.428 -24.334  0.00  0.00    +0.252 C 
ENDBRANCH  26  27
ENDBRANCH  19  21
ENDBRANCH  18  19
ENDBRANCH  17  18
ENDBRANCH  14  17
ENDBRANCH   1  15
BRANCH   1  29
ATOM     29  C   UNL     1      31.324  -6.707 -22.142  0.00  0.00    +0.029 C 
BRANCH  29  30
ATOM     30  C   UNL     1      31.088  -5.340 -22.779  0.00  0.00    +0.002 C 
ATOM     31  C   UNL     1      31.691  -5.286 -24.189  0.00  0.00    +0.000 C 
ATOM     32  C   UNL     1      31.664  -4.223 -21.897  0.00  0.00    +0.000 C 
ATOM     33  C   UNL     1      31.513  -3.910 -24.826  0.00  0.00    +0.000 C 
ATOM     34  C   UNL     1      31.487  -2.850 -22.538  0.00  0.00    +0.000 C 
ATOM     35  C   UNL     1      32.080  -2.804 -23.943  0.00  0.00    +0.000 C 
ENDBRANCH  29  30
ENDBRANCH   1  29
TORSDOF 9
ENDMDL
MODEL 6
REMARK VINA RESULT:      -9.4      9.853     16.817
REMARK  Name = 6420159
REMARK  9 active torsions:
REMARK  status: ('A' for Active; 'I' for Inactive)
REMARK    1  A    between atoms: C_1  and  N_3
REMARK    2  A    between atoms: C_1  and  C_15
REMARK    3  A    between atoms: C_1  and  C_29
REMARK    4  A    between atoms: N_14  and  C_17
REMARK    5  A    between atoms: C_17  and  C_18
REMARK    6  A    between atoms: C_18  and  N_19
REMARK    7  A    between atoms: N_19  and  C_21
REMARK    8  A    between atoms: C_26  and  O_27
REMARK    9  A    between atoms: C_29  and  C_30
REMARK                            x       y       z     vdW  Elec       q    Type
REMARK                         _______ _______ _______ _____ _____    ______ ____
ROOT
ATOM      1  C   UNL     1      32.479  -7.696 -21.972  0.00  0.00    +0.151 C 
ENDROOT
BRANCH   1   3
ATOM      2  O   UNL     1      32.004  -4.118 -22.615  0.00  0.00    -0.414 OA
ATOM      3  N   UNL     1      32.252  -6.271 -21.855  0.00  0.00    -0.271 N 
ATOM      4  N   UNL     1      32.403  -5.701 -24.188  0.00  0.00    -0.356 NA
ATOM      5  C   UNL     1      32.232  -5.408 -22.937  0.00  0.00    +0.345 C 
ATOM      6  C   UNL     1      32.035  -3.502 -23.834  0.00  0.00    +0.175 C 
ATOM      7  C   UNL     1      32.279  -4.474 -24.793  0.00  0.00    +0.152 C 
ATOM      8  C   UNL     1      31.858  -2.151 -24.104  0.00  0.00    +0.040 C 
ATOM      9  C   UNL     1      32.357  -4.092 -26.140  0.00  0.00    +0.088 C 
ATOM     10  C   UNL     1      31.939  -1.786 -25.451  0.00  0.00    -0.001 C 
ATOM     11  C   UNL     1      32.184  -2.735 -26.451  0.00  0.00    -0.018 C 
ATOM     12  H   UNL     1      32.105  -5.895 -20.957  0.00  0.00    +0.153 HD
ENDBRANCH   1   3
BRANCH   1  15
ATOM     13  O   UNL     1      32.659  -7.812 -19.559  0.00  0.00    -0.273 OA
ATOM     14  N   UNL     1      31.630  -9.558 -20.684  0.00  0.00    -0.301 N 
ATOM     15  C   UNL     1      32.276  -8.334 -20.604  0.00  0.00    +0.240 C 
ATOM     16  H   UNL     1      31.359  -9.898 -21.567  0.00  0.00    +0.150 HD
BRANCH  14  17
ATOM     17  C   UNL     1      31.340 -10.350 -19.513  0.00  0.00    +0.111 C 
BRANCH  17  18
ATOM     18  C   UNL     1      32.110 -11.661 -19.501  0.00  0.00    +0.109 C 
BRANCH  18  19
ATOM     19  N   UNL     1      31.778 -12.452 -20.662  0.00  0.00    -0.331 N 
ATOM     20  H   UNL     1      30.860 -12.398 -21.014  0.00  0.00    +0.147 HD
BRANCH  19  21
ATOM     21  C   UNL     1      32.678 -13.285 -21.309  0.00  0.00    +0.045 C 
ATOM     22  C   UNL     1      33.620 -14.035 -20.581  0.00  0.00    +0.017 C 
ATOM     23  C   UNL     1      32.674 -13.402 -22.711  0.00  0.00    +0.017 C 
ATOM     24  C   UNL     1      34.527 -14.871 -21.232  0.00  0.00    +0.038 C 
ATOM     25  C   UNL     1      33.580 -14.239 -23.362  0.00  0.00    +0.038 C 
ATOM     26  C   UNL     1      34.506 -14.973 -22.623  0.00  0.00    +0.139 C 
BRANCH  26  27
ATOM     27  O   UNL     1      35.389 -15.791 -23.259  0.00  0.00    -0.471 OA
ATOM     28  C   UNL     1      34.890 -17.036 -23.744  0.00  0.00    +0.252 C 
ENDBRANCH  26  27
ENDBRANCH  19  21
ENDBRANCH  18  19
ENDBRANCH  17  18
ENDBRANCH  14  17
ENDBRANCH   1  15
BRANCH   1  29
ATOM     29  C   UNL     1      33.899  -7.969 -22.473  0.00  0.00    +0.029 C 
BRANCH  29  30
ATOM     30  C   UNL     1      33.915  -8.740 -23.791  0.00  0.00    +0.002 C 
ATOM     31  C   UNL     1      33.043  -9.999 -23.693  0.00  0.00    +0.000 C 
ATOM     32  C   UNL     1      35.352  -9.101 -24.191  0.00  0.00    +0.000 C 
ATOM     33  C   UNL     1      33.085 -10.816 -24.983  0.00  0.00    +0.000 C 
ATOM     34  C   UNL     1      35.390  -9.919 -25.479  0.00  0.00    +0.000 C 
ATOM     35  C   UNL     1      34.515 -11.165 -25.381  0.00  0.00    +0.000 C 
ENDBRANCH  29  30
ENDBRANCH   1  29
TORSDOF 9
ENDMDL
MODEL 7
REMARK VINA RESULT:      -9.4      8.292     16.217
REMARK  Name = 6420159
REMARK  9 active torsions:
REMARK  status: ('A' for Active; 'I' for Inactive)
REMARK    1  A    between atoms: C_1  and  N_3
REMARK    2  A    between atoms: C_1  and  C_15
REMARK    3  A    between atoms: C_1  and  C_29
REMARK    4  A    between atoms: N_14  and  C_17
REMARK    5  A    between atoms: C_17  and  C_18
REMARK    6  A    between atoms: C_18  and  N_19
REMARK    7  A    between atoms: N_19  and  C_21
REMARK    8  A    between atoms: C_26  and  O_27
REMARK    9  A    between atoms: C_29  and  C_30
REMARK                            x       y       z     vdW  Elec       q    Type
REMARK                         _______ _______ _______ _____ _____    ______ ____
ROOT
ATOM      1  C   UNL     1      33.414  -8.319 -23.200  0.00  0.00    +0.151 C 
ENDROOT
BRANCH   1   3
ATOM      2  O   UNL     1      33.253  -5.209 -25.135  0.00  0.00    -0.414 OA
ATOM      3  N   UNL     1      33.533  -7.295 -24.217  0.00  0.00    -0.271 N 
ATOM      4  N   UNL     1      32.414  -5.513 -23.051  0.00  0.00    -0.356 NA
ATOM      5  C   UNL     1      33.040  -6.011 -24.071  0.00  0.00    +0.345 C 
ATOM      6  C   UNL     1      32.683  -4.034 -24.736  0.00  0.00    +0.175 C 
ATOM      7  C   UNL     1      32.171  -4.224 -23.461  0.00  0.00    +0.152 C 
ATOM      8  C   UNL     1      32.609  -2.844 -25.449  0.00  0.00    +0.040 C 
ATOM      9  C   UNL     1      31.528  -3.154 -22.823  0.00  0.00    +0.088 C 
ATOM     10  C   UNL     1      31.965  -1.786 -24.799  0.00  0.00    -0.001 C 
ATOM     11  C   UNL     1      31.434  -1.936 -23.512  0.00  0.00    -0.018 C 
ATOM     12  H   UNL     1      33.989  -7.526 -25.058  0.00  0.00    +0.153 HD
ENDBRANCH   1   3
BRANCH   1  15
ATOM     13  O   UNL     1      35.414  -9.612 -23.642  0.00  0.00    -0.273 OA
ATOM     14  N   UNL     1      33.349 -10.565 -24.093  0.00  0.00    -0.301 N 
ATOM     15  C   UNL     1      34.186  -9.549 -23.656  0.00  0.00    +0.240 C 
ATOM     16  H   UNL     1      32.375 -10.425 -24.068  0.00  0.00    +0.150 HD
BRANCH  14  17
ATOM     17  C   UNL     1      33.860 -11.822 -24.583  0.00  0.00    +0.111 C 
BRANCH  17  18
ATOM     18  C   UNL     1      33.757 -12.929 -23.546  0.00  0.00    +0.109 C 
BRANCH  18  19
ATOM     19  N   UNL     1      33.555 -14.206 -24.189  0.00  0.00    -0.331 N 
ATOM     20  H   UNL     1      32.989 -14.236 -24.995  0.00  0.00    +0.147 HD
BRANCH  19  21
ATOM     21  C   UNL     1      34.112 -15.392 -23.738  0.00  0.00    +0.045 C 
ATOM     22  C   UNL     1      34.773 -15.453 -22.496  0.00  0.00    +0.017 C 
ATOM     23  C   UNL     1      34.033 -16.566 -24.508  0.00  0.00    +0.017 C 
ATOM     24  C   UNL     1      35.335 -16.646 -22.042  0.00  0.00    +0.038 C 
ATOM     25  C   UNL     1      34.595 -17.760 -24.054  0.00  0.00    +0.038 C 
ATOM     26  C   UNL     1      35.245 -17.800 -22.822  0.00  0.00    +0.139 C 
BRANCH  26  27
ATOM     27  O   UNL     1      35.792 -18.965 -22.379  0.00  0.00    -0.471 OA
ATOM     28  C   UNL     1      35.027 -19.730 -21.449  0.00  0.00    +0.252 C 
ENDBRANCH  26  27
ENDBRANCH  19  21
ENDBRANCH  18  19
ENDBRANCH  17  18
ENDBRANCH  14  17
ENDBRANCH   1  15
BRANCH   1  29
ATOM     29  C   UNL     1      31.944  -8.675 -22.973  0.00  0.00    +0.029 C 
BRANCH  29  30
ATOM     30  C   UNL     1      31.600  -8.820 -21.492  0.00  0.00    +0.002 C 
ATOM     31  C   UNL     1      32.598  -8.041 -20.625  0.00  0.00    +0.000 C 
ATOM     32  C   UNL     1      31.562 -10.299 -21.085  0.00  0.00    +0.000 C 
ATOM     33  C   UNL     1      32.306  -8.213 -19.136  0.00  0.00    +0.000 C 
ATOM     34  C   UNL     1      31.273 -10.468 -19.596  0.00  0.00    +0.000 C 
ATOM     35  C   UNL     1      32.261  -9.685 -18.738  0.00  0.00    +0.000 C 
ENDBRANCH  29  30
ENDBRANCH   1  29
TORSDOF 9
ENDMDL
MODEL 8
REMARK VINA RESULT:      -9.4      8.461     12.579
REMARK  Name = 6420159
REMARK  9 active torsions:
REMARK  status: ('A' for Active; 'I' for Inactive)
REMARK    1  A    between atoms: C_1  and  N_3
REMARK    2  A    between atoms: C_1  and  C_15
REMARK    3  A    between atoms: C_1  and  C_29
REMARK    4  A    between atoms: N_14  and  C_17
REMARK    5  A    between atoms: C_17  and  C_18
REMARK    6  A    between atoms: C_18  and  N_19
REMARK    7  A    between atoms: N_19  and  C_21
REMARK    8  A    between atoms: C_26  and  O_27
REMARK    9  A    between atoms: C_29  and  C_30
REMARK                            x       y       z     vdW  Elec       q    Type
REMARK                         _______ _______ _______ _____ _____    ______ ____
ROOT
ATOM      1  C   UNL     1      33.075 -13.024 -24.594  0.00  0.00    +0.151 C 
ENDROOT
BRANCH   1   3
ATOM      2  O   UNL     1      33.750 -16.595 -25.076  0.00  0.00    -0.414 OA
ATOM      3  N   UNL     1      33.168 -14.374 -25.109  0.00  0.00    -0.271 N 
ATOM      4  N   UNL     1      34.328 -15.376 -23.255  0.00  0.00    -0.356 NA
ATOM      5  C   UNL     1      33.768 -15.415 -24.423  0.00  0.00    +0.345 C 
ATOM      6  C   UNL     1      34.388 -17.426 -24.200  0.00  0.00    +0.175 C 
ATOM      7  C   UNL     1      34.741 -16.676 -23.087  0.00  0.00    +0.152 C 
ATOM      8  C   UNL     1      34.656 -18.780 -24.359  0.00  0.00    +0.040 C 
ATOM      9  C   UNL     1      35.416 -17.306 -22.032  0.00  0.00    +0.088 C 
ATOM     10  C   UNL     1      35.329 -19.393 -23.298  0.00  0.00    -0.001 C 
ATOM     11  C   UNL     1      35.703 -18.673 -22.156  0.00  0.00    -0.018 C 
ATOM     12  H   UNL     1      32.783 -14.561 -25.995  0.00  0.00    +0.153 HD
ENDBRANCH   1   3
BRANCH   1  15
ATOM     13  O   UNL     1      33.865 -12.240 -26.746  0.00  0.00    -0.273 OA
ATOM     14  N   UNL     1      34.514 -11.096 -24.836  0.00  0.00    -0.301 N 
ATOM     15  C   UNL     1      33.844 -12.096 -25.525  0.00  0.00    +0.240 C 
ATOM     16  H   UNL     1      34.439 -11.058 -23.856  0.00  0.00    +0.150 HD
BRANCH  14  17
ATOM     17  C   UNL     1      35.318 -10.106 -25.512  0.00  0.00    +0.111 C 
BRANCH  17  18
ATOM     18  C   UNL     1      35.244  -8.745 -24.838  0.00  0.00    +0.109 C 
BRANCH  18  19
ATOM     19  N   UNL     1      34.581  -8.852 -23.560  0.00  0.00    -0.331 N 
ATOM     20  H   UNL     1      34.862  -9.571 -22.948  0.00  0.00    +0.147 HD
BRANCH  19  21
ATOM     21  C   UNL     1      33.570  -8.000 -23.143  0.00  0.00    +0.045 C 
ATOM     22  C   UNL     1      33.758  -7.138 -22.047  0.00  0.00    +0.017 C 
ATOM     23  C   UNL     1      32.328  -7.976 -23.804  0.00  0.00    +0.017 C 
ATOM     24  C   UNL     1      32.740  -6.281 -21.627  0.00  0.00    +0.038 C 
ATOM     25  C   UNL     1      31.310  -7.119 -23.384  0.00  0.00    +0.038 C 
ATOM     26  C   UNL     1      31.516  -6.273 -22.296  0.00  0.00    +0.139 C 
BRANCH  26  27
ATOM     27  O   UNL     1      30.523  -5.436 -21.888  0.00  0.00    -0.471 OA
ATOM     28  C   UNL     1      30.824  -4.042 -21.843  0.00  0.00    +0.252 C 
ENDBRANCH  26  27
ENDBRANCH  19  21
ENDBRANCH  18  19
ENDBRANCH  17  18
ENDBRANCH  14  17
ENDBRANCH   1  15
BRANCH   1  29
ATOM     29  C   UNL     1      33.658 -12.952 -23.182  0.00  0.00    +0.029 C 
BRANCH  29  30
ATOM     30  C   UNL     1      32.601 -12.628 -22.129  0.00  0.00    +0.002 C 
ATOM     31  C   UNL     1      32.227 -11.140 -22.176  0.00  0.00    +0.000 C 
ATOM     32  C   UNL     1      33.090 -13.023 -20.729  0.00  0.00    +0.000 C 
ATOM     33  C   UNL     1      31.209 -10.780 -21.097  0.00  0.00    +0.000 C 
ATOM     34  C   UNL     1      32.072 -12.659 -19.652  0.00  0.00    +0.000 C 
ATOM     35  C   UNL     1      31.696 -11.182 -19.708  0.00  0.00    +0.000 C 
ENDBRANCH  29  30
ENDBRANCH   1  29
TORSDOF 9
ENDMDL
MODEL 9
REMARK VINA RESULT:      -9.4      8.541     12.972
REMARK  Name = 6420159
REMARK  9 active torsions:
REMARK  status: ('A' for Active; 'I' for Inactive)
REMARK    1  A    between atoms: C_1  and  N_3
REMARK    2  A    between atoms: C_1  and  C_15
REMARK    3  A    between atoms: C_1  and  C_29
REMARK    4  A    between atoms: N_14  and  C_17
REMARK    5  A    between atoms: C_17  and  C_18
REMARK    6  A    between atoms: C_18  and  N_19
REMARK    7  A    between atoms: N_19  and  C_21
REMARK    8  A    between atoms: C_26  and  O_27
REMARK    9  A    between atoms: C_29  and  C_30
REMARK                            x       y       z     vdW  Elec       q    Type
REMARK                         _______ _______ _______ _____ _____    ______ ____
ROOT
ATOM      1  C   UNL     1      33.129 -12.833 -24.086  0.00  0.00    +0.151 C 
ENDROOT
BRANCH   1   3
ATOM      2  O   UNL     1      35.220 -15.356 -22.442  0.00  0.00    -0.414 OA
ATOM      3  N   UNL     1      34.082 -13.533 -23.250  0.00  0.00    -0.271 N 
ATOM      4  N   UNL     1      33.698 -15.761 -24.072  0.00  0.00    -0.356 NA
ATOM      5  C   UNL     1      34.288 -14.900 -23.305  0.00  0.00    +0.345 C 
ATOM      6  C   UNL     1      35.225 -16.698 -22.698  0.00  0.00    +0.175 C 
ATOM      7  C   UNL     1      34.292 -16.942 -23.696  0.00  0.00    +0.152 C 
ATOM      8  C   UNL     1      36.006 -17.672 -22.090  0.00  0.00    +0.040 C 
ATOM      9  C   UNL     1      34.105 -18.258 -24.141  0.00  0.00    +0.088 C 
ATOM     10  C   UNL     1      35.808 -18.980 -22.546  0.00  0.00    -0.001 C 
ATOM     11  C   UNL     1      34.876 -19.269 -23.551  0.00  0.00    -0.018 C 
ATOM     12  H   UNL     1      34.611 -13.007 -22.608  0.00  0.00    +0.153 HD
ENDBRANCH   1   3
BRANCH   1  15
ATOM     13  O   UNL     1      33.711 -11.269 -25.841  0.00  0.00    -0.273 OA
ATOM     14  N   UNL     1      34.529 -10.899 -23.703  0.00  0.00    -0.301 N 
ATOM     15  C   UNL     1      33.803 -11.594 -24.659  0.00  0.00    +0.240 C 
ATOM     16  H   UNL     1      34.544 -11.235 -22.778  0.00  0.00    +0.150 HD
BRANCH  14  17
ATOM     17  C   UNL     1      35.262  -9.697 -24.021  0.00  0.00    +0.111 C 
BRANCH  17  18
ATOM     18  C   UNL     1      34.733  -8.485 -23.270  0.00  0.00    +0.109 C 
BRANCH  18  19
ATOM     19  N   UNL     1      33.563  -7.955 -23.929  0.00  0.00    -0.331 N 
ATOM     20  H   UNL     1      33.256  -8.394 -24.755  0.00  0.00    +0.147 HD
BRANCH  19  21
ATOM     21  C   UNL     1      32.848  -6.862 -23.465  0.00  0.00    +0.045 C 
ATOM     22  C   UNL     1      31.901  -6.218 -24.284  0.00  0.00    +0.017 C 
ATOM     23  C   UNL     1      33.050  -6.366 -22.164  0.00  0.00    +0.017 C 
ATOM     24  C   UNL     1      31.182  -5.118 -23.817  0.00  0.00    +0.038 C 
ATOM     25  C   UNL     1      32.331  -5.265 -21.698  0.00  0.00    +0.038 C 
ATOM     26  C   UNL     1      31.398  -4.641 -22.525  0.00  0.00    +0.139 C 
BRANCH  26  27
ATOM     27  O   UNL     1      30.695  -3.568 -22.069  0.00  0.00    -0.471 OA
ATOM     28  C   UNL     1      31.116  -2.279 -22.513  0.00  0.00    +0.252 C 
ENDBRANCH  26  27
ENDBRANCH  19  21
ENDBRANCH  18  19
ENDBRANCH  17  18
ENDBRANCH  14  17
ENDBRANCH   1  15
BRANCH   1  29
ATOM     29  C   UNL     1      31.899 -12.432 -23.270  0.00  0.00    +0.029 C 
BRANCH  29  30
ATOM     30  C   UNL     1      32.260 -11.619 -22.029  0.00  0.00    +0.002 C 
ATOM     31  C   UNL     1      31.933 -12.405 -20.752  0.00  0.00    +0.000 C 
ATOM     32  C   UNL     1      31.537 -10.266 -22.037  0.00  0.00    +0.000 C 
ATOM     33  C   UNL     1      32.238 -11.592 -19.496  0.00  0.00    +0.000 C 
ATOM     34  C   UNL     1      31.841  -9.456 -20.779  0.00  0.00    +0.000 C 
ATOM     35  C   UNL     1      31.524 -10.244 -19.512  0.00  0.00    +0.000 C 
ENDBRANCH  29  30
ENDBRANCH   1  29
TORSDOF 9
ENDMDL
