MODEL 1
REMARK VINA RESULT:     -12.0      0.000      0.000
REMARK  Name = 24978486
REMARK  5 active torsions:
REMARK  status: ('A' for Active; 'I' for Inactive)
REMARK    1  A    between atoms: O_1  and  C_6
REMARK    2  A    between atoms: O_1  and  C_18
REMARK    3  A    between atoms: C_18  and  C_20
REMARK    4  A    between atoms: N_19  and  C_26
REMARK    5  A    between atoms: C_26  and  C_29
REMARK                            x       y       z     vdW  Elec       q    Type
REMARK                         _______ _______ _______ _____ _____    ______ ____
ROOT
ATOM      1  O   UNL     1      34.408 -19.275 -21.527  0.00  0.00    -0.479 OA
ENDROOT
BRANCH   1   6
ATOM      2  N   UNL     1      34.757 -22.445 -17.879  0.00  0.00    -0.332 NA
ATOM      3  N   UNL     1      32.578 -22.007 -18.810  0.00  0.00    -0.317 NA
ATOM      4  N   UNL     1      32.287 -20.502 -20.567  0.00  0.00    -0.335 N 
ATOM      5  N   UNL     1      32.849 -23.523 -17.044  0.00  0.00    -0.283 N 
ATOM      6  C   UNL     1      35.119 -19.982 -20.590  0.00  0.00    +0.130 C 
ATOM      7  C   UNL     1      34.531 -20.884 -19.687  0.00  0.00    +0.177 C 
ATOM      8  C   UNL     1      36.492 -19.765 -20.560  0.00  0.00    +0.033 C 
ATOM      9  C   UNL     1      35.310 -21.579 -18.747  0.00  0.00    +0.137 C 
ATOM     10  C   UNL     1      33.164 -21.147 -19.664  0.00  0.00    +0.181 C 
ATOM     11  C   UNL     1      37.275 -20.445 -19.634  0.00  0.00    +0.005 C 
ATOM     12  C   UNL     1      36.682 -21.343 -18.740  0.00  0.00    +0.030 C 
ATOM     13  C   UNL     1      33.422 -22.612 -17.958  0.00  0.00    +0.197 C 
ATOM     14  H   UNL     1      31.322 -20.697 -20.541  0.00  0.00    +0.144 HD
ATOM     15  H   UNL     1      32.642 -19.859 -21.223  0.00  0.00    +0.144 HD
ATOM     16  H   UNL     1      33.420 -23.996 -16.397  0.00  0.00    +0.156 HD
ATOM     17  H   UNL     1      31.878 -23.688 -17.055  0.00  0.00    +0.156 HD
ENDBRANCH   1   6
BRANCH   1  18
ATOM     18  C   UNL     1      34.949 -19.216 -22.834  0.00  0.00    +0.205 C 
BRANCH  18  20
ATOM     19  N   UNL     1      33.952 -15.045 -23.347  0.00  0.00    +0.390 N 
ATOM     20  C   UNL     1      35.075 -17.750 -23.243  0.00  0.00    +0.040 C 
ATOM     21  C   UNL     1      35.031 -16.831 -22.018  0.00  0.00    -0.019 C 
ATOM     22  C   UNL     1      33.967 -17.357 -24.225  0.00  0.00    -0.019 C 
ATOM     23  C   UNL     1      35.055 -15.357 -22.428  0.00  0.00    -0.077 C 
ATOM     24  C   UNL     1      34.026 -15.866 -24.562  0.00  0.00    -0.077 C 
ATOM     25  H   UNL     1      33.075 -15.263 -22.872  0.00  0.00    -0.079 HD
BRANCH  19  26
ATOM     26  C   UNL     1      33.957 -13.623 -23.688  0.00  0.00    -0.049 C 
BRANCH  26  29
ATOM     27 CL   UNL     1      33.361 -10.729 -24.432  0.00  0.00    -0.082 Cl
ATOM     28 CL   UNL     1      31.608  -9.108 -22.282  0.00  0.00    -0.081 Cl
ATOM     29  C   UNL     1      33.140 -12.809 -22.720  0.00  0.00    -0.032 C 
ATOM     30  C   UNL     1      32.812 -11.476 -22.967  0.00  0.00    +0.062 C 
ATOM     31  C   UNL     1      32.708 -13.428 -21.547  0.00  0.00    -0.005 C 
ATOM     32  C   UNL     1      32.052 -10.762 -22.040  0.00  0.00    +0.068 C 
ATOM     33  C   UNL     1      31.948 -12.715 -20.621  0.00  0.00    +0.001 C 
ATOM     34  C   UNL     1      31.620 -11.381 -20.868  0.00  0.00    +0.012 C 
ENDBRANCH  26  29
ENDBRANCH  19  26
ENDBRANCH  18  20
ENDBRANCH   1  18
TORSDOF 5
ENDMDL
MODEL 2
REMARK VINA RESULT:     -11.8      2.617      4.535
REMARK  Name = 24978486
REMARK  5 active torsions:
REMARK  status: ('A' for Active; 'I' for Inactive)
REMARK    1  A    between atoms: O_1  and  C_6
REMARK    2  A    between atoms: O_1  and  C_18
REMARK    3  A    between atoms: C_18  and  C_20
REMARK    4  A    between atoms: N_19  and  C_26
REMARK    5  A    between atoms: C_26  and  C_29
REMARK                            x       y       z     vdW  Elec       q    Type
REMARK                         _______ _______ _______ _____ _____    ______ ____
ROOT
ATOM      1  O   UNL     1      35.284 -22.345 -17.955  0.00  0.00    -0.479 OA
ENDROOT
BRANCH   1   6
ATOM      2  N   UNL     1      32.518 -23.811 -14.257  0.00  0.00    -0.332 NA
ATOM      3  N   UNL     1      31.446 -23.298 -16.354  0.00  0.00    -0.317 NA
ATOM      4  N   UNL     1      32.674 -22.584 -18.203  0.00  0.00    -0.335 N 
ATOM      5  N   UNL     1      30.194 -24.015 -14.507  0.00  0.00    -0.283 N 
ATOM      6  C   UNL     1      35.099 -22.765 -16.662  0.00  0.00    +0.130 C 
ATOM      7  C   UNL     1      33.842 -23.081 -16.118  0.00  0.00    +0.177 C 
ATOM      8  C   UNL     1      36.242 -22.868 -15.875  0.00  0.00    +0.033 C 
ATOM      9  C   UNL     1      33.716 -23.505 -14.786  0.00  0.00    +0.137 C 
ATOM     10  C   UNL     1      32.661 -23.000 -16.851  0.00  0.00    +0.181 C 
ATOM     11  C   UNL     1      36.130 -23.285 -14.553  0.00  0.00    +0.005 C 
ATOM     12  C   UNL     1      34.876 -23.599 -14.021  0.00  0.00    +0.030 C 
ATOM     13  C   UNL     1      31.448 -23.691 -15.069  0.00  0.00    +0.197 C 
ATOM     14  H   UNL     1      31.832 -22.531 -18.710  0.00  0.00    +0.144 HD
ATOM     15  H   UNL     1      33.526 -22.350 -18.637  0.00  0.00    +0.144 HD
ATOM     16  H   UNL     1      30.136 -24.309 -13.570  0.00  0.00    +0.156 HD
ATOM     17  H   UNL     1      29.377 -23.947 -15.053  0.00  0.00    +0.156 HD
ENDBRANCH   1   6
BRANCH   1  18
ATOM     18  C   UNL     1      36.490 -21.662 -18.244  0.00  0.00    +0.205 C 
BRANCH  18  20
ATOM     19  N   UNL     1      35.617 -18.598 -21.160  0.00  0.00    +0.390 N 
ATOM     20  C   UNL     1      36.344 -20.968 -19.596  0.00  0.00    +0.040 C 
ATOM     21  C   UNL     1      37.244 -19.731 -19.679  0.00  0.00    -0.019 C 
ATOM     22  C   UNL     1      34.888 -20.568 -19.854  0.00  0.00    -0.019 C 
ATOM     23  C   UNL     1      37.027 -18.973 -20.991  0.00  0.00    -0.077 C 
ATOM     24  C   UNL     1      34.750 -19.783 -21.160  0.00  0.00    -0.077 C 
ATOM     25  H   UNL     1      35.350 -18.012 -20.368  0.00  0.00    -0.079 HD
BRANCH  19  26
ATOM     26  C   UNL     1      35.436 -17.831 -22.392  0.00  0.00    -0.049 C 
BRANCH  26  29
ATOM     27 CL   UNL     1      34.651 -16.118 -24.786  0.00  0.00    -0.082 Cl
ATOM     28 CL   UNL     1      33.618 -13.163 -24.061  0.00  0.00    -0.081 Cl
ATOM     29  C   UNL     1      34.944 -16.435 -22.117  0.00  0.00    -0.032 C 
ATOM     30  C   UNL     1      34.560 -15.571 -23.143  0.00  0.00    +0.062 C 
ATOM     31  C   UNL     1      34.879 -16.013 -20.789  0.00  0.00    -0.005 C 
ATOM     32  C   UNL     1      34.110 -14.285 -22.840  0.00  0.00    +0.068 C 
ATOM     33  C   UNL     1      34.428 -14.729 -20.486  0.00  0.00    +0.001 C 
ATOM     34  C   UNL     1      34.044 -13.865 -21.512  0.00  0.00    +0.012 C 
ENDBRANCH  26  29
ENDBRANCH  19  26
ENDBRANCH  18  20
ENDBRANCH   1  18
TORSDOF 5
ENDMDL
MODEL 3
REMARK VINA RESULT:     -11.5      3.812      6.756
REMARK  Name = 24978486
REMARK  5 active torsions:
REMARK  status: ('A' for Active; 'I' for Inactive)
REMARK    1  A    between atoms: O_1  and  C_6
REMARK    2  A    between atoms: O_1  and  C_18
REMARK    3  A    between atoms: C_18  and  C_20
REMARK    4  A    between atoms: N_19  and  C_26
REMARK    5  A    between atoms: C_26  and  C_29
REMARK                            x       y       z     vdW  Elec       q    Type
REMARK                         _______ _______ _______ _____ _____    ______ ____
ROOT
ATOM      1  O   UNL     1      34.222 -23.560 -16.813  0.00  0.00    -0.479 OA
ENDROOT
BRANCH   1   6
ATOM      2  N   UNL     1      33.905 -24.189 -12.019  0.00  0.00    -0.332 NA
ATOM      3  N   UNL     1      36.067 -24.406 -13.061  0.00  0.00    -0.317 NA
ATOM      4  N   UNL     1      36.342 -24.125 -15.359  0.00  0.00    -0.335 N 
ATOM      5  N   UNL     1      35.813 -24.692 -10.750  0.00  0.00    -0.283 N 
ATOM      6  C   UNL     1      33.523 -23.609 -15.633  0.00  0.00    +0.130 C 
ATOM      7  C   UNL     1      34.116 -23.887 -14.389  0.00  0.00    +0.177 C 
ATOM      8  C   UNL     1      32.155 -23.366 -15.712  0.00  0.00    +0.033 C 
ATOM      9  C   UNL     1      33.348 -23.925 -13.214  0.00  0.00    +0.137 C 
ATOM     10  C   UNL     1      35.477 -24.138 -14.241  0.00  0.00    +0.181 C 
ATOM     11  C   UNL     1      31.384 -23.401 -14.556  0.00  0.00    +0.005 C 
ATOM     12  C   UNL     1      31.982 -23.678 -13.322  0.00  0.00    +0.030 C 
ATOM     13  C   UNL     1      35.234 -24.416 -12.007  0.00  0.00    +0.197 C 
ATOM     14  H   UNL     1      37.303 -24.304 -15.241  0.00  0.00    +0.144 HD
ATOM     15  H   UNL     1      35.983 -23.936 -16.256  0.00  0.00    +0.144 HD
ATOM     16  H   UNL     1      35.249 -24.712  -9.943  0.00  0.00    +0.156 HD
ATOM     17  H   UNL     1      36.780 -24.864 -10.679  0.00  0.00    +0.156 HD
ENDBRANCH   1   6
BRANCH   1  18
ATOM     18  C   UNL     1      33.511 -23.145 -17.965  0.00  0.00    +0.205 C 
BRANCH  18  20
ATOM     19  N   UNL     1      35.302 -20.229 -20.600  0.00  0.00    +0.390 N 
ATOM     20  C   UNL     1      34.105 -21.826 -18.454  0.00  0.00    +0.040 C 
ATOM     21  C   UNL     1      33.277 -21.241 -19.601  0.00  0.00    -0.019 C 
ATOM     22  C   UNL     1      35.558 -22.012 -18.905  0.00  0.00    -0.019 C 
ATOM     23  C   UNL     1      33.924 -19.972 -20.163  0.00  0.00    -0.077 C 
ATOM     24  C   UNL     1      36.128 -20.718 -19.489  0.00  0.00    -0.077 C 
ATOM     25  H   UNL     1      35.275 -20.956 -21.316  0.00  0.00    -0.079 HD
BRANCH  19  26
ATOM     26  C   UNL     1      35.888 -19.021 -21.181  0.00  0.00    -0.049 C 
BRANCH  26  29
ATOM     27 CL   UNL     1      35.286 -16.059 -21.558  0.00  0.00    -0.082 Cl
ATOM     28 CL   UNL     1      33.787 -15.316 -24.302  0.00  0.00    -0.081 Cl
ATOM     29  C   UNL     1      35.186 -18.610 -22.448  0.00  0.00    -0.032 C 
ATOM     30  C   UNL     1      34.865 -17.279 -22.716  0.00  0.00    +0.062 C 
ATOM     31  C   UNL     1      34.855 -19.606 -23.366  0.00  0.00    -0.005 C 
ATOM     32  C   UNL     1      34.214 -16.945 -23.904  0.00  0.00    +0.068 C 
ATOM     33  C   UNL     1      34.205 -19.272 -24.554  0.00  0.00    +0.001 C 
ATOM     34  C   UNL     1      33.884 -17.941 -24.823  0.00  0.00    +0.012 C 
ENDBRANCH  26  29
ENDBRANCH  19  26
ENDBRANCH  18  20
ENDBRANCH   1  18
TORSDOF 5
ENDMDL
MODEL 4
REMARK VINA RESULT:     -11.5      3.479      5.677
REMARK  Name = 24978486
REMARK  5 active torsions:
REMARK  status: ('A' for Active; 'I' for Inactive)
REMARK    1  A    between atoms: O_1  and  C_6
REMARK    2  A    between atoms: O_1  and  C_18
REMARK    3  A    between atoms: C_18  and  C_20
REMARK    4  A    between atoms: N_19  and  C_26
REMARK    5  A    between atoms: C_26  and  C_29
REMARK                            x       y       z     vdW  Elec       q    Type
REMARK                         _______ _______ _______ _____ _____    ______ ____
ROOT
ATOM      1  O   UNL     1      34.883 -22.692 -17.369  0.00  0.00    -0.479 OA
ENDROOT
BRANCH   1   6
ATOM      2  N   UNL     1      35.796 -23.900 -12.767  0.00  0.00    -0.332 NA
ATOM      3  N   UNL     1      37.643 -23.228 -14.161  0.00  0.00    -0.317 NA
ATOM      4  N   UNL     1      37.326 -22.624 -16.391  0.00  0.00    -0.335 N 
ATOM      5  N   UNL     1      37.984 -23.830 -11.923  0.00  0.00    -0.283 N 
ATOM      6  C   UNL     1      34.500 -23.109 -16.119  0.00  0.00    +0.130 C 
ATOM      7  C   UNL     1      35.397 -23.292 -15.052  0.00  0.00    +0.177 C 
ATOM      8  C   UNL     1      33.144 -23.358 -15.937  0.00  0.00    +0.033 C 
ATOM      9  C   UNL     1      34.946 -23.723 -13.794  0.00  0.00    +0.137 C 
ATOM     10  C   UNL     1      36.765 -23.060 -15.168  0.00  0.00    +0.181 C 
ATOM     11  C   UNL     1      32.685 -23.786 -14.696  0.00  0.00    +0.005 C 
ATOM     12  C   UNL     1      33.584 -23.965 -13.640  0.00  0.00    +0.030 C 
ATOM     13  C   UNL     1      37.098 -23.643 -13.006  0.00  0.00    +0.197 C 
ATOM     14  H   UNL     1      38.294 -22.464 -16.459  0.00  0.00    +0.144 HD
ATOM     15  H   UNL     1      36.745 -22.479 -17.173  0.00  0.00    +0.144 HD
ATOM     16  H   UNL     1      37.639 -24.134 -11.052  0.00  0.00    +0.156 HD
ATOM     17  H   UNL     1      38.947 -23.657 -12.037  0.00  0.00    +0.156 HD
ENDBRANCH   1   6
BRANCH   1  18
ATOM     18  C   UNL     1      33.854 -22.469 -18.316  0.00  0.00    +0.205 C 
BRANCH  18  20
ATOM     19  N   UNL     1      35.291 -19.130 -20.648  0.00  0.00    +0.390 N 
ATOM     20  C   UNL     1      34.433 -21.681 -19.488  0.00  0.00    +0.040 C 
ATOM     21  C   UNL     1      35.750 -21.004 -19.099  0.00  0.00    -0.019 C 
ATOM     22  C   UNL     1      33.438 -20.630 -19.990  0.00  0.00    -0.019 C 
ATOM     23  C   UNL     1      36.284 -20.131 -20.237  0.00  0.00    -0.077 C 
ATOM     24  C   UNL     1      34.048 -19.770 -21.098  0.00  0.00    -0.077 C 
ATOM     25  H   UNL     1      35.072 -18.552 -19.836  0.00  0.00    -0.079 HD
BRANCH  19  26
ATOM     26  C   UNL     1      35.835 -18.272 -21.700  0.00  0.00    -0.049 C 
BRANCH  26  29
ATOM     27 CL   UNL     1      34.960 -17.096 -24.371  0.00  0.00    -0.082 Cl
ATOM     28 CL   UNL     1      33.643 -14.171 -24.200  0.00  0.00    -0.081 Cl
ATOM     29  C   UNL     1      35.211 -16.902 -21.686  0.00  0.00    -0.032 C 
ATOM     30  C   UNL     1      34.777 -16.275 -22.854  0.00  0.00    +0.062 C 
ATOM     31  C   UNL     1      35.072 -16.258 -20.457  0.00  0.00    -0.005 C 
ATOM     32  C   UNL     1      34.203 -15.005 -22.793  0.00  0.00    +0.068 C 
ATOM     33  C   UNL     1      34.498 -14.988 -20.395  0.00  0.00    +0.001 C 
ATOM     34  C   UNL     1      34.064 -14.362 -21.563  0.00  0.00    +0.012 C 
ENDBRANCH  26  29
ENDBRANCH  19  26
ENDBRANCH  18  20
ENDBRANCH   1  18
TORSDOF 5
ENDMDL
MODEL 5
REMARK VINA RESULT:     -11.4      4.457     10.058
REMARK  Name = 24978486
REMARK  5 active torsions:
REMARK  status: ('A' for Active; 'I' for Inactive)
REMARK    1  A    between atoms: O_1  and  C_6
REMARK    2  A    between atoms: O_1  and  C_18
REMARK    3  A    between atoms: C_18  and  C_20
REMARK    4  A    between atoms: N_19  and  C_26
REMARK    5  A    between atoms: C_26  and  C_29
REMARK                            x       y       z     vdW  Elec       q    Type
REMARK                         _______ _______ _______ _____ _____    ______ ____
ROOT
ATOM      1  O   UNL     1      34.082 -12.821 -23.320  0.00  0.00    -0.479 OA
ENDROOT
BRANCH   1   6
ATOM      2  N   UNL     1      31.979  -8.547 -22.430  0.00  0.00    -0.332 NA
ATOM      3  N   UNL     1      33.808  -8.618 -23.998  0.00  0.00    -0.317 NA
ATOM      4  N   UNL     1      34.896 -10.616 -24.506  0.00  0.00    -0.335 N 
ATOM      5  N   UNL     1      32.727  -6.599 -23.502  0.00  0.00    -0.283 N 
ATOM      6  C   UNL     1      33.156 -12.024 -22.695  0.00  0.00    +0.130 C 
ATOM      7  C   UNL     1      33.053 -10.638 -22.906  0.00  0.00    +0.177 C 
ATOM      8  C   UNL     1      32.291 -12.657 -21.809  0.00  0.00    +0.033 C 
ATOM      9  C   UNL     1      32.085  -9.873 -22.235  0.00  0.00    +0.137 C 
ATOM     10  C   UNL     1      33.887  -9.943 -23.779  0.00  0.00    +0.181 C 
ATOM     11  C   UNL     1      31.328 -11.912 -21.137  0.00  0.00    +0.005 C 
ATOM     12  C   UNL     1      31.233 -10.533 -21.354  0.00  0.00    +0.030 C 
ATOM     13  C   UNL     1      32.845  -7.991 -23.301  0.00  0.00    +0.197 C 
ATOM     14  H   UNL     1      35.479 -10.114 -25.120  0.00  0.00    +0.144 HD
ATOM     15  H   UNL     1      35.015 -11.587 -24.398  0.00  0.00    +0.144 HD
ATOM     16  H   UNL     1      32.039  -6.089 -23.017  0.00  0.00    +0.156 HD
ATOM     17  H   UNL     1      33.332  -6.138 -24.127  0.00  0.00    +0.156 HD
ENDBRANCH   1   6
BRANCH   1  18
ATOM     18  C   UNL     1      33.597 -13.982 -23.968  0.00  0.00    +0.205 C 
BRANCH  18  20
ATOM     19  N   UNL     1      34.843 -17.801 -22.381  0.00  0.00    +0.390 N 
ATOM     20  C   UNL     1      34.499 -15.157 -23.599  0.00  0.00    +0.040 C 
ATOM     21  C   UNL     1      34.035 -16.445 -24.286  0.00  0.00    -0.019 C 
ATOM     22  C   UNL     1      34.538 -15.365 -22.082  0.00  0.00    -0.019 C 
ATOM     23  C   UNL     1      34.873 -17.646 -23.842  0.00  0.00    -0.077 C 
ATOM     24  C   UNL     1      35.359 -16.601 -21.710  0.00  0.00    -0.077 C 
ATOM     25  H   UNL     1      33.871 -17.927 -22.098  0.00  0.00    -0.079 HD
BRANCH  19  26
ATOM     26  C   UNL     1      35.606 -18.982 -21.977  0.00  0.00    -0.049 C 
BRANCH  26  29
ATOM     27 CL   UNL     1      37.206 -20.397 -19.805  0.00  0.00    -0.082 Cl
ATOM     28 CL   UNL     1      35.463 -22.177 -17.776  0.00  0.00    -0.081 Cl
ATOM     29  C   UNL     1      34.845 -19.832 -20.994  0.00  0.00    -0.032 C 
ATOM     30  C   UNL     1      35.484 -20.521 -19.963  0.00  0.00    +0.062 C 
ATOM     31  C   UNL     1      33.460 -19.919 -21.139  0.00  0.00    -0.005 C 
ATOM     32  C   UNL     1      34.737 -21.297 -19.076  0.00  0.00    +0.068 C 
ATOM     33  C   UNL     1      32.714 -20.694 -20.252  0.00  0.00    +0.001 C 
ATOM     34  C   UNL     1      33.352 -21.384 -19.220  0.00  0.00    +0.012 C 
ENDBRANCH  26  29
ENDBRANCH  19  26
ENDBRANCH  18  20
ENDBRANCH   1  18
TORSDOF 5
ENDMDL
MODEL 6
REMARK VINA RESULT:     -11.2      4.361      9.641
REMARK  Name = 24978486
REMARK  5 active torsions:
REMARK  status: ('A' for Active; 'I' for Inactive)
REMARK    1  A    between atoms: O_1  and  C_6
REMARK    2  A    between atoms: O_1  and  C_18
REMARK    3  A    between atoms: C_18  and  C_20
REMARK    4  A    between atoms: N_19  and  C_26
REMARK    5  A    between atoms: C_26  and  C_29
REMARK                            x       y       z     vdW  Elec       q    Type
REMARK                         _______ _______ _______ _____ _____    ______ ____
ROOT
ATOM      1  O   UNL     1      33.074 -13.452 -23.549  0.00  0.00    -0.479 OA
ENDROOT
BRANCH   1   6
ATOM      2  N   UNL     1      33.007  -8.739 -22.427  0.00  0.00    -0.332 NA
ATOM      3  N   UNL     1      31.746 -10.262 -21.048  0.00  0.00    -0.317 NA
ATOM      4  N   UNL     1      31.703 -12.551 -21.490  0.00  0.00    -0.335 N 
ATOM      5  N   UNL     1      31.776  -7.965 -20.586  0.00  0.00    -0.283 N 
ATOM      6  C   UNL     1      33.437 -12.145 -23.753  0.00  0.00    +0.130 C 
ATOM      7  C   UNL     1      33.008 -11.082 -22.939  0.00  0.00    +0.177 C 
ATOM      8  C   UNL     1      34.275 -11.896 -24.835  0.00  0.00    +0.033 C 
ATOM      9  C   UNL     1      33.412  -9.763 -23.199  0.00  0.00    +0.137 C 
ATOM     10  C   UNL     1      32.170 -11.263 -21.842  0.00  0.00    +0.181 C 
ATOM     11  C   UNL     1      34.682 -10.594 -25.104  0.00  0.00    +0.005 C 
ATOM     12  C   UNL     1      34.250  -9.543 -24.289  0.00  0.00    +0.030 C 
ATOM     13  C   UNL     1      32.196  -9.044 -21.393  0.00  0.00    +0.197 C 
ATOM     14  H   UNL     1      31.112 -12.665 -20.712  0.00  0.00    +0.144 HD
ATOM     15  H   UNL     1      31.972 -13.333 -22.025  0.00  0.00    +0.144 HD
ATOM     16  H   UNL     1      32.075  -7.050 -20.793  0.00  0.00    +0.156 HD
ATOM     17  H   UNL     1      31.184  -8.127 -19.816  0.00  0.00    +0.156 HD
ENDBRANCH   1   6
BRANCH   1  18
ATOM     18  C   UNL     1      33.355 -14.368 -24.592  0.00  0.00    +0.205 C 
BRANCH  18  20
ATOM     19  N   UNL     1      34.859 -17.799 -22.441  0.00  0.00    +0.390 N 
ATOM     20  C   UNL     1      34.332 -15.418 -24.067  0.00  0.00    +0.040 C 
ATOM     21  C   UNL     1      33.921 -16.824 -24.513  0.00  0.00    -0.019 C 
ATOM     22  C   UNL     1      34.427 -15.365 -22.539  0.00  0.00    -0.019 C 
ATOM     23  C   UNL     1      34.838 -17.890 -23.907  0.00  0.00    -0.077 C 
ATOM     24  C   UNL     1      35.327 -16.478 -21.999  0.00  0.00    -0.077 C 
ATOM     25  H   UNL     1      33.905 -17.924 -22.103  0.00  0.00    -0.079 HD
BRANCH  19  26
ATOM     26  C   UNL     1      35.698 -18.855 -21.876  0.00  0.00    -0.049 C 
BRANCH  26  29
ATOM     27 CL   UNL     1      37.268 -20.361 -19.743  0.00  0.00    -0.082 Cl
ATOM     28 CL   UNL     1      35.497 -22.229 -17.820  0.00  0.00    -0.081 Cl
ATOM     29  C   UNL     1      34.924 -19.748 -20.943  0.00  0.00    -0.032 C 
ATOM     30  C   UNL     1      35.548 -20.481 -19.933  0.00  0.00    +0.062 C 
ATOM     31  C   UNL     1      33.542 -19.831 -21.112  0.00  0.00    -0.005 C 
ATOM     32  C   UNL     1      34.789 -21.295 -19.092  0.00  0.00    +0.068 C 
ATOM     33  C   UNL     1      32.784 -20.645 -20.271  0.00  0.00    +0.001 C 
ATOM     34  C   UNL     1      33.408 -21.377 -19.261  0.00  0.00    +0.012 C 
ENDBRANCH  26  29
ENDBRANCH  19  26
ENDBRANCH  18  20
ENDBRANCH   1  18
TORSDOF 5
ENDMDL
MODEL 7
REMARK VINA RESULT:     -11.1      4.560      9.645
REMARK  Name = 24978486
REMARK  5 active torsions:
REMARK  status: ('A' for Active; 'I' for Inactive)
REMARK    1  A    between atoms: O_1  and  C_6
REMARK    2  A    between atoms: O_1  and  C_18
REMARK    3  A    between atoms: C_18  and  C_20
REMARK    4  A    between atoms: N_19  and  C_26
REMARK    5  A    between atoms: C_26  and  C_29
REMARK                            x       y       z     vdW  Elec       q    Type
REMARK                         _______ _______ _______ _____ _____    ______ ____
ROOT
ATOM      1  O   UNL     1      35.267 -18.040 -22.067  0.00  0.00    -0.479 OA
ENDROOT
BRANCH   1   6
ATOM      2  N   UNL     1      33.666 -13.727 -23.590  0.00  0.00    -0.332 NA
ATOM      3  N   UNL     1      33.928 -15.489 -25.213  0.00  0.00    -0.317 NA
ATOM      4  N   UNL     1      34.690 -17.605 -24.598  0.00  0.00    -0.335 N 
ATOM      5  N   UNL     1      33.160 -13.369 -25.852  0.00  0.00    -0.283 N 
ATOM      6  C   UNL     1      34.897 -16.734 -21.861  0.00  0.00    +0.130 C 
ATOM      7  C   UNL     1      34.455 -15.880 -22.887  0.00  0.00    +0.177 C 
ATOM      8  C   UNL     1      34.979 -16.265 -20.554  0.00  0.00    +0.033 C 
ATOM      9  C   UNL     1      34.091 -14.552 -22.616  0.00  0.00    +0.137 C 
ATOM     10  C   UNL     1      34.349 -16.287 -24.214  0.00  0.00    +0.181 C 
ATOM     11  C   UNL     1      34.623 -14.951 -20.273  0.00  0.00    +0.005 C 
ATOM     12  C   UNL     1      34.183 -14.109 -21.299  0.00  0.00    +0.030 C 
ATOM     13  C   UNL     1      33.608 -14.240 -24.835  0.00  0.00    +0.197 C 
ATOM     14  H   UNL     1      34.611 -17.880 -25.540  0.00  0.00    +0.144 HD
ATOM     15  H   UNL     1      35.006 -18.247 -23.922  0.00  0.00    +0.144 HD
ATOM     16  H   UNL     1      32.912 -12.443 -25.632  0.00  0.00    +0.156 HD
ATOM     17  H   UNL     1      33.096 -13.689 -26.782  0.00  0.00    +0.156 HD
ENDBRANCH   1   6
BRANCH   1  18
ATOM     18  C   UNL     1      36.031 -18.660 -21.049  0.00  0.00    +0.205 C 
BRANCH  18  20
ATOM     19  N   UNL     1      34.063 -21.707 -18.704  0.00  0.00    +0.390 N 
ATOM     20  C   UNL     1      35.371 -19.987 -20.685  0.00  0.00    +0.040 C 
ATOM     21  C   UNL     1      33.918 -19.778 -20.247  0.00  0.00    -0.019 C 
ATOM     22  C   UNL     1      36.149 -20.703 -19.576  0.00  0.00    -0.019 C 
ATOM     23  C   UNL     1      33.282 -21.091 -19.785  0.00  0.00    -0.077 C 
ATOM     24  C   UNL     1      35.439 -21.985 -19.137  0.00  0.00    -0.077 C 
ATOM     25  H   UNL     1      34.104 -21.045 -17.929  0.00  0.00    -0.079 HD
BRANCH  19  26
ATOM     26  C   UNL     1      33.415 -22.933 -18.239  0.00  0.00    -0.049 C 
BRANCH  26  29
ATOM     27 CL   UNL     1      30.917 -22.898 -16.496  0.00  0.00    -0.082 Cl
ATOM     28 CL   UNL     1      31.445 -23.347 -13.358  0.00  0.00    -0.081 Cl
ATOM     29  C   UNL     1      33.597 -23.137 -16.759  0.00  0.00    -0.032 C 
ATOM     30  C   UNL     1      32.518 -23.139 -15.875  0.00  0.00    +0.062 C 
ATOM     31  C   UNL     1      34.892 -23.329 -16.279  0.00  0.00    -0.005 C 
ATOM     32  C   UNL     1      32.735 -23.333 -14.510  0.00  0.00    +0.068 C 
ATOM     33  C   UNL     1      35.109 -23.524 -14.915  0.00  0.00    +0.001 C 
ATOM     34  C   UNL     1      34.030 -23.526 -14.031  0.00  0.00    +0.012 C 
ENDBRANCH  26  29
ENDBRANCH  19  26
ENDBRANCH  18  20
ENDBRANCH   1  18
TORSDOF 5
ENDMDL
MODEL 8
REMARK VINA RESULT:     -11.0      1.235      2.195
REMARK  Name = 24978486
REMARK  5 active torsions:
REMARK  status: ('A' for Active; 'I' for Inactive)
REMARK    1  A    between atoms: O_1  and  C_6
REMARK    2  A    between atoms: O_1  and  C_18
REMARK    3  A    between atoms: C_18  and  C_20
REMARK    4  A    between atoms: N_19  and  C_26
REMARK    5  A    between atoms: C_26  and  C_29
REMARK                            x       y       z     vdW  Elec       q    Type
REMARK                         _______ _______ _______ _____ _____    ______ ____
ROOT
ATOM      1  O   UNL     1      35.341 -19.100 -21.443  0.00  0.00    -0.479 OA
ENDROOT
BRANCH   1   6
ATOM      2  N   UNL     1      35.114 -22.225 -17.747  0.00  0.00    -0.332 NA
ATOM      3  N   UNL     1      37.221 -21.152 -18.211  0.00  0.00    -0.317 NA
ATOM      4  N   UNL     1      37.451 -19.630 -19.962  0.00  0.00    -0.335 N 
ATOM      5  N   UNL     1      37.012 -22.678 -16.445  0.00  0.00    -0.283 N 
ATOM      6  C   UNL     1      34.674 -19.984 -20.633  0.00  0.00    +0.130 C 
ATOM      7  C   UNL     1      35.279 -20.669 -19.565  0.00  0.00    +0.177 C 
ATOM      8  C   UNL     1      33.328 -20.190 -20.917  0.00  0.00    +0.033 C 
ATOM      9  C   UNL     1      34.545 -21.565 -18.772  0.00  0.00    +0.137 C 
ATOM     10  C   UNL     1      36.620 -20.508 -19.228  0.00  0.00    +0.181 C 
ATOM     11  C   UNL     1      32.589 -21.075 -20.139  0.00  0.00    +0.005 C 
ATOM     12  C   UNL     1      33.199 -21.752 -19.078  0.00  0.00    +0.030 C 
ATOM     13  C   UNL     1      36.421 -21.983 -17.522  0.00  0.00    +0.197 C 
ATOM     14  H   UNL     1      38.398 -19.525 -19.714  0.00  0.00    +0.144 HD
ATOM     15  H   UNL     1      37.082 -19.123 -20.721  0.00  0.00    +0.144 HD
ATOM     16  H   UNL     1      36.472 -23.300 -15.906  0.00  0.00    +0.156 HD
ATOM     17  H   UNL     1      37.964 -22.540 -16.232  0.00  0.00    +0.156 HD
ENDBRANCH   1   6
BRANCH   1  18
ATOM     18  C   UNL     1      34.910 -19.009 -22.789  0.00  0.00    +0.205 C 
BRANCH  18  20
ATOM     19  N   UNL     1      33.841 -14.867 -23.387  0.00  0.00    +0.390 N 
ATOM     20  C   UNL     1      35.007 -17.552 -23.233  0.00  0.00    +0.040 C 
ATOM     21  C   UNL     1      34.965 -16.605 -22.030  0.00  0.00    -0.019 C 
ATOM     22  C   UNL     1      33.882 -17.199 -24.211  0.00  0.00    -0.019 C 
ATOM     23  C   UNL     1      34.960 -15.140 -22.475  0.00  0.00    -0.077 C 
ATOM     24  C   UNL     1      33.914 -15.715 -24.584  0.00  0.00    -0.077 C 
ATOM     25  H   UNL     1      32.974 -15.087 -22.897  0.00  0.00    -0.079 HD
BRANCH  19  26
ATOM     26  C   UNL     1      33.821 -13.453 -23.762  0.00  0.00    -0.049 C 
BRANCH  26  29
ATOM     27 CL   UNL     1      33.425 -10.503 -24.412  0.00  0.00    -0.082 Cl
ATOM     28 CL   UNL     1      31.743  -8.847 -22.232  0.00  0.00    -0.081 Cl
ATOM     29  C   UNL     1      33.041 -12.623 -22.778  0.00  0.00    -0.032 C 
ATOM     30  C   UNL     1      32.804 -11.263 -22.982  0.00  0.00    +0.062 C 
ATOM     31  C   UNL     1      32.550 -13.252 -21.634  0.00  0.00    -0.005 C 
ATOM     32  C   UNL     1      32.075 -10.534 -22.042  0.00  0.00    +0.068 C 
ATOM     33  C   UNL     1      31.821 -12.523 -20.694  0.00  0.00    +0.001 C 
ATOM     34  C   UNL     1      31.584 -11.164 -20.899  0.00  0.00    +0.012 C 
ENDBRANCH  26  29
ENDBRANCH  19  26
ENDBRANCH  18  20
ENDBRANCH   1  18
TORSDOF 5
ENDMDL
MODEL 9
REMARK VINA RESULT:     -10.9      3.735      6.085
REMARK  Name = 24978486
REMARK  5 active torsions:
REMARK  status: ('A' for Active; 'I' for Inactive)
REMARK    1  A    between atoms: O_1  and  C_6
REMARK    2  A    between atoms: O_1  and  C_18
REMARK    3  A    between atoms: C_18  and  C_20
REMARK    4  A    between atoms: N_19  and  C_26
REMARK    5  A    between atoms: C_26  and  C_29
REMARK                            x       y       z     vdW  Elec       q    Type
REMARK                         _______ _______ _______ _____ _____    ______ ____
ROOT
ATOM      1  O   UNL     1      33.543 -22.459 -17.223  0.00  0.00    -0.479 OA
ENDROOT
BRANCH   1   6
ATOM      2  N   UNL     1      32.515 -24.685 -13.044  0.00  0.00    -0.332 NA
ATOM      3  N   UNL     1      30.686 -23.993 -14.452  0.00  0.00    -0.317 NA
ATOM      4  N   UNL     1      31.058 -22.914 -16.485  0.00  0.00    -0.335 N 
ATOM      5  N   UNL     1      30.289 -25.077 -12.413  0.00  0.00    -0.283 N 
ATOM      6  C   UNL     1      33.900 -23.070 -16.047  0.00  0.00    +0.130 C 
ATOM      7  C   UNL     1      32.970 -23.580 -15.123  0.00  0.00    +0.177 C 
ATOM      8  C   UNL     1      35.263 -23.170 -15.788  0.00  0.00    +0.033 C 
ATOM      9  C   UNL     1      33.395 -24.194 -13.934  0.00  0.00    +0.137 C 
ATOM     10  C   UNL     1      31.594 -23.513 -15.321  0.00  0.00    +0.181 C 
ATOM     11  C   UNL     1      35.696 -23.775 -14.614  0.00  0.00    +0.005 C 
ATOM     12  C   UNL     1      34.765 -24.280 -13.700  0.00  0.00    +0.030 C 
ATOM     13  C   UNL     1      31.208 -24.558 -13.351  0.00  0.00    +0.197 C 
ATOM     14  H   UNL     1      30.083 -22.873 -16.613  0.00  0.00    +0.144 HD
ATOM     15  H   UNL     1      31.661 -22.540 -17.168  0.00  0.00    +0.144 HD
ATOM     16  H   UNL     1      30.617 -25.502 -11.587  0.00  0.00    +0.156 HD
ATOM     17  H   UNL     1      29.322 -25.014 -12.583  0.00  0.00    +0.156 HD
ENDBRANCH   1   6
BRANCH   1  18
ATOM     18  C   UNL     1      33.817 -23.162 -18.421  0.00  0.00    +0.205 C 
BRANCH  18  20
ATOM     19  N   UNL     1      35.521 -19.538 -20.039  0.00  0.00    +0.390 N 
ATOM     20  C   UNL     1      34.452 -22.196 -19.417  0.00  0.00    +0.040 C 
ATOM     21  C   UNL     1      35.828 -21.729 -18.931  0.00  0.00    -0.019 C 
ATOM     22  C   UNL     1      33.549 -20.982 -19.659  0.00  0.00    -0.019 C 
ATOM     23  C   UNL     1      36.426 -20.683 -19.876  0.00  0.00    -0.077 C 
ATOM     24  C   UNL     1      34.222 -19.962 -20.579  0.00  0.00    -0.077 C 
ATOM     25  H   UNL     1      35.361 -19.128 -19.118  0.00  0.00    -0.079 HD
BRANCH  19  26
ATOM     26  C   UNL     1      36.128 -18.525 -20.902  0.00  0.00    -0.049 C 
BRANCH  26  29
ATOM     27 CL   UNL     1      35.189 -15.741 -21.707  0.00  0.00    -0.082 Cl
ATOM     28 CL   UNL     1      33.640 -15.591 -24.518  0.00  0.00    -0.081 Cl
ATOM     29  C   UNL     1      35.395 -18.389 -22.210  0.00  0.00    -0.032 C 
ATOM     30  C   UNL     1      34.924 -17.159 -22.669  0.00  0.00    +0.062 C 
ATOM     31  C   UNL     1      35.191 -19.541 -22.969  0.00  0.00    -0.005 C 
ATOM     32  C   UNL     1      34.249 -17.082 -23.889  0.00  0.00    +0.068 C 
ATOM     33  C   UNL     1      34.518 -19.464 -24.188  0.00  0.00    +0.001 C 
ATOM     34  C   UNL     1      34.047 -18.234 -24.648  0.00  0.00    +0.012 C 
ENDBRANCH  26  29
ENDBRANCH  19  26
ENDBRANCH  18  20
ENDBRANCH   1  18
TORSDOF 5
ENDMDL
