MODEL 1
REMARK VINA RESULT:     -11.4      0.000      0.000
REMARK  Name = 10361208
REMARK  3 active torsions:
REMARK  status: ('A' for Active; 'I' for Inactive)
REMARK    1  A    between atoms: N_1  and  C_12
REMARK    2  A    between atoms: C_10  and  C_18
REMARK    3  A    between atoms: C_21  and  C_27
REMARK                            x       y       z     vdW  Elec       q    Type
REMARK                         _______ _______ _______ _____ _____    ______ ____
ROOT
ATOM      1  N   UNL     1      35.030 -24.720 -13.638  0.00  0.00    -0.318 N 
ATOM      2  N   UNL     1      34.132 -23.617 -15.443  0.00  0.00    -0.147 NA
ATOM      3  N   UNL     1      32.984 -23.255 -16.069  0.00  0.00    -0.190 N 
ATOM      4  N   UNL     1      30.858 -23.006 -16.553  0.00  0.00    -0.127 NA
ATOM      5  N   UNL     1      31.605 -22.378 -17.529  0.00  0.00    -0.127 NA
ATOM      6  C   UNL     1      33.961 -24.309 -14.340  0.00  0.00    +0.149 C 
ATOM      7  C   UNL     1      32.596 -24.668 -13.815  0.00  0.00    +0.039 C 
ATOM      8  C   UNL     1      31.695 -23.527 -15.682  0.00  0.00    +0.187 A 
ATOM      9  C   UNL     1      31.518 -24.269 -14.499  0.00  0.00    +0.044 C 
ATOM     10  C   UNL     1      32.873 -22.539 -17.225  0.00  0.00    +0.187 A 
ATOM     11  H   UNL     1      34.881 -25.251 -12.822  0.00  0.00    +0.148 HD
ENDROOT
BRANCH   1  12
ATOM     12  C   UNL     1      36.393 -24.417 -14.031  0.00  0.00    +0.070 C 
ATOM     13  C   UNL     1      37.124 -23.709 -12.887  0.00  0.00    +0.020 C 
ATOM     14  C   UNL     1      37.116 -25.701 -14.453  0.00  0.00    +0.020 C 
ATOM     15  C   UNL     1      37.427 -24.640 -11.712  0.00  0.00    +0.002 C 
ATOM     16  C   UNL     1      37.418 -26.624 -13.272  0.00  0.00    +0.002 C 
ATOM     17  C   UNL     1      38.169 -25.894 -12.163  0.00  0.00    +0.000 C 
ENDBRANCH   1  12
BRANCH  10  18
ATOM     18  C   UNL     1      33.999 -22.041 -17.977  0.00  0.00    +0.038 C 
ATOM     19  C   UNL     1      33.790 -21.238 -19.098  0.00  0.00    +0.007 C 
ATOM     20  C   UNL     1      35.297 -22.365 -17.584  0.00  0.00    +0.003 C 
ATOM     21  C   UNL     1      34.879 -20.758 -19.825  0.00  0.00    +0.072 C 
ATOM     22  C   UNL     1      36.387 -21.886 -18.311  0.00  0.00    +0.000 C 
ATOM     23  C   UNL     1      36.177 -21.082 -19.432  0.00  0.00    +0.004 C 
BRANCH  21  27
ATOM     24  F   UNL     1      35.449 -20.224 -22.086  0.00  0.00    -0.166 F 
ATOM     25  F   UNL     1      33.379 -19.947 -21.502  0.00  0.00    -0.166 F 
ATOM     26  F   UNL     1      34.903 -18.578 -20.774  0.00  0.00    -0.166 F 
ATOM     27  C   UNL     1      34.657 -19.898 -21.023  0.00  0.00    +0.419 C 
ENDBRANCH  21  27
ENDBRANCH  10  18
TORSDOF 3
ENDMDL
MODEL 2
REMARK VINA RESULT:     -11.0      3.293      5.332
REMARK  Name = 10361208
REMARK  3 active torsions:
REMARK  status: ('A' for Active; 'I' for Inactive)
REMARK    1  A    between atoms: N_1  and  C_12
REMARK    2  A    between atoms: C_10  and  C_18
REMARK    3  A    between atoms: C_21  and  C_27
REMARK                            x       y       z     vdW  Elec       q    Type
REMARK                         _______ _______ _______ _____ _____    ______ ____
ROOT
ATOM      1  N   UNL     1      36.873 -22.991 -14.225  0.00  0.00    -0.318 N 
ATOM      2  N   UNL     1      34.935 -22.946 -15.458  0.00  0.00    -0.147 NA
ATOM      3  N   UNL     1      34.392 -22.672 -16.671  0.00  0.00    -0.190 N 
ATOM      4  N   UNL     1      34.165 -22.077 -18.772  0.00  0.00    -0.127 NA
ATOM      5  N   UNL     1      32.925 -22.434 -18.282  0.00  0.00    -0.127 NA
ATOM      6  C   UNL     1      36.231 -22.751 -15.380  0.00  0.00    +0.149 C 
ATOM      7  C   UNL     1      37.046 -22.263 -16.548  0.00  0.00    +0.039 C 
ATOM      8  C   UNL     1      35.038 -22.224 -17.798  0.00  0.00    +0.187 A 
ATOM      9  C   UNL     1      36.427 -22.017 -17.708  0.00  0.00    +0.044 C 
ATOM     10  C   UNL     1      33.080 -22.786 -17.025  0.00  0.00    +0.187 A 
ATOM     11  H   UNL     1      37.843 -22.823 -14.182  0.00  0.00    +0.148 HD
ENDROOT
BRANCH   1  12
ATOM     12  C   UNL     1      36.200 -23.484 -13.038  0.00  0.00    +0.070 C 
ATOM     13  C   UNL     1      35.828 -24.959 -13.220  0.00  0.00    +0.020 C 
ATOM     14  C   UNL     1      37.086 -23.274 -11.806  0.00  0.00    +0.020 C 
ATOM     15  C   UNL     1      37.046 -25.883 -13.192  0.00  0.00    +0.002 C 
ATOM     16  C   UNL     1      38.299 -24.205 -11.784  0.00  0.00    +0.002 C 
ATOM     17  C   UNL     1      37.890 -25.666 -11.941  0.00  0.00    +0.000 C 
ENDBRANCH   1  12
BRANCH  10  18
ATOM     18  C   UNL     1      32.038 -23.232 -16.131  0.00  0.00    +0.038 C 
ATOM     19  C   UNL     1      30.699 -23.091 -16.495  0.00  0.00    +0.007 C 
ATOM     20  C   UNL     1      32.372 -23.802 -14.903  0.00  0.00    +0.003 C 
ATOM     21  C   UNL     1      29.694 -23.522 -15.630  0.00  0.00    +0.072 C 
ATOM     22  C   UNL     1      31.367 -24.232 -14.037  0.00  0.00    +0.000 C 
ATOM     23  C   UNL     1      30.027 -24.092 -14.401  0.00  0.00    +0.004 C 
BRANCH  21  27
ATOM     24  F   UNL     1      27.431 -23.125 -14.962  0.00  0.00    -0.166 F 
ATOM     25  F   UNL     1      28.035 -22.355 -16.898  0.00  0.00    -0.166 F 
ATOM     26  F   UNL     1      27.762 -24.494 -16.619  0.00  0.00    -0.166 F 
ATOM     27  C   UNL     1      28.261 -23.374 -16.018  0.00  0.00    +0.419 C 
ENDBRANCH  21  27
ENDBRANCH  10  18
TORSDOF 3
ENDMDL
MODEL 3
REMARK VINA RESULT:     -10.8      2.053      2.624
REMARK  Name = 10361208
REMARK  3 active torsions:
REMARK  status: ('A' for Active; 'I' for Inactive)
REMARK    1  A    between atoms: N_1  and  C_12
REMARK    2  A    between atoms: C_10  and  C_18
REMARK    3  A    between atoms: C_21  and  C_27
REMARK                            x       y       z     vdW  Elec       q    Type
REMARK                         _______ _______ _______ _____ _____    ______ ____
ROOT
ATOM      1  N   UNL     1      34.550 -25.013 -13.175  0.00  0.00    -0.318 N 
ATOM      2  N   UNL     1      33.469 -23.960 -14.908  0.00  0.00    -0.147 NA
ATOM      3  N   UNL     1      32.261 -23.642 -15.439  0.00  0.00    -0.190 N 
ATOM      4  N   UNL     1      30.095 -23.466 -15.745  0.00  0.00    -0.127 NA
ATOM      5  N   UNL     1      30.737 -22.826 -16.786  0.00  0.00    -0.127 NA
ATOM      6  C   UNL     1      33.413 -24.644 -13.788  0.00  0.00    +0.149 C 
ATOM      7  C   UNL     1      32.109 -25.040 -13.148  0.00  0.00    +0.039 C 
ATOM      8  C   UNL     1      31.018 -23.950 -14.942  0.00  0.00    +0.187 A 
ATOM      9  C   UNL     1      30.965 -24.683 -13.742  0.00  0.00    +0.044 C 
ATOM     10  C   UNL     1      32.031 -22.943 -16.587  0.00  0.00    +0.187 A 
ATOM     11  H   UNL     1      34.487 -25.539 -12.345  0.00  0.00    +0.148 HD
ENDROOT
BRANCH   1  12
ATOM     12  C   UNL     1      35.865 -24.672 -13.684  0.00  0.00    +0.070 C 
ATOM     13  C   UNL     1      36.344 -23.356 -13.061  0.00  0.00    +0.020 C 
ATOM     14  C   UNL     1      36.847 -25.815 -13.410  0.00  0.00    +0.020 C 
ATOM     15  C   UNL     1      36.702 -23.498 -11.581  0.00  0.00    +0.002 C 
ATOM     16  C   UNL     1      37.202 -25.948 -11.928  0.00  0.00    +0.002 C 
ATOM     17  C   UNL     1      37.700 -24.627 -11.348  0.00  0.00    +0.000 C 
ENDBRANCH   1  12
BRANCH  10  18
ATOM     18  C   UNL     1      33.073 -22.419 -17.436  0.00  0.00    +0.038 C 
ATOM     19  C   UNL     1      34.400 -22.439 -17.006  0.00  0.00    +0.007 C 
ATOM     20  C   UNL     1      32.752 -21.891 -18.686  0.00  0.00    +0.003 C 
ATOM     21  C   UNL     1      35.406 -21.931 -17.827  0.00  0.00    +0.072 C 
ATOM     22  C   UNL     1      33.759 -21.382 -19.508  0.00  0.00    +0.000 C 
ATOM     23  C   UNL     1      35.087 -21.403 -19.078  0.00  0.00    +0.004 C 
BRANCH  21  27
ATOM     24  F   UNL     1      37.229 -20.789 -16.782  0.00  0.00    -0.166 F 
ATOM     25  F   UNL     1      37.088 -22.928 -16.450  0.00  0.00    -0.166 F 
ATOM     26  F   UNL     1      37.703 -22.171 -18.393  0.00  0.00    -0.166 F 
ATOM     27  C   UNL     1      36.826 -21.954 -17.370  0.00  0.00    +0.419 C 
ENDBRANCH  21  27
ENDBRANCH  10  18
TORSDOF 3
ENDMDL
MODEL 4
REMARK VINA RESULT:     -10.5      3.805      5.679
REMARK  Name = 10361208
REMARK  3 active torsions:
REMARK  status: ('A' for Active; 'I' for Inactive)
REMARK    1  A    between atoms: N_1  and  C_12
REMARK    2  A    between atoms: C_10  and  C_18
REMARK    3  A    between atoms: C_21  and  C_27
REMARK                            x       y       z     vdW  Elec       q    Type
REMARK                         _______ _______ _______ _____ _____    ______ ____
ROOT
ATOM      1  N   UNL     1      36.766 -23.055 -14.593  0.00  0.00    -0.318 N 
ATOM      2  N   UNL     1      34.832 -22.855 -15.816  0.00  0.00    -0.147 NA
ATOM      3  N   UNL     1      34.304 -22.510 -17.017  0.00  0.00    -0.190 N 
ATOM      4  N   UNL     1      34.107 -21.835 -19.096  0.00  0.00    -0.127 NA
ATOM      5  N   UNL     1      32.850 -22.133 -18.613  0.00  0.00    -0.127 NA
ATOM      6  C   UNL     1      36.137 -22.741 -15.737  0.00  0.00    +0.149 C 
ATOM      7  C   UNL     1      36.977 -22.264 -16.892  0.00  0.00    +0.039 C 
ATOM      8  C   UNL     1      34.972 -22.065 -18.131  0.00  0.00    +0.187 A 
ATOM      9  C   UNL     1      36.371 -21.944 -18.041  0.00  0.00    +0.044 C 
ATOM     10  C   UNL     1      32.986 -22.534 -17.369  0.00  0.00    +0.187 A 
ATOM     11  H   UNL     1      37.744 -22.947 -14.548  0.00  0.00    +0.148 HD
ENDROOT
BRANCH   1  12
ATOM     12  C   UNL     1      36.068 -23.546 -13.420  0.00  0.00    +0.070 C 
ATOM     13  C   UNL     1      35.689 -25.018 -13.611  0.00  0.00    +0.020 C 
ATOM     14  C   UNL     1      36.932 -23.344 -12.171  0.00  0.00    +0.020 C 
ATOM     15  C   UNL     1      36.900 -25.951 -13.562  0.00  0.00    +0.002 C 
ATOM     16  C   UNL     1      38.138 -24.283 -12.127  0.00  0.00    +0.002 C 
ATOM     17  C   UNL     1      37.722 -25.741 -12.295  0.00  0.00    +0.000 C 
ENDBRANCH   1  12
BRANCH  10  18
ATOM     18  C   UNL     1      31.921 -22.946 -16.485  0.00  0.00    +0.038 C 
ATOM     19  C   UNL     1      32.222 -23.505 -15.244  0.00  0.00    +0.007 C 
ATOM     20  C   UNL     1      30.592 -22.785 -16.875  0.00  0.00    +0.003 C 
ATOM     21  C   UNL     1      31.193 -23.903 -14.391  0.00  0.00    +0.072 C 
ATOM     22  C   UNL     1      29.562 -23.184 -16.023  0.00  0.00    +0.000 C 
ATOM     23  C   UNL     1      29.863 -23.743 -14.780  0.00  0.00    +0.004 C 
BRANCH  21  27
ATOM     24  F   UNL     1      30.444 -24.548 -12.213  0.00  0.00    -0.166 F 
ATOM     25  F   UNL     1      31.968 -25.785 -13.135  0.00  0.00    -0.166 F 
ATOM     26  F   UNL     1      32.481 -23.806 -12.395  0.00  0.00    -0.166 F 
ATOM     27  C   UNL     1      31.512 -24.500 -13.062  0.00  0.00    +0.419 C 
ENDBRANCH  21  27
ENDBRANCH  10  18
TORSDOF 3
ENDMDL
MODEL 5
REMARK VINA RESULT:     -10.4      4.300      7.257
REMARK  Name = 10361208
REMARK  3 active torsions:
REMARK  status: ('A' for Active; 'I' for Inactive)
REMARK    1  A    between atoms: N_1  and  C_12
REMARK    2  A    between atoms: C_10  and  C_18
REMARK    3  A    between atoms: C_21  and  C_27
REMARK                            x       y       z     vdW  Elec       q    Type
REMARK                         _______ _______ _______ _____ _____    ______ ____
ROOT
ATOM      1  N   UNL     1      31.449 -23.224 -16.763  0.00  0.00    -0.318 N 
ATOM      2  N   UNL     1      33.699 -23.106 -16.315  0.00  0.00    -0.147 NA
ATOM      3  N   UNL     1      34.906 -22.689 -16.773  0.00  0.00    -0.190 N 
ATOM      4  N   UNL     1      36.471 -21.810 -18.037  0.00  0.00    -0.127 NA
ATOM      5  N   UNL     1      37.060 -22.300 -16.889  0.00  0.00    -0.127 NA
ATOM      6  C   UNL     1      32.690 -22.854 -17.117  0.00  0.00    +0.149 C 
ATOM      7  C   UNL     1      32.865 -22.157 -18.439  0.00  0.00    +0.039 C 
ATOM      8  C   UNL     1      35.179 -22.047 -17.956  0.00  0.00    +0.187 A 
ATOM      9  C   UNL     1      34.094 -21.780 -18.812  0.00  0.00    +0.044 C 
ATOM     10  C   UNL     1      36.110 -22.823 -16.146  0.00  0.00    +0.187 A 
ATOM     11  H   UNL     1      30.708 -23.040 -17.386  0.00  0.00    +0.148 HD
ENDROOT
BRANCH   1  12
ATOM     12  C   UNL     1      31.152 -23.882 -15.505  0.00  0.00    +0.070 C 
ATOM     13  C   UNL     1      30.694 -22.852 -14.468  0.00  0.00    +0.020 C 
ATOM     14  C   UNL     1      30.097 -24.973 -15.719  0.00  0.00    +0.020 C 
ATOM     15  C   UNL     1      29.302 -22.292 -14.765  0.00  0.00    +0.002 C 
ATOM     16  C   UNL     1      28.709 -24.404 -16.012  0.00  0.00    +0.002 C 
ATOM     17  C   UNL     1      28.274 -23.403 -14.946  0.00  0.00    +0.000 C 
ENDBRANCH   1  12
BRANCH  10  18
ATOM     18  C   UNL     1      36.284 -23.448 -14.857  0.00  0.00    +0.038 C 
ATOM     19  C   UNL     1      37.347 -24.324 -14.644  0.00  0.00    +0.007 C 
ATOM     20  C   UNL     1      35.387 -23.175 -13.825  0.00  0.00    +0.003 C 
ATOM     21  C   UNL     1      37.514 -24.928 -13.398  0.00  0.00    +0.072 C 
ATOM     22  C   UNL     1      35.553 -23.779 -12.578  0.00  0.00    +0.000 C 
ATOM     23  C   UNL     1      36.618 -24.656 -12.365  0.00  0.00    +0.004 C 
BRANCH  21  27
ATOM     24  F   UNL     1      38.716 -26.882 -14.077  0.00  0.00    -0.166 F 
ATOM     25  F   UNL     1      39.876 -25.262 -13.222  0.00  0.00    -0.166 F 
ATOM     26  F   UNL     1      38.595 -26.469 -11.945  0.00  0.00    -0.166 F 
ATOM     27  C   UNL     1      38.652 -25.865 -13.168  0.00  0.00    +0.419 C 
ENDBRANCH  21  27
ENDBRANCH  10  18
TORSDOF 3
ENDMDL
MODEL 6
REMARK VINA RESULT:     -10.2      2.174      5.082
REMARK  Name = 10361208
REMARK  3 active torsions:
REMARK  status: ('A' for Active; 'I' for Inactive)
REMARK    1  A    between atoms: N_1  and  C_12
REMARK    2  A    between atoms: C_10  and  C_18
REMARK    3  A    between atoms: C_21  and  C_27
REMARK                            x       y       z     vdW  Elec       q    Type
REMARK                         _______ _______ _______ _____ _____    ______ ____
ROOT
ATOM      1  N   UNL     1      32.180 -24.488 -13.810  0.00  0.00    -0.318 N 
ATOM      2  N   UNL     1      34.204 -23.631 -14.479  0.00  0.00    -0.147 NA
ATOM      3  N   UNL     1      35.484 -23.378 -14.109  0.00  0.00    -0.190 N 
ATOM      4  N   UNL     1      37.332 -23.249 -12.930  0.00  0.00    -0.127 NA
ATOM      5  N   UNL     1      37.574 -22.719 -14.181  0.00  0.00    -0.127 NA
ATOM      6  C   UNL     1      33.465 -24.194 -13.551  0.00  0.00    +0.149 C 
ATOM      7  C   UNL     1      34.002 -24.530 -12.186  0.00  0.00    +0.039 C 
ATOM      8  C   UNL     1      36.076 -23.642 -12.898  0.00  0.00    +0.187 A 
ATOM      9  C   UNL     1      35.279 -24.245 -11.907  0.00  0.00    +0.044 C 
ATOM     10  C   UNL     1      36.459 -22.804 -14.872  0.00  0.00    +0.187 A 
ATOM     11  H   UNL     1      31.639 -24.895 -13.095  0.00  0.00    +0.148 HD
ENDROOT
BRANCH   1  12
ATOM     12  C   UNL     1      31.557 -24.231 -15.094  0.00  0.00    +0.070 C 
ATOM     13  C   UNL     1      30.450 -25.258 -15.355  0.00  0.00    +0.020 C 
ATOM     14  C   UNL     1      31.018 -22.798 -15.139  0.00  0.00    +0.020 C 
ATOM     15  C   UNL     1      29.226 -25.048 -14.461  0.00  0.00    +0.002 C 
ATOM     16  C   UNL     1      29.793 -22.597 -14.247  0.00  0.00    +0.002 C 
ATOM     17  C   UNL     1      28.701 -23.619 -14.551  0.00  0.00    +0.000 C 
ENDBRANCH   1  12
BRANCH  10  18
ATOM     18  C   UNL     1      36.265 -22.366 -16.234  0.00  0.00    +0.038 C 
ATOM     19  C   UNL     1      35.047 -22.593 -16.874  0.00  0.00    +0.007 C 
ATOM     20  C   UNL     1      37.298 -21.718 -16.909  0.00  0.00    +0.003 C 
ATOM     21  C   UNL     1      34.862 -22.171 -18.189  0.00  0.00    +0.072 C 
ATOM     22  C   UNL     1      37.114 -21.295 -18.226  0.00  0.00    +0.000 C 
ATOM     23  C   UNL     1      35.894 -21.522 -18.866  0.00  0.00    +0.004 C 
BRANCH  21  27
ATOM     24  F   UNL     1      32.488 -22.417 -18.027  0.00  0.00    -0.166 F 
ATOM     25  F   UNL     1      33.259 -21.475 -19.823  0.00  0.00    -0.166 F 
ATOM     26  F   UNL     1      33.520 -23.613 -19.522  0.00  0.00    -0.166 F 
ATOM     27  C   UNL     1      33.559 -22.411 -18.875  0.00  0.00    +0.419 C 
ENDBRANCH  21  27
ENDBRANCH  10  18
TORSDOF 3
ENDMDL
MODEL 7
REMARK VINA RESULT:     -10.1      1.777      4.572
REMARK  Name = 10361208
REMARK  3 active torsions:
REMARK  status: ('A' for Active; 'I' for Inactive)
REMARK    1  A    between atoms: N_1  and  C_12
REMARK    2  A    between atoms: C_10  and  C_18
REMARK    3  A    between atoms: C_21  and  C_27
REMARK                            x       y       z     vdW  Elec       q    Type
REMARK                         _______ _______ _______ _____ _____    ______ ____
ROOT
ATOM      1  N   UNL     1      32.711 -24.075 -14.492  0.00  0.00    -0.318 N 
ATOM      2  N   UNL     1      34.201 -23.097 -15.941  0.00  0.00    -0.147 NA
ATOM      3  N   UNL     1      35.509 -22.832 -16.184  0.00  0.00    -0.190 N 
ATOM      4  N   UNL     1      37.693 -22.739 -15.986  0.00  0.00    -0.127 NA
ATOM      5  N   UNL     1      37.333 -22.099 -17.154  0.00  0.00    -0.127 NA
ATOM      6  C   UNL     1      33.971 -23.760 -14.831  0.00  0.00    +0.149 C 
ATOM      7  C   UNL     1      35.077 -24.191 -13.905  0.00  0.00    +0.039 C 
ATOM      8  C   UNL     1      36.592 -23.176 -15.412  0.00  0.00    +0.187 A 
ATOM      9  C   UNL     1      36.340 -23.886 -14.224  0.00  0.00    +0.044 C 
ATOM     10  C   UNL     1      36.024 -22.164 -17.256  0.00  0.00    +0.187 A 
ATOM     11  H   UNL     1      32.559 -24.559 -13.647  0.00  0.00    +0.148 HD
ENDROOT
BRANCH   1  12
ATOM     12  C   UNL     1      31.565 -23.734 -15.313  0.00  0.00    +0.070 C 
ATOM     13  C   UNL     1      30.827 -25.006 -15.740  0.00  0.00    +0.020 C 
ATOM     14  C   UNL     1      30.643 -22.773 -14.556  0.00  0.00    +0.020 C 
ATOM     15  C   UNL     1      30.085 -25.675 -14.582  0.00  0.00    +0.002 C 
ATOM     16  C   UNL     1      29.902 -23.451 -13.402  0.00  0.00    +0.002 C 
ATOM     17  C   UNL     1      29.157 -24.699 -13.867  0.00  0.00    +0.000 C 
ENDBRANCH   1  12
BRANCH  10  18
ATOM     18  C   UNL     1      35.225 -21.621 -18.329  0.00  0.00    +0.038 C 
ATOM     19  C   UNL     1      35.798 -20.747 -19.252  0.00  0.00    +0.007 C 
ATOM     20  C   UNL     1      33.880 -21.971 -18.440  0.00  0.00    +0.003 C 
ATOM     21  C   UNL     1      35.025 -20.223 -20.287  0.00  0.00    +0.072 C 
ATOM     22  C   UNL     1      33.106 -21.447 -19.476  0.00  0.00    +0.000 C 
ATOM     23  C   UNL     1      33.680 -20.572 -20.400  0.00  0.00    +0.004 C 
BRANCH  21  27
ATOM     24  F   UNL     1      35.277 -19.548 -22.569  0.00  0.00    -0.166 F 
ATOM     25  F   UNL     1      35.305 -17.980 -21.071  0.00  0.00    -0.166 F 
ATOM     26  F   UNL     1      37.001 -19.327 -21.261  0.00  0.00    -0.166 F 
ATOM     27  C   UNL     1      35.636 -19.289 -21.277  0.00  0.00    +0.419 C 
ENDBRANCH  21  27
ENDBRANCH  10  18
TORSDOF 3
ENDMDL
MODEL 8
REMARK VINA RESULT:      -9.3     13.830     18.305
REMARK  Name = 10361208
REMARK  3 active torsions:
REMARK  status: ('A' for Active; 'I' for Inactive)
REMARK    1  A    between atoms: N_1  and  C_12
REMARK    2  A    between atoms: C_10  and  C_18
REMARK    3  A    between atoms: C_21  and  C_27
REMARK                            x       y       z     vdW  Elec       q    Type
REMARK                         _______ _______ _______ _____ _____    ______ ____
ROOT
ATOM      1  N   UNL     1      33.018  -4.354 -24.614  0.00  0.00    -0.318 N 
ATOM      2  N   UNL     1      33.051  -6.385 -23.541  0.00  0.00    -0.147 NA
ATOM      3  N   UNL     1      32.735  -7.047 -22.400  0.00  0.00    -0.190 N 
ATOM      4  N   UNL     1      32.006  -7.497 -20.378  0.00  0.00    -0.127 NA
ATOM      5  N   UNL     1      32.505  -8.658 -20.931  0.00  0.00    -0.127 NA
ATOM      6  C   UNL     1      32.749  -5.107 -23.535  0.00  0.00    +0.149 C 
ATOM      7  C   UNL     1      32.103  -4.435 -22.353  0.00  0.00    +0.039 C 
ATOM      8  C   UNL     1      32.147  -6.537 -21.268  0.00  0.00    +0.187 A 
ATOM      9  C   UNL     1      31.827  -5.167 -21.267  0.00  0.00    +0.044 C 
ATOM     10  C   UNL     1      32.937  -8.371 -22.139  0.00  0.00    +0.187 A 
ATOM     11  H   UNL     1      32.799  -3.394 -24.584  0.00  0.00    +0.148 HD
ENDROOT
BRANCH   1  12
ATOM     12  C   UNL     1      33.619  -4.892 -25.820  0.00  0.00    +0.070 C 
ATOM     13  C   UNL     1      32.709  -4.626 -27.023  0.00  0.00    +0.020 C 
ATOM     14  C   UNL     1      35.014  -4.293 -26.025  0.00  0.00    +0.020 C 
ATOM     15  C   UNL     1      32.675  -3.151 -27.425  0.00  0.00    +0.002 C 
ATOM     16  C   UNL     1      34.971  -2.819 -26.430  0.00  0.00    +0.002 C 
ATOM     17  C   UNL     1      34.077  -2.594 -27.646  0.00  0.00    +0.000 C 
ENDBRANCH   1  12
BRANCH  10  18
ATOM     18  C   UNL     1      33.537  -9.295 -23.071  0.00  0.00    +0.038 C 
ATOM     19  C   UNL     1      33.196 -10.647 -23.032  0.00  0.00    +0.007 C 
ATOM     20  C   UNL     1      34.459  -8.835 -24.011  0.00  0.00    +0.003 C 
ATOM     21  C   UNL     1      33.776 -11.539 -23.933  0.00  0.00    +0.072 C 
ATOM     22  C   UNL     1      35.041  -9.727 -24.912  0.00  0.00    +0.000 C 
ATOM     23  C   UNL     1      34.699 -11.080 -24.873  0.00  0.00    +0.004 C 
BRANCH  21  27
ATOM     24  F   UNL     1      32.341 -13.256 -23.090  0.00  0.00    -0.166 F 
ATOM     25  F   UNL     1      33.080 -13.498 -25.114  0.00  0.00    -0.166 F 
ATOM     26  F   UNL     1      34.427 -13.769 -23.429  0.00  0.00    -0.166 F 
ATOM     27  C   UNL     1      33.411 -12.984 -23.893  0.00  0.00    +0.419 C 
ENDBRANCH  21  27
ENDBRANCH  10  18
TORSDOF 3
ENDMDL
MODEL 9
REMARK VINA RESULT:      -9.2      4.397      7.378
REMARK  Name = 10361208
REMARK  3 active torsions:
REMARK  status: ('A' for Active; 'I' for Inactive)
REMARK    1  A    between atoms: N_1  and  C_12
REMARK    2  A    between atoms: C_10  and  C_18
REMARK    3  A    between atoms: C_21  and  C_27
REMARK                            x       y       z     vdW  Elec       q    Type
REMARK                         _______ _______ _______ _____ _____    ______ ____
ROOT
ATOM      1  N   UNL     1      32.526 -23.471 -16.616  0.00  0.00    -0.318 N 
ATOM      2  N   UNL     1      34.705 -23.538 -15.892  0.00  0.00    -0.147 NA
ATOM      3  N   UNL     1      35.967 -23.091 -16.113  0.00  0.00    -0.190 N 
ATOM      4  N   UNL     1      37.692 -22.050 -16.985  0.00  0.00    -0.127 NA
ATOM      5  N   UNL     1      38.126 -22.779 -15.896  0.00  0.00    -0.127 NA
ATOM      6  C   UNL     1      33.808 -23.092 -16.741  0.00  0.00    +0.149 C 
ATOM      7  C   UNL     1      34.158 -22.158 -17.869  0.00  0.00    +0.039 C 
ATOM      8  C   UNL     1      36.396 -22.244 -17.106  0.00  0.00    +0.187 A 
ATOM      9  C   UNL     1      35.430 -21.769 -18.013  0.00  0.00    +0.044 C 
ATOM     10  C   UNL     1      37.082 -23.396 -15.389  0.00  0.00    +0.187 A 
ATOM     11  H   UNL     1      31.871 -23.138 -17.272  0.00  0.00    +0.148 HD
ENDROOT
BRANCH   1  12
ATOM     12  C   UNL     1      32.064 -24.348 -15.557  0.00  0.00    +0.070 C 
ATOM     13  C   UNL     1      32.375 -23.732 -14.190  0.00  0.00    +0.020 C 
ATOM     14  C   UNL     1      30.566 -24.627 -15.721  0.00  0.00    +0.020 C 
ATOM     15  C   UNL     1      31.501 -22.517 -13.876  0.00  0.00    +0.002 C 
ATOM     16  C   UNL     1      29.699 -23.409 -15.402  0.00  0.00    +0.002 C 
ATOM     17  C   UNL     1      30.018 -22.837 -14.024  0.00  0.00    +0.000 C 
ENDBRANCH   1  12
BRANCH  10  18
ATOM     18  C   UNL     1      37.084 -24.267 -14.238  0.00  0.00    +0.038 C 
ATOM     19  C   UNL     1      36.463 -23.863 -13.056  0.00  0.00    +0.007 C 
ATOM     20  C   UNL     1      37.708 -25.511 -14.309  0.00  0.00    +0.003 C 
ATOM     21  C   UNL     1      36.467 -24.705 -11.944  0.00  0.00    +0.072 C 
ATOM     22  C   UNL     1      37.712 -26.354 -13.197  0.00  0.00    +0.000 C 
ATOM     23  C   UNL     1      37.091 -25.950 -12.014  0.00  0.00    +0.004 C 
BRANCH  21  27
ATOM     24  F   UNL     1      36.619 -23.568  -9.845  0.00  0.00    -0.166 F 
ATOM     25  F   UNL     1      34.714 -23.474 -10.879  0.00  0.00    -0.166 F 
ATOM     26  F   UNL     1      35.348 -25.331  -9.941  0.00  0.00    -0.166 F 
ATOM     27  C   UNL     1      35.802 -24.276 -10.680  0.00  0.00    +0.419 C 
ENDBRANCH  21  27
ENDBRANCH  10  18
TORSDOF 3
ENDMDL
