MODEL 1
REMARK VINA RESULT:     -11.6      0.000      0.000
REMARK  Name = 49831257
REMARK  4 active torsions:
REMARK  status: ('A' for Active; 'I' for Inactive)
REMARK    1  A    between atoms: C_1  and  C_23
REMARK    2  A    between atoms: C_4  and  C_14
REMARK    3  A    between atoms: C_12  and  C_20
REMARK    4  A    between atoms: C_23  and  N_27
REMARK                            x       y       z     vdW  Elec       q    Type
REMARK                         _______ _______ _______ _____ _____    ______ ____
ROOT
ATOM      1  C   UNL     1      35.180 -20.500 -20.617  0.00  0.00    -0.043 C 
ATOM      2  C   UNL     1      33.800 -20.405 -20.441  0.00  0.00    -0.006 C 
ATOM      3  C   UNL     1      35.949 -21.238 -19.717  0.00  0.00    -0.006 C 
ATOM      4  C   UNL     1      33.958 -21.785 -18.464  0.00  0.00    +0.016 C 
ATOM      5  C   UNL     1      33.189 -21.047 -19.364  0.00  0.00    +0.001 C 
ATOM      6  C   UNL     1      35.339 -21.880 -18.640  0.00  0.00    +0.001 C 
ENDROOT
BRANCH   4  14
ATOM      7  O   UNL     1      36.205 -25.372 -12.521  0.00  0.00    -0.274 OA
ATOM      8  N   UNL     1      36.765 -24.180 -14.478  0.00  0.00    -0.217 N 
ATOM      9  N   UNL     1      34.064 -23.082 -16.307  0.00  0.00    -0.152 N 
ATOM     10  N   UNL     1      35.415 -23.159 -16.164  0.00  0.00    -0.092 NA
ATOM     11  N   UNL     1      34.393 -24.227 -14.424  0.00  0.00    -0.319 NA
ATOM     12  C   UNL     1      37.024 -24.897 -13.296  0.00  0.00    +0.234 C 
ATOM     13  C   UNL     1      35.548 -23.850 -15.034  0.00  0.00    +0.167 C 
ATOM     14  C   UNL     1      33.313 -22.461 -17.326  0.00  0.00    +0.077 C 
ATOM     15  C   UNL     1      33.469 -23.743 -15.223  0.00  0.00    +0.219 C 
ATOM     16  C   UNL     1      31.965 -22.508 -17.247  0.00  0.00    +0.017 C 
ATOM     17  C   UNL     1      32.049 -23.777 -15.163  0.00  0.00    +0.051 C 
ATOM     18  C   UNL     1      31.329 -23.185 -16.131  0.00  0.00    +0.005 C 
ATOM     19  H   UNL     1      37.559 -23.873 -14.975  0.00  0.00    +0.167 HD
BRANCH  12  20
ATOM     20  C   UNL     1      38.478 -25.076 -12.988  0.00  0.00    +0.077 C 
ATOM     21  C   UNL     1      39.469 -25.057 -14.114  0.00  0.00    +0.010 C 
ATOM     22  C   UNL     1      39.163 -26.344 -13.406  0.00  0.00    +0.010 C 
ENDBRANCH  12  20
ENDBRANCH   4  14
BRANCH   1  23
ATOM     23  C   UNL     1      35.841 -19.808 -21.780  0.00  0.00    -0.050 C 
BRANCH  23  27
ATOM     24  S   UNL     1      34.241 -16.370 -24.232  0.00  0.00    -0.014 S 
ATOM     25  O   UNL     1      33.121 -15.461 -24.368  0.00  0.00    -0.173 OA
ATOM     26  O   UNL     1      35.374 -16.302 -25.134  0.00  0.00    -0.173 OA
ATOM     27  N   UNL     1      35.009 -18.725 -22.313  0.00  0.00    +0.392 N 
ATOM     28  C   UNL     1      34.628 -19.024 -23.704  0.00  0.00    -0.051 C 
ATOM     29  C   UNL     1      35.728 -17.444 -22.205  0.00  0.00    -0.051 C 
ATOM     30  C   UNL     1      34.845 -16.255 -22.565  0.00  0.00    +0.128 C 
ATOM     31  C   UNL     1      33.609 -18.030 -24.249  0.00  0.00    +0.128 C 
ATOM     32  H   UNL     1      34.151 -18.647 -21.767  0.00  0.00    -0.079 HD
ENDBRANCH  23  27
ENDBRANCH   1  23
TORSDOF 4
ENDMDL
MODEL 2
REMARK VINA RESULT:     -10.0      4.689     11.089
REMARK  Name = 49831257
REMARK  4 active torsions:
REMARK  status: ('A' for Active; 'I' for Inactive)
REMARK    1  A    between atoms: C_1  and  C_23
REMARK    2  A    between atoms: C_4  and  C_14
REMARK    3  A    between atoms: C_12  and  C_20
REMARK    4  A    between atoms: C_23  and  N_27
REMARK                            x       y       z     vdW  Elec       q    Type
REMARK                         _______ _______ _______ _____ _____    ______ ____
ROOT
ATOM      1  C   UNL     1      35.948 -18.808 -21.138  0.00  0.00    -0.043 C 
ATOM      2  C   UNL     1      35.690 -17.561 -20.569  0.00  0.00    -0.006 C 
ATOM      3  C   UNL     1      35.677 -19.029 -22.488  0.00  0.00    -0.006 C 
ATOM      4  C   UNL     1      34.889 -16.755 -22.701  0.00  0.00    +0.016 C 
ATOM      5  C   UNL     1      35.160 -16.535 -21.351  0.00  0.00    +0.001 C 
ATOM      6  C   UNL     1      35.147 -18.003 -23.270  0.00  0.00    +0.001 C 
ENDROOT
BRANCH   4  14
ATOM      7  O   UNL     1      31.417 -10.460 -21.458  0.00  0.00    -0.274 OA
ATOM      8  N   UNL     1      32.457 -12.386 -20.579  0.00  0.00    -0.217 N 
ATOM      9  N   UNL     1      33.694 -14.551 -22.951  0.00  0.00    -0.152 N 
ATOM     10  N   UNL     1      33.508 -14.253 -21.637  0.00  0.00    -0.092 NA
ATOM     11  N   UNL     1      32.620 -12.600 -22.937  0.00  0.00    -0.319 NA
ATOM     12  C   UNL     1      31.780 -11.154 -20.518  0.00  0.00    +0.234 C 
ATOM     13  C   UNL     1      32.864 -13.089 -21.693  0.00  0.00    +0.167 C 
ATOM     14  C   UNL     1      34.327 -15.672 -23.527  0.00  0.00    +0.077 C 
ATOM     15  C   UNL     1      33.143 -13.517 -23.720  0.00  0.00    +0.219 C 
ATOM     16  C   UNL     1      34.402 -15.745 -24.873  0.00  0.00    +0.017 C 
ATOM     17  C   UNL     1      33.235 -13.617 -25.135  0.00  0.00    +0.051 C 
ATOM     18  C   UNL     1      33.838 -14.683 -25.688  0.00  0.00    +0.005 C 
ATOM     19  H   UNL     1      32.669 -12.801 -19.711  0.00  0.00    +0.167 HD
BRANCH  12  20
ATOM     20  C   UNL     1      31.491 -10.677 -19.130  0.00  0.00    +0.077 C 
ATOM     21  C   UNL     1      31.472  -9.202 -18.855  0.00  0.00    +0.010 C 
ATOM     22  C   UNL     1      32.594 -10.049 -18.328  0.00  0.00    +0.010 C 
ENDBRANCH  12  20
ENDBRANCH   4  14
BRANCH   1  23
ATOM     23  C   UNL     1      36.522 -19.916 -20.295  0.00  0.00    -0.050 C 
BRANCH  23  27
ATOM     24  S   UNL     1      33.583 -22.677 -18.263  0.00  0.00    -0.014 S 
ATOM     25  O   UNL     1      32.643 -22.769 -17.164  0.00  0.00    -0.173 OA
ATOM     26  O   UNL     1      33.796 -23.794 -19.161  0.00  0.00    -0.173 OA
ATOM     27  N   UNL     1      35.520 -20.487 -19.390  0.00  0.00    +0.392 N 
ATOM     28  C   UNL     1      36.082 -21.658 -18.695  0.00  0.00    -0.051 C 
ATOM     29  C   UNL     1      34.304 -20.831 -20.146  0.00  0.00    -0.051 C 
ATOM     30  C   UNL     1      33.157 -21.251 -19.233  0.00  0.00    +0.128 C 
ATOM     31  C   UNL     1      35.156 -22.179 -17.603  0.00  0.00    +0.128 C 
ATOM     32  H   UNL     1      35.262 -19.800 -18.682  0.00  0.00    -0.079 HD
ENDBRANCH  23  27
ENDBRANCH   1  23
TORSDOF 4
ENDMDL
MODEL 3
REMARK VINA RESULT:      -9.8      2.371      5.022
REMARK  Name = 49831257
REMARK  4 active torsions:
REMARK  status: ('A' for Active; 'I' for Inactive)
REMARK    1  A    between atoms: C_1  and  C_23
REMARK    2  A    between atoms: C_4  and  C_14
REMARK    3  A    between atoms: C_12  and  C_20
REMARK    4  A    between atoms: C_23  and  N_27
REMARK                            x       y       z     vdW  Elec       q    Type
REMARK                         _______ _______ _______ _____ _____    ______ ____
ROOT
ATOM      1  C   UNL     1      35.320 -20.458 -20.862  0.00  0.00    -0.043 C 
ATOM      2  C   UNL     1      36.431 -20.856 -20.120  0.00  0.00    -0.006 C 
ATOM      3  C   UNL     1      34.034 -20.699 -20.376  0.00  0.00    -0.006 C 
ATOM      4  C   UNL     1      34.973 -21.737 -18.407  0.00  0.00    +0.016 C 
ATOM      5  C   UNL     1      36.258 -21.496 -18.893  0.00  0.00    +0.001 C 
ATOM      6  C   UNL     1      33.860 -21.339 -19.149  0.00  0.00    +0.001 C 
ENDROOT
BRANCH   4  14
ATOM      7  O   UNL     1      29.308 -24.151 -14.493  0.00  0.00    -0.274 OA
ATOM      8  N   UNL     1      30.091 -23.109 -16.459  0.00  0.00    -0.217 N 
ATOM      9  N   UNL     1      33.510 -22.753 -16.625  0.00  0.00    -0.152 N 
ATOM     10  N   UNL     1      32.295 -22.564 -17.206  0.00  0.00    -0.092 NA
ATOM     11  N   UNL     1      32.033 -23.588 -15.182  0.00  0.00    -0.319 NA
ATOM     12  C   UNL     1      29.120 -23.624 -15.582  0.00  0.00    +0.234 C 
ATOM     13  C   UNL     1      31.460 -23.076 -16.303  0.00  0.00    +0.167 C 
ATOM     14  C   UNL     1      34.790 -22.414 -17.112  0.00  0.00    +0.077 C 
ATOM     15  C   UNL     1      33.315 -23.386 -15.389  0.00  0.00    +0.219 C 
ATOM     16  C   UNL     1      35.865 -22.714 -16.352  0.00  0.00    +0.017 C 
ATOM     17  C   UNL     1      34.462 -23.692 -14.609  0.00  0.00    +0.051 C 
ATOM     18  C   UNL     1      35.684 -23.372 -15.070  0.00  0.00    +0.005 C 
ATOM     19  H   UNL     1      29.747 -22.720 -17.297  0.00  0.00    +0.167 HD
BRANCH  12  20
ATOM     20  C   UNL     1      27.712 -23.493 -16.073  0.00  0.00    +0.077 C 
ATOM     21  C   UNL     1      27.354 -22.335 -16.957  0.00  0.00    +0.010 C 
ATOM     22  C   UNL     1      26.854 -22.381 -15.542  0.00  0.00    +0.010 C 
ENDBRANCH  12  20
ENDBRANCH   4  14
BRANCH   1  23
ATOM     23  C   UNL     1      35.506 -19.765 -22.186  0.00  0.00    -0.050 C 
BRANCH  23  27
ATOM     24  S   UNL     1      34.449 -15.436 -22.915  0.00  0.00    -0.014 S 
ATOM     25  O   UNL     1      33.423 -14.437 -22.697  0.00  0.00    -0.173 OA
ATOM     26  O   UNL     1      35.676 -15.108 -23.615  0.00  0.00    -0.173 OA
ATOM     27  N   UNL     1      34.822 -18.469 -22.223  0.00  0.00    +0.392 N 
ATOM     28  C   UNL     1      34.575 -18.074 -23.621  0.00  0.00    -0.051 C 
ATOM     29  C   UNL     1      35.620 -17.463 -21.502  0.00  0.00    -0.051 C 
ATOM     30  C   UNL     1      34.873 -16.143 -21.341  0.00  0.00    +0.128 C 
ATOM     31  C   UNL     1      33.699 -16.831 -23.722  0.00  0.00    +0.128 C 
ATOM     32  H   UNL     1      33.919 -18.542 -21.757  0.00  0.00    -0.079 HD
ENDBRANCH  23  27
ENDBRANCH   1  23
TORSDOF 4
ENDMDL
MODEL 4
REMARK VINA RESULT:      -9.7      2.501      4.853
REMARK  Name = 49831257
REMARK  4 active torsions:
REMARK  status: ('A' for Active; 'I' for Inactive)
REMARK    1  A    between atoms: C_1  and  C_23
REMARK    2  A    between atoms: C_4  and  C_14
REMARK    3  A    between atoms: C_12  and  C_20
REMARK    4  A    between atoms: C_23  and  N_27
REMARK                            x       y       z     vdW  Elec       q    Type
REMARK                         _______ _______ _______ _____ _____    ______ ____
ROOT
ATOM      1  C   UNL     1      35.749 -19.072 -21.758  0.00  0.00    -0.043 C 
ATOM      2  C   UNL     1      36.935 -19.146 -21.029  0.00  0.00    -0.006 C 
ATOM      3  C   UNL     1      34.627 -19.788 -21.340  0.00  0.00    -0.006 C 
ATOM      4  C   UNL     1      35.878 -20.651 -19.462  0.00  0.00    +0.016 C 
ATOM      5  C   UNL     1      37.000 -19.936 -19.881  0.00  0.00    +0.001 C 
ATOM      6  C   UNL     1      34.691 -20.577 -20.192  0.00  0.00    +0.001 C 
ENDROOT
BRANCH   4  14
ATOM      7  O   UNL     1      31.086 -24.124 -15.195  0.00  0.00    -0.274 OA
ATOM      8  N   UNL     1      31.478 -22.785 -17.097  0.00  0.00    -0.217 N 
ATOM      9  N   UNL     1      34.788 -22.022 -17.651  0.00  0.00    -0.152 N 
ATOM     10  N   UNL     1      33.490 -21.910 -18.044  0.00  0.00    -0.092 NA
ATOM     11  N   UNL     1      33.618 -23.178 -16.149  0.00  0.00    -0.319 NA
ATOM     12  C   UNL     1      30.696 -23.504 -16.175  0.00  0.00    +0.234 C 
ATOM     13  C   UNL     1      32.846 -22.612 -17.114  0.00  0.00    +0.167 C 
ATOM     14  C   UNL     1      35.946 -21.486 -18.251  0.00  0.00    +0.077 C 
ATOM     15  C   UNL     1      34.832 -22.808 -16.491  0.00  0.00    +0.219 C 
ATOM     16  C   UNL     1      37.143 -21.744 -17.679  0.00  0.00    +0.017 C 
ATOM     17  C   UNL     1      36.102 -23.067 -15.909  0.00  0.00    +0.051 C 
ATOM     18  C   UNL     1      37.209 -22.558 -16.478  0.00  0.00    +0.005 C 
ATOM     19  H   UNL     1      30.983 -22.346 -17.827  0.00  0.00    +0.167 HD
BRANCH  12  20
ATOM     20  C   UNL     1      29.227 -23.480 -16.461  0.00  0.00    +0.077 C 
ATOM     21  C   UNL     1      28.325 -22.670 -15.577  0.00  0.00    +0.010 C 
ATOM     22  C   UNL     1      28.287 -24.169 -15.515  0.00  0.00    +0.010 C 
ENDBRANCH  12  20
ENDBRANCH   4  14
BRANCH   1  23
ATOM     23  C   UNL     1      35.679 -18.218 -22.997  0.00  0.00    -0.050 C 
BRANCH  23  27
ATOM     24  S   UNL     1      33.764 -14.132 -22.840  0.00  0.00    -0.014 S 
ATOM     25  O   UNL     1      32.518 -13.441 -22.574  0.00  0.00    -0.173 OA
ATOM     26  O   UNL     1      34.960 -13.402 -23.213  0.00  0.00    -0.173 OA
ATOM     27  N   UNL     1      34.728 -17.113 -22.842  0.00  0.00    +0.392 N 
ATOM     28  C   UNL     1      34.570 -16.406 -24.125  0.00  0.00    -0.051 C 
ATOM     29  C   UNL     1      35.182 -16.210 -21.771  0.00  0.00    -0.051 C 
ATOM     30  C   UNL     1      34.142 -15.148 -21.433  0.00  0.00    +0.128 C 
ATOM     31  C   UNL     1      33.453 -15.369 -24.078  0.00  0.00    +0.128 C 
ATOM     32  H   UNL     1      33.814 -17.478 -22.574  0.00  0.00    -0.079 HD
ENDBRANCH  23  27
ENDBRANCH   1  23
TORSDOF 4
ENDMDL
MODEL 5
REMARK VINA RESULT:      -9.3     11.320     16.581
REMARK  Name = 49831257
REMARK  4 active torsions:
REMARK  status: ('A' for Active; 'I' for Inactive)
REMARK    1  A    between atoms: C_1  and  C_23
REMARK    2  A    between atoms: C_4  and  C_14
REMARK    3  A    between atoms: C_12  and  C_20
REMARK    4  A    between atoms: C_23  and  N_27
REMARK                            x       y       z     vdW  Elec       q    Type
REMARK                         _______ _______ _______ _____ _____    ______ ____
ROOT
ATOM      1  C   UNL     1      34.239  -4.613 -26.585  0.00  0.00    -0.043 C 
ATOM      2  C   UNL     1      35.085  -5.180 -25.632  0.00  0.00    -0.006 C 
ATOM      3  C   UNL     1      32.877  -4.476 -26.316  0.00  0.00    -0.006 C 
ATOM      4  C   UNL     1      33.206  -5.475 -24.141  0.00  0.00    +0.016 C 
ATOM      5  C   UNL     1      34.568  -5.612 -24.410  0.00  0.00    +0.001 C 
ATOM      6  C   UNL     1      32.360  -4.907 -25.094  0.00  0.00    +0.001 C 
ENDROOT
BRANCH   4  14
ATOM      7  O   UNL     1      31.934 -11.915 -20.958  0.00  0.00    -0.274 OA
ATOM      8  N   UNL     1      32.740 -10.725 -22.828  0.00  0.00    -0.217 N 
ATOM      9  N   UNL     1      32.543  -7.301 -22.537  0.00  0.00    -0.152 N 
ATOM     10  N   UNL     1      32.898  -8.384 -23.281  0.00  0.00    -0.092 NA
ATOM     11  N   UNL     1      32.022  -9.070 -21.287  0.00  0.00    -0.319 NA
ATOM     12  C   UNL     1      32.430 -11.873 -22.076  0.00  0.00    +0.234 C 
ATOM     13  C   UNL     1      32.562  -9.401 -22.489  0.00  0.00    +0.167 C 
ATOM     14  C   UNL     1      32.661  -5.932 -22.851  0.00  0.00    +0.077 C 
ATOM     15  C   UNL     1      32.015  -7.756 -21.321  0.00  0.00    +0.219 C 
ATOM     16  C   UNL     1      32.246  -5.027 -21.939  0.00  0.00    +0.017 C 
ATOM     17  C   UNL     1      31.586  -6.784 -20.377  0.00  0.00    +0.051 C 
ATOM     18  C   UNL     1      31.697  -5.477 -20.671  0.00  0.00    +0.005 C 
ATOM     19  H   UNL     1      33.137 -10.890 -23.714  0.00  0.00    +0.167 HD
BRANCH  12  20
ATOM     20  C   UNL     1      32.758 -13.164 -22.756  0.00  0.00    +0.077 C 
ATOM     21  C   UNL     1      33.639 -14.156 -22.054  0.00  0.00    +0.010 C 
ATOM     22  C   UNL     1      34.158 -13.400 -23.242  0.00  0.00    +0.010 C 
ENDBRANCH  12  20
ENDBRANCH   4  14
BRANCH   1  23
ATOM     23  C   UNL     1      34.796  -4.145 -27.903  0.00  0.00    -0.050 C 
BRANCH  23  27
ATOM     24  S   UNL     1      39.065  -2.976 -28.797  0.00  0.00    -0.014 S 
ATOM     25  O   UNL     1      40.428  -3.101 -28.323  0.00  0.00    -0.173 OA
ATOM     26  O   UNL     1      38.757  -2.229 -30.000  0.00  0.00    -0.173 OA
ATOM     27  N   UNL     1      36.252  -3.980 -27.851  0.00  0.00    +0.392 N 
ATOM     28  C   UNL     1      36.589  -2.552 -27.719  0.00  0.00    -0.051 C 
ATOM     29  C   UNL     1      36.865  -4.580 -29.049  0.00  0.00    -0.051 C 
ATOM     30  C   UNL     1      38.387  -4.610 -28.963  0.00  0.00    +0.128 C 
ATOM     31  C   UNL     1      38.077  -2.332 -27.468  0.00  0.00    +0.128 C 
ATOM     32  H   UNL     1      36.626  -4.464 -27.035  0.00  0.00    -0.079 HD
ENDBRANCH  23  27
ENDBRANCH   1  23
TORSDOF 4
ENDMDL
MODEL 6
REMARK VINA RESULT:      -9.0      4.112      8.831
REMARK  Name = 49831257
REMARK  4 active torsions:
REMARK  status: ('A' for Active; 'I' for Inactive)
REMARK    1  A    between atoms: C_1  and  C_23
REMARK    2  A    between atoms: C_4  and  C_14
REMARK    3  A    between atoms: C_12  and  C_20
REMARK    4  A    between atoms: C_23  and  N_27
REMARK                            x       y       z     vdW  Elec       q    Type
REMARK                         _______ _______ _______ _____ _____    ______ ____
ROOT
ATOM      1  C   UNL     1      32.086 -24.694 -13.841  0.00  0.00    -0.043 C 
ATOM      2  C   UNL     1      33.242 -24.806 -13.069  0.00  0.00    -0.006 C 
ATOM      3  C   UNL     1      32.146 -24.110 -15.106  0.00  0.00    -0.006 C 
ATOM      4  C   UNL     1      34.518 -23.751 -14.829  0.00  0.00    +0.016 C 
ATOM      5  C   UNL     1      34.458 -24.335 -13.563  0.00  0.00    +0.001 C 
ATOM      6  C   UNL     1      33.361 -23.639 -15.601  0.00  0.00    +0.001 C 
ENDROOT
BRANCH   4  14
ATOM      7  O   UNL     1      36.696 -19.904 -20.633  0.00  0.00    -0.274 OA
ATOM      8  N   UNL     1      34.921 -20.873 -19.418  0.00  0.00    -0.217 N 
ATOM      9  N   UNL     1      35.881 -22.513 -16.548  0.00  0.00    -0.152 N 
ATOM     10  N   UNL     1      34.879 -22.123 -17.382  0.00  0.00    -0.092 NA
ATOM     11  N   UNL     1      36.884 -21.384 -18.186  0.00  0.00    -0.319 NA
ATOM     12  C   UNL     1      35.508 -20.151 -20.473  0.00  0.00    +0.234 C 
ATOM     13  C   UNL     1      35.536 -21.462 -18.333  0.00  0.00    +0.167 C 
ATOM     14  C   UNL     1      35.802 -23.252 -15.350  0.00  0.00    +0.077 C 
ATOM     15  C   UNL     1      37.095 -22.040 -17.067  0.00  0.00    +0.219 C 
ATOM     16  C   UNL     1      36.946 -23.511 -14.680  0.00  0.00    +0.017 C 
ATOM     17  C   UNL     1      38.284 -22.325 -16.343  0.00  0.00    +0.051 C 
ATOM     18  C   UNL     1      38.214 -23.028 -15.199  0.00  0.00    +0.005 C 
ATOM     19  H   UNL     1      33.942 -20.970 -19.459  0.00  0.00    +0.167 HD
BRANCH  12  20
ATOM     20  C   UNL     1      34.535 -19.648 -21.493  0.00  0.00    +0.077 C 
ATOM     21  C   UNL     1      34.928 -19.654 -22.941  0.00  0.00    +0.010 C 
ATOM     22  C   UNL     1      34.820 -18.353 -22.198  0.00  0.00    +0.010 C 
ENDBRANCH  12  20
ENDBRANCH   4  14
BRANCH   1  23
ATOM     23  C   UNL     1      30.773 -25.205 -13.309  0.00  0.00    -0.050 C 
BRANCH  23  27
ATOM     24  S   UNL     1      28.164 -22.844 -16.139  0.00  0.00    -0.014 S 
ATOM     25  O   UNL     1      26.795 -22.447 -16.402  0.00  0.00    -0.173 OA
ATOM     26  O   UNL     1      29.246 -22.417 -17.004  0.00  0.00    -0.173 OA
ATOM     27  N   UNL     1      29.632 -24.568 -13.973  0.00  0.00    +0.392 N 
ATOM     28  C   UNL     1      29.489 -25.097 -15.341  0.00  0.00    -0.051 C 
ATOM     29  C   UNL     1      29.803 -23.105 -13.967  0.00  0.00    -0.051 C 
ATOM     30  C   UNL     1      28.562 -22.377 -14.472  0.00  0.00    +0.128 C 
ATOM     31  C   UNL     1      28.210 -24.616 -16.015  0.00  0.00    +0.128 C 
ATOM     32  H   UNL     1      28.773 -24.782 -13.467  0.00  0.00    -0.079 HD
ENDBRANCH  23  27
ENDBRANCH   1  23
TORSDOF 4
ENDMDL
MODEL 7
REMARK VINA RESULT:      -8.9      7.941     14.680
REMARK  Name = 49831257
REMARK  4 active torsions:
REMARK  status: ('A' for Active; 'I' for Inactive)
REMARK    1  A    between atoms: C_1  and  C_23
REMARK    2  A    between atoms: C_4  and  C_14
REMARK    3  A    between atoms: C_12  and  C_20
REMARK    4  A    between atoms: C_23  and  N_27
REMARK                            x       y       z     vdW  Elec       q    Type
REMARK                         _______ _______ _______ _____ _____    ______ ____
ROOT
ATOM      1  C   UNL     1      33.468 -13.675 -23.643  0.00  0.00    -0.043 C 
ATOM      2  C   UNL     1      33.877 -12.414 -24.078  0.00  0.00    -0.006 C 
ATOM      3  C   UNL     1      32.708 -13.799 -22.481  0.00  0.00    -0.006 C 
ATOM      4  C   UNL     1      32.765 -11.402 -22.187  0.00  0.00    +0.016 C 
ATOM      5  C   UNL     1      33.526 -11.278 -23.350  0.00  0.00    +0.001 C 
ATOM      6  C   UNL     1      32.356 -12.663 -21.752  0.00  0.00    +0.001 C 
ENDROOT
BRANCH   4  14
ATOM      7  O   UNL     1      32.330  -4.239 -23.505  0.00  0.00    -0.274 OA
ATOM      8  N   UNL     1      32.802  -6.403 -24.314  0.00  0.00    -0.217 N 
ATOM      9  N   UNL     1      32.421  -8.914 -21.991  0.00  0.00    -0.152 N 
ATOM     10  N   UNL     1      32.739  -8.548 -23.262  0.00  0.00    -0.092 NA
ATOM     11  N   UNL     1      32.189  -6.698 -22.041  0.00  0.00    -0.319 NA
ATOM     12  C   UNL     1      32.669  -5.005 -24.396  0.00  0.00    +0.234 C 
ATOM     13  C   UNL     1      32.586  -7.225 -23.229  0.00  0.00    +0.167 C 
ATOM     14  C   UNL     1      32.396 -10.201 -21.417  0.00  0.00    +0.077 C 
ATOM     15  C   UNL     1      32.085  -7.759 -21.271  0.00  0.00    +0.219 C 
ATOM     16  C   UNL     1      32.033 -10.320 -20.122  0.00  0.00    +0.017 C 
ATOM     17  C   UNL     1      31.706  -7.909 -19.909  0.00  0.00    +0.051 C 
ATOM     18  C   UNL     1      31.680  -9.135 -19.359  0.00  0.00    +0.005 C 
ATOM     19  H   UNL     1      33.087  -6.855 -25.142  0.00  0.00    +0.167 HD
BRANCH  12  20
ATOM     20  C   UNL     1      32.987  -4.433 -25.742  0.00  0.00    +0.077 C 
ATOM     21  C   UNL     1      34.215  -4.906 -26.463  0.00  0.00    +0.010 C 
ATOM     22  C   UNL     1      34.171  -3.521 -25.887  0.00  0.00    +0.010 C 
ENDBRANCH  12  20
ENDBRANCH   4  14
BRANCH   1  23
ATOM     23  C   UNL     1      33.845 -14.902 -24.430  0.00  0.00    -0.050 C 
BRANCH  23  27
ATOM     24  S   UNL     1      35.398 -18.538 -22.249  0.00  0.00    -0.014 S 
ATOM     25  O   UNL     1      35.028 -19.574 -21.307  0.00  0.00    -0.173 OA
ATOM     26  O   UNL     1      36.731 -18.484 -22.818  0.00  0.00    -0.173 OA
ATOM     27  N   UNL     1      33.969 -16.083 -23.571  0.00  0.00    +0.392 N 
ATOM     28  C   UNL     1      35.000 -15.850 -22.545  0.00  0.00    -0.051 C 
ATOM     29  C   UNL     1      34.270 -17.268 -24.392  0.00  0.00    -0.051 C 
ATOM     30  C   UNL     1      34.222 -18.558 -23.580  0.00  0.00    +0.128 C 
ATOM     31  C   UNL     1      35.041 -16.964 -21.506  0.00  0.00    +0.128 C 
ATOM     32  H   UNL     1      33.086 -16.254 -23.090  0.00  0.00    -0.079 HD
ENDBRANCH  23  27
ENDBRANCH   1  23
TORSDOF 4
ENDMDL
MODEL 8
REMARK VINA RESULT:      -8.9      3.915      9.538
REMARK  Name = 49831257
REMARK  4 active torsions:
REMARK  status: ('A' for Active; 'I' for Inactive)
REMARK    1  A    between atoms: C_1  and  C_23
REMARK    2  A    between atoms: C_4  and  C_14
REMARK    3  A    between atoms: C_12  and  C_20
REMARK    4  A    between atoms: C_23  and  N_27
REMARK                            x       y       z     vdW  Elec       q    Type
REMARK                         _______ _______ _______ _____ _____    ______ ____
ROOT
ATOM      1  C   UNL     1      36.710 -24.636 -13.010  0.00  0.00    -0.043 C 
ATOM      2  C   UNL     1      35.504 -24.854 -12.345  0.00  0.00    -0.006 C 
ATOM      3  C   UNL     1      36.708 -24.118 -14.306  0.00  0.00    -0.006 C 
ATOM      4  C   UNL     1      34.294 -24.038 -14.270  0.00  0.00    +0.016 C 
ATOM      5  C   UNL     1      34.296 -24.555 -12.975  0.00  0.00    +0.001 C 
ATOM      6  C   UNL     1      35.500 -23.819 -14.936  0.00  0.00    +0.001 C 
ENDROOT
BRANCH   4  14
ATOM      7  O   UNL     1      32.264 -20.683 -20.423  0.00  0.00    -0.274 OA
ATOM      8  N   UNL     1      34.012 -21.412 -19.017  0.00  0.00    -0.217 N 
ATOM      9  N   UNL     1      32.972 -23.034 -16.165  0.00  0.00    -0.152 N 
ATOM     10  N   UNL     1      34.000 -22.579 -16.932  0.00  0.00    -0.092 NA
ATOM     11  N   UNL     1      32.009 -22.077 -17.932  0.00  0.00    -0.319 NA
ATOM     12  C   UNL     1      33.451 -20.798 -20.152  0.00  0.00    +0.234 C 
ATOM     13  C   UNL     1      33.366 -22.020 -17.961  0.00  0.00    +0.167 C 
ATOM     14  C   UNL     1      33.018 -23.723 -14.936  0.00  0.00    +0.077 C 
ATOM     15  C   UNL     1      31.767 -22.715 -16.808  0.00  0.00    +0.219 C 
ATOM     16  C   UNL     1      31.852 -24.088 -14.361  0.00  0.00    +0.017 C 
ATOM     17  C   UNL     1      30.554 -23.110 -16.183  0.00  0.00    +0.051 C 
ATOM     18  C   UNL     1      30.593 -23.768 -15.012  0.00  0.00    +0.005 C 
ATOM     19  H   UNL     1      34.996 -21.409 -18.971  0.00  0.00    +0.167 HD
BRANCH  12  20
ATOM     20  C   UNL     1      34.455 -20.235 -21.108  0.00  0.00    +0.077 C 
ATOM     21  C   UNL     1      35.829 -19.896 -20.608  0.00  0.00    +0.010 C 
ATOM     22  C   UNL     1      34.871 -18.799 -20.971  0.00  0.00    +0.010 C 
ENDBRANCH  12  20
ENDBRANCH   4  14
BRANCH   1  23
ATOM     23  C   UNL     1      38.014 -24.956 -12.330  0.00  0.00    -0.050 C 
BRANCH  23  27
ATOM     24  S   UNL     1      40.358 -27.484 -15.246  0.00  0.00    -0.014 S 
ATOM     25  O   UNL     1      40.896 -28.812 -15.464  0.00  0.00    -0.173 OA
ATOM     26  O   UNL     1      40.541 -26.432 -16.227  0.00  0.00    -0.173 OA
ATOM     27  N   UNL     1      38.715 -26.063 -12.989  0.00  0.00    +0.392 N 
ATOM     28  C   UNL     1      40.135 -25.717 -13.173  0.00  0.00    -0.051 C 
ATOM     29  C   UNL     1      38.057 -26.377 -14.269  0.00  0.00    -0.051 C 
ATOM     30  C   UNL     1      38.621 -27.640 -14.910  0.00  0.00    +0.128 C 
ATOM     31  C   UNL     1      40.955 -26.898 -13.678  0.00  0.00    +0.128 C 
ATOM     32  H   UNL     1      38.672 -26.897 -12.404  0.00  0.00    -0.079 HD
ENDBRANCH  23  27
ENDBRANCH   1  23
TORSDOF 4
ENDMDL
MODEL 9
REMARK VINA RESULT:      -8.9      4.953      9.448
REMARK  Name = 49831257
REMARK  4 active torsions:
REMARK  status: ('A' for Active; 'I' for Inactive)
REMARK    1  A    between atoms: C_1  and  C_23
REMARK    2  A    between atoms: C_4  and  C_14
REMARK    3  A    between atoms: C_12  and  C_20
REMARK    4  A    between atoms: C_23  and  N_27
REMARK                            x       y       z     vdW  Elec       q    Type
REMARK                         _______ _______ _______ _____ _____    ______ ____
ROOT
ATOM      1  C   UNL     1      37.901 -23.761 -14.887  0.00  0.00    -0.043 C 
ATOM      2  C   UNL     1      36.607 -24.280 -14.902  0.00  0.00    -0.006 C 
ATOM      3  C   UNL     1      38.252 -22.736 -15.766  0.00  0.00    -0.006 C 
ATOM      4  C   UNL     1      36.014 -22.752 -16.676  0.00  0.00    +0.016 C 
ATOM      5  C   UNL     1      35.664 -23.777 -15.797  0.00  0.00    +0.001 C 
ATOM      6  C   UNL     1      37.309 -22.232 -16.661  0.00  0.00    +0.001 C 
ENDROOT
BRANCH   4  14
ATOM      7  O   UNL     1      28.733 -22.591 -17.105  0.00  0.00    -0.274 OA
ATOM      8  N   UNL     1      30.659 -23.234 -15.905  0.00  0.00    -0.217 N 
ATOM      9  N   UNL     1      33.633 -22.365 -17.403  0.00  0.00    -0.152 N 
ATOM     10  N   UNL     1      32.988 -22.951 -16.358  0.00  0.00    -0.092 NA
ATOM     11  N   UNL     1      31.463 -22.144 -17.853  0.00  0.00    -0.319 NA
ATOM     12  C   UNL     1      29.277 -23.118 -16.144  0.00  0.00    +0.234 C 
ATOM     13  C   UNL     1      31.707 -22.790 -16.684  0.00  0.00    +0.167 C 
ATOM     14  C   UNL     1      35.018 -22.221 -17.623  0.00  0.00    +0.077 C 
ATOM     15  C   UNL     1      32.670 -21.878 -18.298  0.00  0.00    +0.219 C 
ATOM     16  C   UNL     1      35.427 -21.586 -18.742  0.00  0.00    +0.017 C 
ATOM     17  C   UNL     1      33.126 -21.213 -19.469  0.00  0.00    +0.051 C 
ATOM     18  C   UNL     1      34.446 -21.071 -19.682  0.00  0.00    +0.005 C 
ATOM     19  H   UNL     1      30.911 -23.694 -15.071  0.00  0.00    +0.167 HD
BRANCH  12  20
ATOM     20  C   UNL     1      28.414 -23.719 -15.080  0.00  0.00    +0.077 C 
ATOM     21  C   UNL     1      29.047 -24.172 -13.797  0.00  0.00    +0.010 C 
ATOM     22  C   UNL     1      28.537 -25.185 -14.780  0.00  0.00    +0.010 C 
ENDBRANCH  12  20
ENDBRANCH   4  14
BRANCH   1  23
ATOM     23  C   UNL     1      38.920 -24.304 -13.919  0.00  0.00    -0.050 C 
BRANCH  23  27
ATOM     24  S   UNL     1      36.192 -24.445 -10.324  0.00  0.00    -0.014 S 
ATOM     25  O   UNL     1      36.178 -24.525  -8.877  0.00  0.00    -0.173 OA
ATOM     26  O   UNL     1      34.957 -24.375 -11.081  0.00  0.00    -0.173 OA
ATOM     27  N   UNL     1      38.392 -24.369 -12.553  0.00  0.00    +0.392 N 
ATOM     28  C   UNL     1      37.572 -25.582 -12.390  0.00  0.00    -0.051 C 
ATOM     29  C   UNL     1      37.626 -23.146 -12.255  0.00  0.00    -0.051 C 
ATOM     30  C   UNL     1      37.213 -23.068 -10.789  0.00  0.00    +0.128 C 
ATOM     31  C   UNL     1      37.153 -25.805 -10.942  0.00  0.00    +0.128 C 
ATOM     32  H   UNL     1      39.162 -24.423 -11.887  0.00  0.00    -0.079 HD
ENDBRANCH  23  27
ENDBRANCH   1  23
TORSDOF 4
ENDMDL
