MODEL 1
REMARK VINA RESULT:     -11.8      0.000      0.000
REMARK  Name = 124173720
REMARK  4 active torsions:
REMARK  status: ('A' for Active; 'I' for Inactive)
REMARK    1  A    between atoms: C_13  and  N_24
REMARK    2  A    between atoms: C_18  and  C_23
REMARK    3  A    between atoms: N_24  and  C_26
REMARK    4  A    between atoms: C_26  and  C_30
REMARK                            x       y       z     vdW  Elec       q    Type
REMARK                         _______ _______ _______ _____ _____    ______ ____
ROOT
ATOM      1  O   UNL     1      32.154 -22.655 -17.902  0.00  0.00    -0.473 OA
ATOM      2  N   UNL     1      33.941 -23.766 -15.718  0.00  0.00    -0.272 N 
ATOM      3  N   UNL     1      36.080 -23.335 -16.045  0.00  0.00    -0.374 NA
ATOM      4  C   UNL     1      35.942 -24.154 -14.959  0.00  0.00    +0.190 C 
ATOM      5  C   UNL     1      34.857 -23.103 -16.511  0.00  0.00    +0.188 C 
ATOM      6  C   UNL     1      32.499 -23.798 -15.831  0.00  0.00    +0.141 C 
ATOM      7  C   UNL     1      34.622 -24.440 -14.737  0.00  0.00    +0.169 C 
ATOM      8  C   UNL     1      34.584 -22.260 -17.693  0.00  0.00    +0.078 C 
ATOM      9  C   UNL     1      31.927 -22.568 -16.499  0.00  0.00    +0.227 C 
ATOM     10  C   UNL     1      33.333 -22.092 -18.310  0.00  0.00    +0.144 C 
ATOM     11  C   UNL     1      35.684 -21.596 -18.278  0.00  0.00    +0.008 C 
ATOM     12  C   UNL     1      33.210 -21.333 -19.488  0.00  0.00    +0.051 C 
ATOM     13  C   UNL     1      34.313 -20.695 -20.043  0.00  0.00    +0.048 C 
ATOM     14  C   UNL     1      35.553 -20.821 -19.434  0.00  0.00    +0.015 C 
ATOM     15  O   UNL     1      39.143 -25.065 -13.636  0.00  0.00    -0.432 OA
ATOM     16  O   UNL     1      38.801 -23.498 -15.268  0.00  0.00    -0.226 OA
ATOM     17  N   UNL     1      37.008 -24.609 -14.222  0.00  0.00    -0.194 N 
ATOM     18  C   UNL     1      36.923 -25.477 -13.069  0.00  0.00    +0.195 C 
ATOM     19  C   UNL     1      38.319 -26.066 -13.029  0.00  0.00    +0.236 C 
ATOM     20  C   UNL     1      38.350 -24.304 -14.466  0.00  0.00    +0.411 C 
ENDROOT
BRANCH  18  23
ATOM     21  F   UNL     1      35.411 -25.119 -11.319  0.00  0.00    -0.196 F 
ATOM     22  F   UNL     1      37.535 -24.978 -10.865  0.00  0.00    -0.196 F 
ATOM     23  C   UNL     1      36.600 -24.697 -11.796  0.00  0.00    +0.340 C 
ENDBRANCH  18  23
BRANCH  13  24
ATOM     24  N   UNL     1      34.172 -19.926 -21.216  0.00  0.00    -0.327 N 
ATOM     25  H   UNL     1      33.265 -19.733 -21.545  0.00  0.00    +0.147 HD
BRANCH  24  26
ATOM     26  C   UNL     1      35.289 -19.414 -21.949  0.00  0.00    +0.146 C 
ATOM     27  C   UNL     1      35.021 -19.547 -23.441  0.00  0.00    +0.031 C 
BRANCH  26  30
ATOM     28  O   UNL     1      35.604 -17.568 -20.406  0.00  0.00    -0.274 OA
ATOM     29  N   UNL     1      35.602 -17.125 -22.659  0.00  0.00    -0.327 N 
ATOM     30  C   UNL     1      35.511 -17.960 -21.567  0.00  0.00    +0.237 C 
ATOM     31  H   UNL     1      35.745 -16.160 -22.531  0.00  0.00    +0.145 HD
ATOM     32  H   UNL     1      35.522 -17.494 -23.570  0.00  0.00    +0.145 HD
ENDBRANCH  26  30
ENDBRANCH  24  26
ENDBRANCH  13  24
TORSDOF 4
ENDMDL
MODEL 2
REMARK VINA RESULT:     -11.5      0.895      1.012
REMARK  Name = 124173720
REMARK  4 active torsions:
REMARK  status: ('A' for Active; 'I' for Inactive)
REMARK    1  A    between atoms: C_13  and  N_24
REMARK    2  A    between atoms: C_18  and  C_23
REMARK    3  A    between atoms: N_24  and  C_26
REMARK    4  A    between atoms: C_26  and  C_30
REMARK                            x       y       z     vdW  Elec       q    Type
REMARK                         _______ _______ _______ _____ _____    ______ ____
ROOT
ATOM      1  O   UNL     1      32.472 -22.479 -18.267  0.00  0.00    -0.473 OA
ATOM      2  N   UNL     1      33.936 -23.635 -15.876  0.00  0.00    -0.272 N 
ATOM      3  N   UNL     1      36.120 -23.347 -15.974  0.00  0.00    -0.374 NA
ATOM      4  C   UNL     1      35.813 -24.124 -14.893  0.00  0.00    +0.190 C 
ATOM      5  C   UNL     1      34.974 -23.053 -16.577  0.00  0.00    +0.188 C 
ATOM      6  C   UNL     1      32.515 -23.581 -16.146  0.00  0.00    +0.141 C 
ATOM      7  C   UNL     1      34.461 -24.322 -14.811  0.00  0.00    +0.169 C 
ATOM      8  C   UNL     1      34.886 -22.229 -17.800  0.00  0.00    +0.078 C 
ATOM      9  C   UNL     1      32.100 -22.338 -16.900  0.00  0.00    +0.227 C 
ATOM     10  C   UNL     1      33.723 -22.001 -18.554  0.00  0.00    +0.144 C 
ATOM     11  C   UNL     1      36.083 -21.651 -18.275  0.00  0.00    +0.008 C 
ATOM     12  C   UNL     1      33.777 -21.271 -19.755  0.00  0.00    +0.051 C 
ATOM     13  C   UNL     1      34.973 -20.718 -20.199  0.00  0.00    +0.048 C 
ATOM     14  C   UNL     1      36.128 -20.903 -19.454  0.00  0.00    +0.015 C 
ATOM     15  O   UNL     1      38.786 -25.193 -13.205  0.00  0.00    -0.432 OA
ATOM     16  O   UNL     1      38.725 -23.655 -14.898  0.00  0.00    -0.226 OA
ATOM     17  N   UNL     1      36.761 -24.623 -14.033  0.00  0.00    -0.194 N 
ATOM     18  C   UNL     1      36.495 -25.451 -12.878  0.00  0.00    +0.195 C 
ATOM     19  C   UNL     1      37.838 -26.124 -12.671  0.00  0.00    +0.236 C 
ATOM     20  C   UNL     1      38.138 -24.409 -14.134  0.00  0.00    +0.411 C 
ENDROOT
BRANCH  18  23
ATOM     21  F   UNL     1      34.918 -25.090 -11.187  0.00  0.00    -0.196 F 
ATOM     22  F   UNL     1      37.015 -24.772 -10.698  0.00  0.00    -0.196 F 
ATOM     23  C   UNL     1      36.086 -24.616 -11.665  0.00  0.00    +0.340 C 
ENDBRANCH  18  23
BRANCH  13  24
ATOM     24  N   UNL     1      35.010 -19.975 -21.396  0.00  0.00    -0.327 N 
ATOM     25  H   UNL     1      34.669 -20.393 -22.219  0.00  0.00    +0.147 HD
BRANCH  24  26
ATOM     26  C   UNL     1      35.523 -18.642 -21.469  0.00  0.00    +0.146 C 
ATOM     27  C   UNL     1      37.043 -18.678 -21.416  0.00  0.00    +0.031 C 
BRANCH  26  30
ATOM     28  O   UNL     1      34.277 -18.536 -23.548  0.00  0.00    -0.274 OA
ATOM     29  N   UNL     1      35.553 -16.726 -22.942  0.00  0.00    -0.327 N 
ATOM     30  C   UNL     1      35.043 -17.992 -22.756  0.00  0.00    +0.237 C 
ATOM     31  H   UNL     1      35.310 -16.210 -23.744  0.00  0.00    +0.145 HD
ATOM     32  H   UNL     1      36.162 -16.337 -22.273  0.00  0.00    +0.145 HD
ENDBRANCH  26  30
ENDBRANCH  24  26
ENDBRANCH  13  24
TORSDOF 4
ENDMDL
MODEL 3
REMARK VINA RESULT:     -11.4      3.869      6.056
REMARK  Name = 124173720
REMARK  4 active torsions:
REMARK  status: ('A' for Active; 'I' for Inactive)
REMARK    1  A    between atoms: C_13  and  N_24
REMARK    2  A    between atoms: C_18  and  C_23
REMARK    3  A    between atoms: N_24  and  C_26
REMARK    4  A    between atoms: C_26  and  C_30
REMARK                            x       y       z     vdW  Elec       q    Type
REMARK                         _______ _______ _______ _____ _____    ______ ____
ROOT
ATOM      1  O   UNL     1      32.523 -22.426 -17.191  0.00  0.00    -0.473 OA
ATOM      2  N   UNL     1      34.908 -23.371 -15.574  0.00  0.00    -0.272 N 
ATOM      3  N   UNL     1      34.375 -23.998 -13.527  0.00  0.00    -0.374 NA
ATOM      4  C   UNL     1      35.734 -24.024 -13.671  0.00  0.00    +0.190 C 
ATOM      5  C   UNL     1      33.872 -23.593 -14.689  0.00  0.00    +0.188 C 
ATOM      6  C   UNL     1      34.847 -22.936 -16.953  0.00  0.00    +0.141 C 
ATOM      7  C   UNL     1      36.092 -23.636 -14.934  0.00  0.00    +0.169 C 
ATOM      8  C   UNL     1      32.424 -23.427 -14.934  0.00  0.00    +0.078 C 
ATOM      9  C   UNL     1      33.550 -23.307 -17.636  0.00  0.00    +0.227 C 
ATOM     10  C   UNL     1      31.846 -22.875 -16.089  0.00  0.00    +0.144 C 
ATOM     11  C   UNL     1      31.547 -23.822 -13.901  0.00  0.00    +0.008 C 
ATOM     12  C   UNL     1      30.456 -22.683 -16.174  0.00  0.00    +0.051 C 
ATOM     13  C   UNL     1      29.617 -23.078 -15.137  0.00  0.00    +0.048 C 
ATOM     14  C   UNL     1      30.163 -23.654 -14.000  0.00  0.00    +0.015 C 
ATOM     15  O   UNL     1      37.325 -24.920 -10.589  0.00  0.00    -0.432 OA
ATOM     16  O   UNL     1      35.069 -25.001 -10.969  0.00  0.00    -0.226 OA
ATOM     17  N   UNL     1      36.588 -24.393 -12.661  0.00  0.00    -0.194 N 
ATOM     18  C   UNL     1      38.031 -24.438 -12.754  0.00  0.00    +0.195 C 
ATOM     19  C   UNL     1      38.433 -24.352 -11.295  0.00  0.00    +0.236 C 
ATOM     20  C   UNL     1      36.202 -24.787 -11.377  0.00  0.00    +0.411 C 
ENDROOT
BRANCH  18  23
ATOM     21  F   UNL     1      38.825 -25.485 -14.690  0.00  0.00    -0.196 F 
ATOM     22  F   UNL     1      39.646 -26.131 -12.781  0.00  0.00    -0.196 F 
ATOM     23  C   UNL     1      38.516 -25.734 -13.401  0.00  0.00    +0.340 C 
ENDBRANCH  18  23
BRANCH  13  24
ATOM     24  N   UNL     1      28.224 -22.894 -15.242  0.00  0.00    -0.327 N 
ATOM     25  H   UNL     1      27.673 -23.010 -14.435  0.00  0.00    +0.147 HD
BRANCH  24  26
ATOM     26  C   UNL     1      27.575 -22.546 -16.469  0.00  0.00    +0.146 C 
ATOM     27  C   UNL     1      27.454 -23.782 -17.348  0.00  0.00    +0.031 C 
BRANCH  26  30
ATOM     28  O   UNL     1      25.569 -22.225 -15.142  0.00  0.00    -0.274 OA
ATOM     29  N   UNL     1      25.749 -21.113 -17.143  0.00  0.00    -0.327 N 
ATOM     30  C   UNL     1      26.205 -21.965 -16.161  0.00  0.00    +0.237 C 
ATOM     31  H   UNL     1      24.871 -20.678 -17.049  0.00  0.00    +0.145 HD
ATOM     32  H   UNL     1      26.302 -20.938 -17.940  0.00  0.00    +0.145 HD
ENDBRANCH  26  30
ENDBRANCH  24  26
ENDBRANCH  13  24
TORSDOF 4
ENDMDL
MODEL 4
REMARK VINA RESULT:     -10.8      4.050      8.837
REMARK  Name = 124173720
REMARK  4 active torsions:
REMARK  status: ('A' for Active; 'I' for Inactive)
REMARK    1  A    between atoms: C_13  and  N_24
REMARK    2  A    between atoms: C_18  and  C_23
REMARK    3  A    between atoms: N_24  and  C_26
REMARK    4  A    between atoms: C_26  and  C_30
REMARK                            x       y       z     vdW  Elec       q    Type
REMARK                         _______ _______ _______ _____ _____    ______ ____
ROOT
ATOM      1  O   UNL     1      33.814 -23.099 -16.345  0.00  0.00    -0.473 OA
ATOM      2  N   UNL     1      33.964 -21.492 -18.912  0.00  0.00    -0.272 N 
ATOM      3  N   UNL     1      35.952 -20.604 -19.264  0.00  0.00    -0.374 NA
ATOM      4  C   UNL     1      35.081 -20.160 -20.219  0.00  0.00    +0.190 C 
ATOM      5  C   UNL     1      35.268 -21.413 -18.463  0.00  0.00    +0.188 C 
ATOM      6  C   UNL     1      32.861 -22.257 -18.369  0.00  0.00    +0.141 C 
ATOM      7  C   UNL     1      33.837 -20.695 -20.021  0.00  0.00    +0.169 C 
ATOM      8  C   UNL     1      35.861 -22.092 -17.293  0.00  0.00    +0.078 C 
ATOM      9  C   UNL     1      33.307 -23.490 -17.617  0.00  0.00    +0.227 C 
ATOM     10  C   UNL     1      35.159 -22.845 -16.337  0.00  0.00    +0.144 C 
ATOM     11  C   UNL     1      37.251 -21.940 -17.096  0.00  0.00    +0.008 C 
ATOM     12  C   UNL     1      35.818 -23.372 -15.212  0.00  0.00    +0.051 C 
ATOM     13  C   UNL     1      37.187 -23.201 -15.044  0.00  0.00    +0.048 C 
ATOM     14  C   UNL     1      37.908 -22.488 -15.991  0.00  0.00    +0.015 C 
ATOM     15  O   UNL     1      36.672 -17.807 -22.401  0.00  0.00    -0.432 OA
ATOM     16  O   UNL     1      37.750 -19.055 -20.814  0.00  0.00    -0.226 OA
ATOM     17  N   UNL     1      35.444 -19.293 -21.221  0.00  0.00    -0.194 N 
ATOM     18  C   UNL     1      34.567 -18.789 -22.254  0.00  0.00    +0.195 C 
ATOM     19  C   UNL     1      35.296 -17.532 -22.685  0.00  0.00    +0.236 C 
ATOM     20  C   UNL     1      36.721 -18.758 -21.406  0.00  0.00    +0.411 C 
ENDROOT
BRANCH  18  23
ATOM     21  F   UNL     1      34.162 -19.098 -24.538  0.00  0.00    -0.196 F 
ATOM     22  F   UNL     1      35.593 -20.426 -23.576  0.00  0.00    -0.196 F 
ATOM     23  C   UNL     1      34.419 -19.783 -23.405  0.00  0.00    +0.340 C 
ENDBRANCH  18  23
BRANCH  13  24
ATOM     24  N   UNL     1      37.838 -23.747 -13.919  0.00  0.00    -0.327 N 
ATOM     25  H   UNL     1      38.822 -23.752 -13.903  0.00  0.00    +0.147 HD
BRANCH  24  26
ATOM     26  C   UNL     1      37.133 -24.295 -12.802  0.00  0.00    +0.146 C 
ATOM     27  C   UNL     1      37.520 -25.755 -12.623  0.00  0.00    +0.031 C 
BRANCH  26  30
ATOM     28  O   UNL     1      38.208 -22.509 -11.560  0.00  0.00    -0.274 OA
ATOM     29  N   UNL     1      36.854 -23.974 -10.423  0.00  0.00    -0.327 N 
ATOM     30  C   UNL     1      37.469 -23.491 -11.558  0.00  0.00    +0.237 C 
ATOM     31  H   UNL     1      37.001 -23.531  -9.556  0.00  0.00    +0.145 HD
ATOM     32  H   UNL     1      36.269 -24.764 -10.478  0.00  0.00    +0.145 HD
ENDBRANCH  26  30
ENDBRANCH  24  26
ENDBRANCH  13  24
TORSDOF 4
ENDMDL
MODEL 5
REMARK VINA RESULT:      -9.6      4.040      8.713
REMARK  Name = 124173720
REMARK  4 active torsions:
REMARK  status: ('A' for Active; 'I' for Inactive)
REMARK    1  A    between atoms: C_13  and  N_24
REMARK    2  A    between atoms: C_18  and  C_23
REMARK    3  A    between atoms: N_24  and  C_26
REMARK    4  A    between atoms: C_26  and  C_30
REMARK                            x       y       z     vdW  Elec       q    Type
REMARK                         _______ _______ _______ _____ _____    ______ ____
ROOT
ATOM      1  O   UNL     1      36.265 -23.691 -15.406  0.00  0.00    -0.473 OA
ATOM      2  N   UNL     1      36.185 -21.849 -17.813  0.00  0.00    -0.272 N 
ATOM      3  N   UNL     1      34.162 -21.617 -18.660  0.00  0.00    -0.374 NA
ATOM      4  C   UNL     1      35.066 -20.978 -19.461  0.00  0.00    +0.190 C 
ATOM      5  C   UNL     1      34.847 -22.153 -17.656  0.00  0.00    +0.188 C 
ATOM      6  C   UNL     1      37.302 -22.206 -16.965  0.00  0.00    +0.141 C 
ATOM      7  C   UNL     1      36.332 -21.110 -18.959  0.00  0.00    +0.169 C 
ATOM      8  C   UNL     1      34.221 -22.940 -16.573  0.00  0.00    +0.078 C 
ATOM      9  C   UNL     1      36.907 -22.425 -15.522  0.00  0.00    +0.227 C 
ATOM     10  C   UNL     1      34.907 -23.642 -15.568  0.00  0.00    +0.144 C 
ATOM     11  C   UNL     1      32.812 -23.025 -16.571  0.00  0.00    +0.008 C 
ATOM     12  C   UNL     1      34.206 -24.432 -14.639  0.00  0.00    +0.051 C 
ATOM     13  C   UNL     1      32.818 -24.500 -14.666  0.00  0.00    +0.048 C 
ATOM     14  C   UNL     1      32.118 -23.790 -15.630  0.00  0.00    +0.015 C 
ATOM     15  O   UNL     1      33.458 -19.599 -22.350  0.00  0.00    -0.432 OA
ATOM     16  O   UNL     1      32.367 -20.521 -20.561  0.00  0.00    -0.226 OA
ATOM     17  N   UNL     1      34.711 -20.310 -20.608  0.00  0.00    -0.194 N 
ATOM     18  C   UNL     1      35.622 -19.619 -21.494  0.00  0.00    +0.195 C 
ATOM     19  C   UNL     1      34.823 -19.579 -22.781  0.00  0.00    +0.236 C 
ATOM     20  C   UNL     1      33.411 -20.186 -21.105  0.00  0.00    +0.411 C 
ENDROOT
BRANCH  18  23
ATOM     21  F   UNL     1      37.183 -18.233 -20.437  0.00  0.00    -0.196 F 
ATOM     22  F   UNL     1      35.986 -17.372 -22.038  0.00  0.00    -0.196 F 
ATOM     23  C   UNL     1      35.952 -18.217 -20.987  0.00  0.00    +0.340 C 
ENDBRANCH  18  23
BRANCH  13  24
ATOM     24  N   UNL     1      32.127 -25.285 -13.720  0.00  0.00    -0.327 N 
ATOM     25  H   UNL     1      32.447 -26.199 -13.545  0.00  0.00    +0.147 HD
BRANCH  24  26
ATOM     26  C   UNL     1      30.983 -24.811 -13.003  0.00  0.00    +0.146 C 
ATOM     27  C   UNL     1      31.185 -23.350 -12.632  0.00  0.00    +0.031 C 
BRANCH  26  30
ATOM     28  O   UNL     1      29.161 -24.048 -14.412  0.00  0.00    -0.274 OA
ATOM     29  N   UNL     1      29.350 -26.297 -13.987  0.00  0.00    -0.327 N 
ATOM     30  C   UNL     1      29.747 -24.982 -13.869  0.00  0.00    +0.237 C 
ATOM     31  H   UNL     1      28.559 -26.526 -14.525  0.00  0.00    +0.145 HD
ATOM     32  H   UNL     1      29.858 -27.008 -13.531  0.00  0.00    +0.145 HD
ENDBRANCH  26  30
ENDBRANCH  24  26
ENDBRANCH  13  24
TORSDOF 4
ENDMDL
MODEL 6
REMARK VINA RESULT:      -9.3      7.943     12.183
REMARK  Name = 124173720
REMARK  4 active torsions:
REMARK  status: ('A' for Active; 'I' for Inactive)
REMARK    1  A    between atoms: C_13  and  N_24
REMARK    2  A    between atoms: C_18  and  C_23
REMARK    3  A    between atoms: N_24  and  C_26
REMARK    4  A    between atoms: C_26  and  C_30
REMARK                            x       y       z     vdW  Elec       q    Type
REMARK                         _______ _______ _______ _____ _____    ______ ____
ROOT
ATOM      1  O   UNL     1      33.311 -11.413 -25.556  0.00  0.00    -0.473 OA
ATOM      2  N   UNL     1      34.082 -14.168 -24.550  0.00  0.00    -0.272 N 
ATOM      3  N   UNL     1      34.200 -14.287 -22.351  0.00  0.00    -0.374 NA
ATOM      4  C   UNL     1      34.628 -15.466 -22.893  0.00  0.00    +0.190 C 
ATOM      5  C   UNL     1      33.871 -13.493 -23.364  0.00  0.00    +0.188 C 
ATOM      6  C   UNL     1      33.855 -13.715 -25.906  0.00  0.00    +0.141 C 
ATOM      7  C   UNL     1      34.567 -15.418 -24.260  0.00  0.00    +0.169 C 
ATOM      8  C   UNL     1      33.367 -12.115 -23.188  0.00  0.00    +0.078 C 
ATOM      9  C   UNL     1      32.781 -12.656 -26.007  0.00  0.00    +0.227 C 
ATOM     10  C   UNL     1      33.136 -11.188 -24.217  0.00  0.00    +0.144 C 
ATOM     11  C   UNL     1      33.133 -11.680 -21.865  0.00  0.00    +0.008 C 
ATOM     12  C   UNL     1      32.739  -9.872 -23.922  0.00  0.00    +0.051 C 
ATOM     13  C   UNL     1      32.522  -9.471 -22.608  0.00  0.00    +0.048 C 
ATOM     14  C   UNL     1      32.714 -10.379 -21.577  0.00  0.00    +0.015 C 
ATOM     15  O   UNL     1      35.742 -17.714 -20.337  0.00  0.00    -0.432 OA
ATOM     16  O   UNL     1      34.674 -15.726 -19.956  0.00  0.00    -0.226 OA
ATOM     17  N   UNL     1      35.056 -16.529 -22.135  0.00  0.00    -0.194 N 
ATOM     18  C   UNL     1      35.520 -17.797 -22.652  0.00  0.00    +0.195 C 
ATOM     19  C   UNL     1      36.341 -18.317 -21.489  0.00  0.00    +0.236 C 
ATOM     20  C   UNL     1      35.110 -16.559 -20.739  0.00  0.00    +0.411 C 
ENDROOT
BRANCH  18  23
ATOM     21  F   UNL     1      34.485 -19.132 -24.272  0.00  0.00    -0.196 F 
ATOM     22  F   UNL     1      34.443 -19.828 -22.210  0.00  0.00    -0.196 F 
ATOM     23  C   UNL     1      34.359 -18.730 -22.991  0.00  0.00    +0.340 C 
ENDBRANCH  18  23
BRANCH  13  24
ATOM     24  N   UNL     1      32.110  -8.152 -22.327  0.00  0.00    -0.327 N 
ATOM     25  H   UNL     1      31.177  -7.903 -22.512  0.00  0.00    +0.147 HD
BRANCH  24  26
ATOM     26  C   UNL     1      32.990  -7.162 -21.786  0.00  0.00    +0.146 C 
ATOM     27  C   UNL     1      33.027  -5.956 -22.713  0.00  0.00    +0.031 C 
BRANCH  26  30
ATOM     28  O   UNL     1      31.638  -5.915 -20.204  0.00  0.00    -0.274 OA
ATOM     29  N   UNL     1      33.129  -7.461 -19.392  0.00  0.00    -0.327 N 
ATOM     30  C   UNL     1      32.502  -6.765 -20.403  0.00  0.00    +0.237 C 
ATOM     31  H   UNL     1      32.892  -7.285 -18.453  0.00  0.00    +0.145 HD
ATOM     32  H   UNL     1      33.814  -8.134 -19.608  0.00  0.00    +0.145 HD
ENDBRANCH  26  30
ENDBRANCH  24  26
ENDBRANCH  13  24
TORSDOF 4
ENDMDL
MODEL 7
REMARK VINA RESULT:      -9.0      1.504      2.134
REMARK  Name = 124173720
REMARK  4 active torsions:
REMARK  status: ('A' for Active; 'I' for Inactive)
REMARK    1  A    between atoms: C_13  and  N_24
REMARK    2  A    between atoms: C_18  and  C_23
REMARK    3  A    between atoms: N_24  and  C_26
REMARK    4  A    between atoms: C_26  and  C_30
REMARK                            x       y       z     vdW  Elec       q    Type
REMARK                         _______ _______ _______ _____ _____    ______ ____
ROOT
ATOM      1  O   UNL     1      33.290 -21.105 -20.148  0.00  0.00    -0.473 OA
ATOM      2  N   UNL     1      34.184 -22.487 -17.601  0.00  0.00    -0.272 N 
ATOM      3  N   UNL     1      36.339 -22.251 -17.197  0.00  0.00    -0.374 NA
ATOM      4  C   UNL     1      35.795 -23.103 -16.277  0.00  0.00    +0.190 C 
ATOM      5  C   UNL     1      35.355 -21.879 -18.008  0.00  0.00    +0.188 C 
ATOM      6  C   UNL     1      32.857 -22.373 -18.168  0.00  0.00    +0.141 C 
ATOM      7  C   UNL     1      34.457 -23.269 -16.508  0.00  0.00    +0.169 C 
ATOM      8  C   UNL     1      35.545 -20.958 -19.148  0.00  0.00    +0.078 C 
ATOM      9  C   UNL     1      32.629 -21.063 -18.887  0.00  0.00    +0.227 C 
ATOM     10  C   UNL     1      34.577 -20.640 -20.116  0.00  0.00    +0.144 C 
ATOM     11  C   UNL     1      36.822 -20.377 -19.301  0.00  0.00    +0.008 C 
ATOM     12  C   UNL     1      34.900 -19.819 -21.210  0.00  0.00    +0.051 C 
ATOM     13  C   UNL     1      36.169 -19.265 -21.336  0.00  0.00    +0.048 C 
ATOM     14  C   UNL     1      37.132 -19.540 -20.376  0.00  0.00    +0.015 C 
ATOM     15  O   UNL     1      38.317 -24.382 -14.078  0.00  0.00    -0.432 OA
ATOM     16  O   UNL     1      38.642 -22.714 -15.610  0.00  0.00    -0.226 OA
ATOM     17  N   UNL     1      36.528 -23.693 -15.276  0.00  0.00    -0.194 N 
ATOM     18  C   UNL     1      36.008 -24.603 -14.279  0.00  0.00    +0.195 C 
ATOM     19  C   UNL     1      37.266 -25.326 -13.842  0.00  0.00    +0.236 C 
ATOM     20  C   UNL     1      37.896 -23.510 -15.057  0.00  0.00    +0.411 C 
ENDROOT
BRANCH  18  23
ATOM     21  F   UNL     1      34.018 -23.838 -13.316  0.00  0.00    -0.196 F 
ATOM     22  F   UNL     1      35.585 -24.536 -11.978  0.00  0.00    -0.196 F 
ATOM     23  C   UNL     1      35.351 -23.856 -13.119  0.00  0.00    +0.340 C 
ENDBRANCH  18  23
BRANCH  13  24
ATOM     24  N   UNL     1      36.475 -18.432 -22.431  0.00  0.00    -0.327 N 
ATOM     25  H   UNL     1      37.420 -18.273 -22.650  0.00  0.00    +0.147 HD
BRANCH  24  26
ATOM     26  C   UNL     1      35.471 -17.806 -23.236  0.00  0.00    +0.146 C 
ATOM     27  C   UNL     1      34.300 -18.760 -23.420  0.00  0.00    +0.031 C 
BRANCH  26  30
ATOM     28  O   UNL     1      35.141 -16.306 -21.358  0.00  0.00    -0.274 OA
ATOM     29  N   UNL     1      34.466 -15.618 -23.443  0.00  0.00    -0.327 N 
ATOM     30  C   UNL     1      35.021 -16.521 -22.562  0.00  0.00    +0.237 C 
ATOM     31  H   UNL     1      34.138 -14.749 -23.116  0.00  0.00    +0.145 HD
ATOM     32  H   UNL     1      34.397 -15.841 -24.400  0.00  0.00    +0.145 HD
ENDBRANCH  26  30
ENDBRANCH  24  26
ENDBRANCH  13  24
TORSDOF 4
ENDMDL
