MODEL 1
REMARK VINA RESULT:     -11.7      0.000      0.000
REMARK  Name = 46892373
REMARK  3 active torsions:
REMARK  status: ('A' for Active; 'I' for Inactive)
REMARK    1  A    between atoms: C_7  and  C_20
REMARK    2  A    between atoms: C_20  and  C_22
REMARK    3  A    between atoms: C_20  and  O_28
REMARK                            x       y       z     vdW  Elec       q    Type
REMARK                         _______ _______ _______ _____ _____    ______ ____
ROOT
ATOM      1  N   UNL     1      34.156 -23.758 -16.807  0.00  0.00    -0.326 NA
ATOM      2  N   UNL     1      34.745 -24.471 -14.643  0.00  0.00    -0.271 N 
ATOM      3  N   UNL     1      31.971 -22.842 -17.248  0.00  0.00    -0.345 NA
ATOM      4  N   UNL     1      38.167 -24.060 -15.061  0.00  0.00    -0.239 N 
ATOM      5  N   UNL     1      36.927 -23.804 -15.510  0.00  0.00    -0.166 NA
ATOM      6  C   UNL     1      32.531 -23.559 -15.028  0.00  0.00    +0.072 C 
ATOM      7  C   UNL     1      33.215 -23.225 -17.601  0.00  0.00    +0.146 C 
ATOM      8  C   UNL     1      33.784 -23.912 -15.523  0.00  0.00    +0.199 C 
ATOM      9  C   UNL     1      31.631 -23.011 -15.957  0.00  0.00    +0.129 C 
ATOM     10  C   UNL     1      32.165 -23.730 -13.682  0.00  0.00    +0.006 C 
ATOM     11  C   UNL     1      30.367 -22.644 -15.500  0.00  0.00    +0.086 C 
ATOM     12  C   UNL     1      36.148 -24.432 -14.625  0.00  0.00    +0.152 C 
ATOM     13  C   UNL     1      30.896 -23.356 -13.252  0.00  0.00    -0.004 C 
ATOM     14  C   UNL     1      29.997 -22.812 -14.163  0.00  0.00    -0.019 C 
ATOM     15  C   UNL     1      36.885 -25.085 -13.619  0.00  0.00    +0.048 C 
ATOM     16  C   UNL     1      38.197 -24.823 -13.931  0.00  0.00    +0.046 C 
ATOM     17  C   UNL     1      39.459 -25.215 -13.283  0.00  0.00    +0.049 C 
ATOM     18  H   UNL     1      34.353 -24.987 -13.902  0.00  0.00    +0.156 HD
ATOM     19  H   UNL     1      38.979 -23.727 -15.507  0.00  0.00    +0.174 HD
ENDROOT
BRANCH   7  20
ATOM     20  C   UNL     1      33.583 -23.034 -19.035  0.00  0.00    +0.243 C 
BRANCH  20  22
ATOM     21  F   UNL     1      37.439 -18.987 -19.880  0.00  0.00    -0.204 F 
ATOM     22  C   UNL     1      34.623 -21.943 -19.262  0.00  0.00    +0.021 C 
ATOM     23  C   UNL     1      34.344 -20.885 -20.127  0.00  0.00    +0.001 C 
ATOM     24  C   UNL     1      35.852 -22.003 -18.607  0.00  0.00    +0.001 C 
ATOM     25  C   UNL     1      35.295 -19.885 -20.335  0.00  0.00    +0.029 C 
ATOM     26  C   UNL     1      36.805 -21.005 -18.816  0.00  0.00    +0.029 C 
ATOM     27  C   UNL     1      36.525 -19.946 -19.680  0.00  0.00    +0.140 C 
ENDBRANCH  20  22
BRANCH  20  28
ATOM     28  O   UNL     1      34.035 -24.256 -19.647  0.00  0.00    -0.366 OA
ATOM     29  H   UNL     1      33.938 -24.191 -20.610  0.00  0.00    +0.212 HD
ENDBRANCH  20  28
ENDBRANCH   7  20
TORSDOF 3
ENDMDL
MODEL 2
REMARK VINA RESULT:     -11.4      2.872      7.000
REMARK  Name = 46892373
REMARK  3 active torsions:
REMARK  status: ('A' for Active; 'I' for Inactive)
REMARK    1  A    between atoms: C_7  and  C_20
REMARK    2  A    between atoms: C_20  and  C_22
REMARK    3  A    between atoms: C_20  and  O_28
REMARK                            x       y       z     vdW  Elec       q    Type
REMARK                         _______ _______ _______ _____ _____    ______ ____
ROOT
ATOM      1  N   UNL     1      33.554 -23.504 -15.483  0.00  0.00    -0.326 NA
ATOM      2  N   UNL     1      31.761 -22.875 -16.872  0.00  0.00    -0.271 N 
ATOM      3  N   UNL     1      35.828 -23.023 -16.118  0.00  0.00    -0.345 NA
ATOM      4  N   UNL     1      29.395 -22.721 -14.336  0.00  0.00    -0.239 N 
ATOM      5  N   UNL     1      30.692 -22.777 -14.680  0.00  0.00    -0.166 NA
ATOM      6  C   UNL     1      34.029 -22.365 -17.562  0.00  0.00    +0.072 C 
ATOM      7  C   UNL     1      34.882 -23.520 -15.295  0.00  0.00    +0.146 C 
ATOM      8  C   UNL     1      33.157 -22.917 -16.628  0.00  0.00    +0.199 C 
ATOM      9  C   UNL     1      35.397 -22.445 -17.253  0.00  0.00    +0.129 C 
ATOM     10  C   UNL     1      33.591 -21.759 -18.751  0.00  0.00    +0.006 C 
ATOM     11  C   UNL     1      36.302 -21.902 -18.163  0.00  0.00    +0.086 C 
ATOM     12  C   UNL     1      30.651 -22.813 -16.014  0.00  0.00    +0.152 C 
ATOM     13  C   UNL     1      34.516 -21.226 -19.643  0.00  0.00    -0.004 C 
ATOM     14  C   UNL     1      35.873 -21.297 -19.348  0.00  0.00    -0.019 C 
ATOM     15  C   UNL     1      29.338 -22.780 -16.519  0.00  0.00    +0.048 C 
ATOM     16  C   UNL     1      28.542 -22.720 -15.401  0.00  0.00    +0.046 C 
ATOM     17  C   UNL     1      27.081 -22.664 -15.236  0.00  0.00    +0.049 C 
ATOM     18  H   UNL     1      31.524 -22.893 -17.827  0.00  0.00    +0.156 HD
ATOM     19  H   UNL     1      29.088 -22.684 -13.401  0.00  0.00    +0.174 HD
ENDROOT
BRANCH   7  20
ATOM     20  C   UNL     1      35.369 -24.160 -14.038  0.00  0.00    +0.243 C 
BRANCH  20  22
ATOM     21  F   UNL     1      40.170 -27.076 -14.672  0.00  0.00    -0.204 F 
ATOM     22  C   UNL     1      36.663 -24.946 -14.210  0.00  0.00    +0.021 C 
ATOM     23  C   UNL     1      36.631 -26.235 -14.742  0.00  0.00    +0.001 C 
ATOM     24  C   UNL     1      37.880 -24.378 -13.833  0.00  0.00    +0.001 C 
ATOM     25  C   UNL     1      37.816 -26.955 -14.899  0.00  0.00    +0.029 C 
ATOM     26  C   UNL     1      39.065 -25.097 -13.989  0.00  0.00    +0.029 C 
ATOM     27  C   UNL     1      39.032 -26.386 -14.522  0.00  0.00    +0.140 C 
ENDBRANCH  20  22
BRANCH  20  28
ATOM     28  O   UNL     1      35.529 -23.209 -12.969  0.00  0.00    -0.366 OA
ATOM     29  H   UNL     1      35.430 -23.661 -12.117  0.00  0.00    +0.212 HD
ENDBRANCH  20  28
ENDBRANCH   7  20
TORSDOF 3
ENDMDL
MODEL 3
REMARK VINA RESULT:     -11.0      3.032      6.694
REMARK  Name = 46892373
REMARK  3 active torsions:
REMARK  status: ('A' for Active; 'I' for Inactive)
REMARK    1  A    between atoms: C_7  and  C_20
REMARK    2  A    between atoms: C_20  and  C_22
REMARK    3  A    between atoms: C_20  and  O_28
REMARK                            x       y       z     vdW  Elec       q    Type
REMARK                         _______ _______ _______ _____ _____    ______ ____
ROOT
ATOM      1  N   UNL     1      35.542 -23.107 -15.946  0.00  0.00    -0.326 NA
ATOM      2  N   UNL     1      33.311 -23.284 -16.671  0.00  0.00    -0.271 N 
ATOM      3  N   UNL     1      37.161 -21.874 -17.237  0.00  0.00    -0.345 NA
ATOM      4  N   UNL     1      31.963 -23.822 -13.517  0.00  0.00    -0.239 N 
ATOM      5  N   UNL     1      33.014 -23.424 -14.252  0.00  0.00    -0.166 NA
ATOM      6  C   UNL     1      34.896 -22.031 -18.011  0.00  0.00    +0.072 C 
ATOM      7  C   UNL     1      36.771 -22.621 -16.185  0.00  0.00    +0.146 C 
ATOM      8  C   UNL     1      34.625 -22.794 -16.879  0.00  0.00    +0.199 C 
ATOM      9  C   UNL     1      36.219 -21.580 -18.151  0.00  0.00    +0.129 C 
ATOM     10  C   UNL     1      33.920 -21.717 -18.973  0.00  0.00    +0.006 C 
ATOM     11  C   UNL     1      36.530 -20.812 -19.271  0.00  0.00    +0.086 C 
ATOM     12  C   UNL     1      32.580 -23.571 -15.507  0.00  0.00    +0.152 C 
ATOM     13  C   UNL     1      34.258 -20.949 -20.082  0.00  0.00    -0.004 C 
ATOM     14  C   UNL     1      35.564 -20.496 -20.231  0.00  0.00    -0.019 C 
ATOM     15  C   UNL     1      31.262 -24.059 -15.572  0.00  0.00    +0.048 C 
ATOM     16  C   UNL     1      30.888 -24.212 -14.260  0.00  0.00    +0.046 C 
ATOM     17  C   UNL     1      29.638 -24.684 -13.642  0.00  0.00    +0.049 C 
ATOM     18  H   UNL     1      32.815 -23.458 -17.503  0.00  0.00    +0.156 HD
ATOM     19  H   UNL     1      31.968 -23.831 -12.532  0.00  0.00    +0.174 HD
ENDROOT
BRANCH   7  20
ATOM     20  C   UNL     1      37.822 -22.944 -15.176  0.00  0.00    +0.243 C 
BRANCH  20  22
ATOM     21  F   UNL     1      35.835 -25.538 -10.562  0.00  0.00    -0.204 F 
ATOM     22  C   UNL     1      37.286 -23.643 -13.932  0.00  0.00    +0.021 C 
ATOM     23  C   UNL     1      36.777 -22.891 -12.874  0.00  0.00    +0.001 C 
ATOM     24  C   UNL     1      37.305 -25.036 -13.852  0.00  0.00    +0.001 C 
ATOM     25  C   UNL     1      36.286 -23.531 -11.735  0.00  0.00    +0.029 C 
ATOM     26  C   UNL     1      36.815 -25.676 -12.713  0.00  0.00    +0.029 C 
ATOM     27  C   UNL     1      36.306 -24.923 -11.655  0.00  0.00    +0.140 C 
ENDBRANCH  20  22
BRANCH  20  28
ATOM     28  O   UNL     1      38.892 -23.726 -15.736  0.00  0.00    -0.366 OA
ATOM     29  H   UNL     1      39.744 -23.377 -15.429  0.00  0.00    +0.212 HD
ENDBRANCH  20  28
ENDBRANCH   7  20
TORSDOF 3
ENDMDL
MODEL 4
REMARK VINA RESULT:     -10.9      2.919      5.832
REMARK  Name = 46892373
REMARK  3 active torsions:
REMARK  status: ('A' for Active; 'I' for Inactive)
REMARK    1  A    between atoms: C_7  and  C_20
REMARK    2  A    between atoms: C_20  and  C_22
REMARK    3  A    between atoms: C_20  and  O_28
REMARK                            x       y       z     vdW  Elec       q    Type
REMARK                         _______ _______ _______ _____ _____    ______ ____
ROOT
ATOM      1  N   UNL     1      33.468 -23.161 -16.340  0.00  0.00    -0.326 NA
ATOM      2  N   UNL     1      35.781 -23.172 -15.906  0.00  0.00    -0.271 N 
ATOM      3  N   UNL     1      32.591 -22.061 -18.297  0.00  0.00    -0.345 NA
ATOM      4  N   UNL     1      35.759 -26.065 -13.986  0.00  0.00    -0.239 N 
ATOM      5  N   UNL     1      35.111 -25.271 -14.856  0.00  0.00    -0.166 NA
ATOM      6  C   UNL     1      34.955 -22.049 -17.889  0.00  0.00    +0.072 C 
ATOM      7  C   UNL     1      32.477 -22.771 -17.157  0.00  0.00    +0.146 C 
ATOM      8  C   UNL     1      34.699 -22.784 -16.735  0.00  0.00    +0.199 C 
ATOM      9  C   UNL     1      33.834 -21.700 -18.661  0.00  0.00    +0.129 C 
ATOM     10  C   UNL     1      36.249 -21.667 -18.280  0.00  0.00    +0.006 C 
ATOM     11  C   UNL     1      34.050 -20.965 -19.825  0.00  0.00    +0.086 C 
ATOM     12  C   UNL     1      35.979 -24.277 -15.062  0.00  0.00    +0.152 C 
ATOM     13  C   UNL     1      36.436 -20.932 -19.447  0.00  0.00    -0.004 C 
ATOM     14  C   UNL     1      35.335 -20.581 -20.220  0.00  0.00    -0.019 C 
ATOM     15  C   UNL     1      37.170 -24.434 -14.330  0.00  0.00    +0.048 C 
ATOM     16  C   UNL     1      36.996 -25.608 -13.639  0.00  0.00    +0.046 C 
ATOM     17  C   UNL     1      37.864 -26.333 -12.697  0.00  0.00    +0.049 C 
ATOM     18  H   UNL     1      36.540 -22.546 -15.923  0.00  0.00    +0.156 HD
ATOM     19  H   UNL     1      35.375 -26.900 -13.632  0.00  0.00    +0.174 HD
ENDROOT
BRANCH   7  20
ATOM     20  C   UNL     1      31.094 -23.167 -16.759  0.00  0.00    +0.243 C 
BRANCH  20  22
ATOM     21  F   UNL     1      30.746 -25.293 -11.532  0.00  0.00    -0.204 F 
ATOM     22  C   UNL     1      31.000 -23.740 -15.350  0.00  0.00    +0.021 C 
ATOM     23  C   UNL     1      31.512 -23.022 -14.269  0.00  0.00    +0.001 C 
ATOM     24  C   UNL     1      30.402 -24.983 -15.140  0.00  0.00    +0.001 C 
ATOM     25  C   UNL     1      31.426 -23.546 -12.979  0.00  0.00    +0.029 C 
ATOM     26  C   UNL     1      30.317 -25.508 -13.850  0.00  0.00    +0.029 C 
ATOM     27  C   UNL     1      30.829 -24.789 -12.770  0.00  0.00    +0.140 C 
ENDBRANCH  20  22
BRANCH  20  28
ATOM     28  O   UNL     1      30.157 -22.083 -16.894  0.00  0.00    -0.366 OA
ATOM     29  H   UNL     1      30.526 -21.283 -16.489  0.00  0.00    +0.212 HD
ENDBRANCH  20  28
ENDBRANCH   7  20
TORSDOF 3
ENDMDL
MODEL 5
REMARK VINA RESULT:     -10.7      3.004      5.687
REMARK  Name = 46892373
REMARK  3 active torsions:
REMARK  status: ('A' for Active; 'I' for Inactive)
REMARK    1  A    between atoms: C_7  and  C_20
REMARK    2  A    between atoms: C_20  and  C_22
REMARK    3  A    between atoms: C_20  and  O_28
REMARK                            x       y       z     vdW  Elec       q    Type
REMARK                         _______ _______ _______ _____ _____    ______ ____
ROOT
ATOM      1  N   UNL     1      34.168 -23.737 -14.998  0.00  0.00    -0.326 NA
ATOM      2  N   UNL     1      36.426 -23.411 -15.572  0.00  0.00    -0.271 N 
ATOM      3  N   UNL     1      32.406 -22.974 -16.455  0.00  0.00    -0.345 NA
ATOM      4  N   UNL     1      37.649 -26.058 -13.689  0.00  0.00    -0.239 N 
ATOM      5  N   UNL     1      36.586 -25.451 -14.242  0.00  0.00    -0.166 NA
ATOM      6  C   UNL     1      34.696 -22.622 -17.077  0.00  0.00    +0.072 C 
ATOM      7  C   UNL     1      32.881 -23.566 -15.340  0.00  0.00    +0.146 C 
ATOM      8  C   UNL     1      35.053 -23.254 -15.889  0.00  0.00    +0.199 C 
ATOM      9  C   UNL     1      33.318 -22.502 -17.323  0.00  0.00    +0.129 C 
ATOM     10  C   UNL     1      35.639 -22.125 -17.991  0.00  0.00    +0.006 C 
ATOM     11  C   UNL     1      32.920 -21.876 -18.502  0.00  0.00    +0.086 C 
ATOM     12  C   UNL     1      37.124 -24.384 -14.839  0.00  0.00    +0.152 C 
ATOM     13  C   UNL     1      35.215 -21.503 -19.161  0.00  0.00    -0.004 C 
ATOM     14  C   UNL     1      33.854 -21.380 -19.417  0.00  0.00    -0.019 C 
ATOM     15  C   UNL     1      38.519 -24.310 -14.667  0.00  0.00    +0.048 C 
ATOM     16  C   UNL     1      38.830 -25.415 -13.913  0.00  0.00    +0.046 C 
ATOM     17  C   UNL     1      40.110 -25.919 -13.390  0.00  0.00    +0.049 C 
ATOM     18  H   UNL     1      37.002 -22.700 -15.936  0.00  0.00    +0.156 HD
ATOM     19  H   UNL     1      37.581 -26.891 -13.168  0.00  0.00    +0.174 HD
ENDROOT
BRANCH   7  20
ATOM     20  C   UNL     1      31.863 -24.087 -14.381  0.00  0.00    +0.243 C 
BRANCH  20  22
ATOM     21  F   UNL     1      26.540 -22.801 -15.786  0.00  0.00    -0.204 F 
ATOM     22  C   UNL     1      30.428 -23.739 -14.760  0.00  0.00    +0.021 C 
ATOM     23  C   UNL     1      29.858 -22.547 -14.314  0.00  0.00    +0.001 C 
ATOM     24  C   UNL     1      29.684 -24.615 -15.552  0.00  0.00    +0.001 C 
ATOM     25  C   UNL     1      28.544 -22.230 -14.661  0.00  0.00    +0.029 C 
ATOM     26  C   UNL     1      28.370 -24.298 -15.899  0.00  0.00    +0.029 C 
ATOM     27  C   UNL     1      27.801 -23.105 -15.453  0.00  0.00    +0.140 C 
ENDBRANCH  20  22
BRANCH  20  28
ATOM     28  O   UNL     1      31.972 -25.509 -14.190  0.00  0.00    -0.366 OA
ATOM     29  H   UNL     1      31.160 -25.844 -13.779  0.00  0.00    +0.212 HD
ENDBRANCH  20  28
ENDBRANCH   7  20
TORSDOF 3
ENDMDL
MODEL 6
REMARK VINA RESULT:     -10.5      3.131      7.281
REMARK  Name = 46892373
REMARK  3 active torsions:
REMARK  status: ('A' for Active; 'I' for Inactive)
REMARK    1  A    between atoms: C_7  and  C_20
REMARK    2  A    between atoms: C_20  and  C_22
REMARK    3  A    between atoms: C_20  and  O_28
REMARK                            x       y       z     vdW  Elec       q    Type
REMARK                         _______ _______ _______ _____ _____    ______ ____
ROOT
ATOM      1  N   UNL     1      32.596 -23.916 -15.195  0.00  0.00    -0.326 NA
ATOM      2  N   UNL     1      31.039 -22.964 -16.681  0.00  0.00    -0.271 N 
ATOM      3  N   UNL     1      34.963 -23.689 -15.582  0.00  0.00    -0.345 NA
ATOM      4  N   UNL     1      28.470 -22.686 -14.362  0.00  0.00    -0.239 N 
ATOM      5  N   UNL     1      29.779 -22.885 -14.592  0.00  0.00    -0.166 NA
ATOM      6  C   UNL     1      33.409 -22.704 -17.121  0.00  0.00    +0.072 C 
ATOM      7  C   UNL     1      33.887 -24.117 -14.891  0.00  0.00    +0.146 C 
ATOM      8  C   UNL     1      32.389 -23.203 -16.318  0.00  0.00    +0.199 C 
ATOM      9  C   UNL     1      34.720 -22.981 -16.700  0.00  0.00    +0.129 C 
ATOM     10  C   UNL     1      33.168 -21.963 -18.291  0.00  0.00    +0.006 C 
ATOM     11  C   UNL     1      35.770 -22.496 -17.477  0.00  0.00    +0.086 C 
ATOM     12  C   UNL     1      29.866 -22.820 -15.923  0.00  0.00    +0.152 C 
ATOM     13  C   UNL     1      34.235 -21.491 -19.049  0.00  0.00    -0.004 C 
ATOM     14  C   UNL     1      35.537 -21.758 -18.641  0.00  0.00    -0.019 C 
ATOM     15  C   UNL     1      28.623 -22.582 -16.539  0.00  0.00    +0.048 C 
ATOM     16  C   UNL     1      27.734 -22.500 -15.495  0.00  0.00    +0.046 C 
ATOM     17  C   UNL     1      26.281 -22.268 -15.456  0.00  0.00    +0.049 C 
ATOM     18  H   UNL     1      30.897 -22.883 -17.652  0.00  0.00    +0.156 HD
ATOM     19  H   UNL     1      28.079 -22.676 -13.458  0.00  0.00    +0.174 HD
ENDROOT
BRANCH   7  20
ATOM     20  C   UNL     1      34.165 -24.902 -13.653  0.00  0.00    +0.243 C 
BRANCH  20  22
ATOM     21  F   UNL     1      39.097 -23.627 -11.202  0.00  0.00    -0.204 F 
ATOM     22  C   UNL     1      35.495 -24.558 -12.993  0.00  0.00    +0.021 C 
ATOM     23  C   UNL     1      36.661 -25.215 -13.388  0.00  0.00    +0.001 C 
ATOM     24  C   UNL     1      35.547 -23.588 -11.992  0.00  0.00    +0.001 C 
ATOM     25  C   UNL     1      37.878 -24.900 -12.784  0.00  0.00    +0.029 C 
ATOM     26  C   UNL     1      36.764 -23.273 -11.387  0.00  0.00    +0.029 C 
ATOM     27  C   UNL     1      37.929 -23.930 -11.783  0.00  0.00    +0.140 C 
ENDBRANCH  20  22
BRANCH  20  28
ATOM     28  O   UNL     1      33.109 -24.782 -12.683  0.00  0.00    -0.366 OA
ATOM     29  H   UNL     1      32.555 -25.578 -12.708  0.00  0.00    +0.212 HD
ENDBRANCH  20  28
ENDBRANCH   7  20
TORSDOF 3
ENDMDL
MODEL 7
REMARK VINA RESULT:      -9.3      2.090      2.371
REMARK  Name = 46892373
REMARK  3 active torsions:
REMARK  status: ('A' for Active; 'I' for Inactive)
REMARK    1  A    between atoms: C_7  and  C_20
REMARK    2  A    between atoms: C_20  and  C_22
REMARK    3  A    between atoms: C_20  and  O_28
REMARK                            x       y       z     vdW  Elec       q    Type
REMARK                         _______ _______ _______ _____ _____    ______ ____
ROOT
ATOM      1  N   UNL     1      34.337 -23.467 -15.573  0.00  0.00    -0.326 NA
ATOM      2  N   UNL     1      33.662 -24.091 -13.407  0.00  0.00    -0.271 N 
ATOM      3  N   UNL     1      32.715 -22.777 -17.216  0.00  0.00    -0.345 NA
ATOM      4  N   UNL     1      36.687 -23.351 -11.874  0.00  0.00    -0.239 N 
ATOM      5  N   UNL     1      35.898 -23.224 -12.953  0.00  0.00    -0.166 NA
ATOM      6  C   UNL     1      31.985 -23.406 -15.019  0.00  0.00    +0.072 C 
ATOM      7  C   UNL     1      33.967 -23.040 -16.790  0.00  0.00    +0.146 C 
ATOM      8  C   UNL     1      33.321 -23.641 -14.708  0.00  0.00    +0.199 C 
ATOM      9  C   UNL     1      31.723 -22.962 -16.326  0.00  0.00    +0.129 C 
ATOM     10  C   UNL     1      30.941 -23.596 -14.098  0.00  0.00    +0.006 C 
ATOM     11  C   UNL     1      30.398 -22.716 -16.676  0.00  0.00    +0.086 C 
ATOM     12  C   UNL     1      34.806 -23.914 -12.613  0.00  0.00    +0.152 C 
ATOM     13  C   UNL     1      29.626 -23.343 -14.474  0.00  0.00    -0.004 C 
ATOM     14  C   UNL     1      29.355 -22.902 -15.764  0.00  0.00    -0.019 C 
ATOM     15  C   UNL     1      34.898 -24.478 -11.327  0.00  0.00    +0.048 C 
ATOM     16  C   UNL     1      36.136 -24.093 -10.872  0.00  0.00    +0.046 C 
ATOM     17  C   UNL     1      36.841 -24.350  -9.606  0.00  0.00    +0.049 C 
ATOM     18  H   UNL     1      32.962 -24.634 -12.979  0.00  0.00    +0.156 HD
ATOM     19  H   UNL     1      37.583 -22.945 -11.812  0.00  0.00    +0.174 HD
ENDROOT
BRANCH   7  20
ATOM     20  C   UNL     1      35.061 -22.832 -17.784  0.00  0.00    +0.243 C 
BRANCH  20  22
ATOM     21  F   UNL     1      33.803 -19.068 -21.810  0.00  0.00    -0.204 F 
ATOM     22  C   UNL     1      34.721 -21.817 -18.869  0.00  0.00    +0.021 C 
ATOM     23  C   UNL     1      33.391 -21.588 -19.218  0.00  0.00    +0.001 C 
ATOM     24  C   UNL     1      35.742 -21.119 -19.515  0.00  0.00    +0.001 C 
ATOM     25  C   UNL     1      33.080 -20.659 -20.211  0.00  0.00    +0.029 C 
ATOM     26  C   UNL     1      35.432 -20.190 -20.509  0.00  0.00    +0.029 C 
ATOM     27  C   UNL     1      34.100 -19.960 -20.857  0.00  0.00    +0.140 C 
ENDBRANCH  20  22
BRANCH  20  28
ATOM     28  O   UNL     1      36.302 -22.461 -17.158  0.00  0.00    -0.366 OA
ATOM     29  H   UNL     1      36.985 -22.341 -17.837  0.00  0.00    +0.212 HD
ENDBRANCH  20  28
ENDBRANCH   7  20
TORSDOF 3
ENDMDL
