MODEL 1
REMARK VINA RESULT:     -11.5      0.000      0.000
REMARK  Name = 11476460
REMARK  8 active torsions:
REMARK  status: ('A' for Active; 'I' for Inactive)
REMARK    1  A    between atoms: C_2  and  N_10
REMARK    2  A    between atoms: C_5  and  C_23
REMARK    3  A    between atoms: C_11  and  C_14
REMARK    4  A    between atoms: C_14  and  O_15
REMARK    5  A    between atoms: O_15  and  P_16
REMARK    6  A    between atoms: P_16  and  O_18
REMARK    7  A    between atoms: P_16  and  O_20
REMARK    8  A    between atoms: C_27  and  C_32
REMARK                            x       y       z     vdW  Elec       q    Type
REMARK                         _______ _______ _______ _____ _____    ______ ____
ROOT
ATOM      1  F   UNL     1      33.418 -22.460 -18.112  0.00  0.00    -0.204 F 
ATOM      2  C   UNL     1      36.082 -23.279 -15.771  0.00  0.00    +0.059 C 
ATOM      3  C   UNL     1      34.828 -23.247 -16.389  0.00  0.00    +0.045 C 
ATOM      4  C   UNL     1      37.135 -22.534 -16.311  0.00  0.00    +0.015 C 
ATOM      5  C   UNL     1      35.682 -21.737 -18.070  0.00  0.00    +0.029 C 
ATOM      6  C   UNL     1      34.628 -22.478 -17.536  0.00  0.00    +0.141 C 
ATOM      7  C   UNL     1      36.936 -21.764 -17.458  0.00  0.00    +0.004 C 
ENDROOT
BRANCH   2  10
ATOM      8  O   UNL     1      36.431 -25.808 -13.175  0.00  0.00    -0.434 OA
ATOM      9  O   UNL     1      35.815 -26.273 -15.308  0.00  0.00    -0.226 OA
ATOM     10  N   UNL     1      36.285 -24.064 -14.602  0.00  0.00    -0.221 N 
ATOM     11  C   UNL     1      36.986 -24.681 -12.484  0.00  0.00    +0.221 C 
ATOM     12  C   UNL     1      36.567 -23.487 -13.315  0.00  0.00    +0.148 C 
ATOM     13  C   UNL     1      36.150 -25.444 -14.473  0.00  0.00    +0.409 C 
BRANCH  11  14
ATOM     14  C   UNL     1      38.497 -24.852 -12.400  0.00  0.00    +0.199 C 
BRANCH  14  15
ATOM     15  O   UNL     1      38.839 -26.123 -12.923  0.00  0.00    -0.269 OA
BRANCH  15  16
ATOM     16  P   UNL     1      39.797 -26.189 -14.228  0.00  0.00    +0.473 P 
ATOM     17  O   UNL     1      41.187 -26.693 -13.970  0.00  0.00    -0.227 OA
BRANCH  16  18
ATOM     18  O   UNL     1      39.706 -24.698 -14.847  0.00  0.00    -0.303 OA
ATOM     19  H   UNL     1      39.668 -24.752 -15.815  0.00  0.00    +0.222 HD
ENDBRANCH  16  18
BRANCH  16  20
ATOM     20  O   UNL     1      38.930 -27.076 -15.267  0.00  0.00    -0.303 OA
ATOM     21  H   UNL     1      38.478 -26.489 -15.893  0.00  0.00    +0.222 HD
ENDBRANCH  16  20
ENDBRANCH  15  16
ENDBRANCH  14  15
ENDBRANCH  11  14
ENDBRANCH   2  10
BRANCH   5  23
ATOM     22  N   UNL     1      33.977 -20.121 -20.964  0.00  0.00    -0.234 NA
ATOM     23  C   UNL     1      35.480 -20.936 -19.259  0.00  0.00    +0.021 C 
ATOM     24  C   UNL     1      36.532 -20.237 -19.836  0.00  0.00    +0.004 C 
ATOM     25  C   UNL     1      34.235 -20.847 -19.854  0.00  0.00    +0.100 C 
ATOM     26  C   UNL     1      36.308 -19.477 -20.979  0.00  0.00    +0.029 C 
ATOM     27  C   UNL     1      35.023 -19.452 -21.499  0.00  0.00    +0.146 C 
BRANCH  27  32
ATOM     28  N   UNL     1      34.953 -17.373 -22.772  0.00  0.00    -0.105 NA
ATOM     29  N   UNL     1      34.526 -17.175 -24.027  0.00  0.00    -0.113 N 
ATOM     30  N   UNL     1      34.209 -19.247 -23.802  0.00  0.00    -0.085 NA
ATOM     31  N   UNL     1      34.077 -18.257 -24.676  0.00  0.00    -0.018 NA
ATOM     32  C   UNL     1      34.735 -18.686 -22.678  0.00  0.00    +0.092 C 
ATOM     33  C   UNL     1      34.548 -15.873 -24.643  0.00  0.00    +0.163 C 
ENDBRANCH  27  32
ENDBRANCH   5  23
TORSDOF 8
ENDMDL
MODEL 2
REMARK VINA RESULT:     -10.8      7.107     11.122
REMARK  Name = 11476460
REMARK  8 active torsions:
REMARK  status: ('A' for Active; 'I' for Inactive)
REMARK    1  A    between atoms: C_2  and  N_10
REMARK    2  A    between atoms: C_5  and  C_23
REMARK    3  A    between atoms: C_11  and  C_14
REMARK    4  A    between atoms: C_14  and  O_15
REMARK    5  A    between atoms: O_15  and  P_16
REMARK    6  A    between atoms: P_16  and  O_18
REMARK    7  A    between atoms: P_16  and  O_20
REMARK    8  A    between atoms: C_27  and  C_32
REMARK                            x       y       z     vdW  Elec       q    Type
REMARK                         _______ _______ _______ _____ _____    ______ ____
ROOT
ATOM      1  F   UNL     1      33.168 -21.204 -19.577  0.00  0.00    -0.204 F 
ATOM      2  C   UNL     1      35.126 -19.087 -21.798  0.00  0.00    +0.059 C 
ATOM      3  C   UNL     1      34.041 -19.766 -21.234  0.00  0.00    +0.045 C 
ATOM      4  C   UNL     1      36.392 -19.208 -21.216  0.00  0.00    +0.015 C 
ATOM      5  C   UNL     1      35.486 -20.677 -19.525  0.00  0.00    +0.029 C 
ATOM      6  C   UNL     1      34.221 -20.560 -20.101  0.00  0.00    +0.141 C 
ATOM      7  C   UNL     1      36.572 -20.001 -20.083  0.00  0.00    +0.004 C 
ENDROOT
BRANCH   2  10
ATOM      8  O   UNL     1      34.377 -17.573 -25.024  0.00  0.00    -0.434 OA
ATOM      9  O   UNL     1      33.883 -19.724 -24.500  0.00  0.00    -0.226 OA
ATOM     10  N   UNL     1      34.943 -18.278 -22.955  0.00  0.00    -0.221 N 
ATOM     11  C   UNL     1      34.785 -16.403 -24.302  0.00  0.00    +0.221 C 
ATOM     12  C   UNL     1      35.469 -16.945 -23.065  0.00  0.00    +0.148 C 
ATOM     13  C   UNL     1      34.351 -18.646 -24.161  0.00  0.00    +0.409 C 
BRANCH  11  14
ATOM     14  C   UNL     1      33.553 -15.565 -23.988  0.00  0.00    +0.199 C 
BRANCH  14  15
ATOM     15  O   UNL     1      33.852 -14.205 -24.248  0.00  0.00    -0.269 OA
BRANCH  15  16
ATOM     16  P   UNL     1      33.699 -13.136 -23.041  0.00  0.00    +0.473 P 
ATOM     17  O   UNL     1      32.315 -13.016 -22.472  0.00  0.00    -0.227 OA
BRANCH  16  18
ATOM     18  O   UNL     1      34.315 -11.773 -23.655  0.00  0.00    -0.303 OA
ATOM     19  H   UNL     1      34.641 -11.941 -24.553  0.00  0.00    +0.222 HD
ENDBRANCH  16  18
BRANCH  16  20
ATOM     20  O   UNL     1      34.831 -13.614 -21.989  0.00  0.00    -0.303 OA
ATOM     21  H   UNL     1      35.632 -13.872 -22.472  0.00  0.00    +0.222 HD
ENDBRANCH  16  20
ENDBRANCH  15  16
ENDBRANCH  14  15
ENDBRANCH  11  14
ENDBRANCH   2  10
BRANCH   5  23
ATOM     22  N   UNL     1      34.793 -23.142 -16.817  0.00  0.00    -0.234 NA
ATOM     23  C   UNL     1      35.678 -21.499 -18.350  0.00  0.00    +0.021 C 
ATOM     24  C   UNL     1      36.867 -21.455 -17.634  0.00  0.00    +0.004 C 
ATOM     25  C   UNL     1      34.681 -22.349 -17.906  0.00  0.00    +0.100 C 
ATOM     26  C   UNL     1      37.021 -22.256 -16.507  0.00  0.00    +0.029 C 
ATOM     27  C   UNL     1      35.963 -23.074 -16.144  0.00  0.00    +0.146 C 
BRANCH  27  32
ATOM     28  N   UNL     1      36.872 -24.983 -14.927  0.00  0.00    -0.105 NA
ATOM     29  N   UNL     1      36.589 -25.394 -13.684  0.00  0.00    -0.113 N 
ATOM     30  N   UNL     1      35.342 -23.702 -13.857  0.00  0.00    -0.085 NA
ATOM     31  N   UNL     1      35.687 -24.665 -13.011  0.00  0.00    -0.018 NA
ATOM     32  C   UNL     1      36.067 -23.920 -14.989  0.00  0.00    +0.092 C 
ATOM     33  C   UNL     1      37.216 -26.552 -13.101  0.00  0.00    +0.163 C 
ENDBRANCH  27  32
ENDBRANCH   5  23
TORSDOF 8
ENDMDL
MODEL 3
REMARK VINA RESULT:     -10.8      5.348      6.727
REMARK  Name = 11476460
REMARK  8 active torsions:
REMARK  status: ('A' for Active; 'I' for Inactive)
REMARK    1  A    between atoms: C_2  and  N_10
REMARK    2  A    between atoms: C_5  and  C_23
REMARK    3  A    between atoms: C_11  and  C_14
REMARK    4  A    between atoms: C_14  and  O_15
REMARK    5  A    between atoms: O_15  and  P_16
REMARK    6  A    between atoms: P_16  and  O_18
REMARK    7  A    between atoms: P_16  and  O_20
REMARK    8  A    between atoms: C_27  and  C_32
REMARK                            x       y       z     vdW  Elec       q    Type
REMARK                         _______ _______ _______ _____ _____    ______ ____
ROOT
ATOM      1  F   UNL     1      34.595 -22.438 -16.568  0.00  0.00    -0.204 F 
ATOM      2  C   UNL     1      36.703 -24.406 -14.348  0.00  0.00    +0.059 C 
ATOM      3  C   UNL     1      36.305 -23.551 -15.381  0.00  0.00    +0.045 C 
ATOM      4  C   UNL     1      35.736 -24.967 -13.507  0.00  0.00    +0.015 C 
ATOM      5  C   UNL     1      33.995 -23.821 -14.729  0.00  0.00    +0.029 C 
ATOM      6  C   UNL     1      34.955 -23.259 -15.571  0.00  0.00    +0.141 C 
ATOM      7  C   UNL     1      34.386 -24.675 -13.698  0.00  0.00    +0.004 C 
ENDROOT
BRANCH   2  10
ATOM      8  O   UNL     1      40.091 -25.077 -13.195  0.00  0.00    -0.434 OA
ATOM      9  O   UNL     1      38.370 -24.561 -11.809  0.00  0.00    -0.226 OA
ATOM     10  N   UNL     1      38.081 -24.704 -14.154  0.00  0.00    -0.221 N 
ATOM     11  C   UNL     1      40.230 -25.458 -14.570  0.00  0.00    +0.221 C 
ATOM     12  C   UNL     1      39.001 -24.884 -15.244  0.00  0.00    +0.148 C 
ATOM     13  C   UNL     1      38.773 -24.765 -12.946  0.00  0.00    +0.409 C 
BRANCH  11  14
ATOM     14  C   UNL     1      40.305 -26.977 -14.655  0.00  0.00    +0.199 C 
BRANCH  14  15
ATOM     15  O   UNL     1      40.853 -27.334 -15.911  0.00  0.00    -0.269 OA
BRANCH  15  16
ATOM     16  P   UNL     1      41.151 -28.898 -16.207  0.00  0.00    +0.473 P 
ATOM     17  O   UNL     1      40.072 -29.617 -16.963  0.00  0.00    -0.227 OA
BRANCH  16  18
ATOM     18  O   UNL     1      41.497 -29.506 -14.749  0.00  0.00    -0.303 OA
ATOM     19  H   UNL     1      40.789 -30.111 -14.475  0.00  0.00    +0.222 HD
ENDBRANCH  16  18
BRANCH  16  20
ATOM     20  O   UNL     1      42.591 -28.859 -16.943  0.00  0.00    -0.303 OA
ATOM     21  H   UNL     1      42.934 -27.951 -16.934  0.00  0.00    +0.222 HD
ENDBRANCH  16  20
ENDBRANCH  15  16
ENDBRANCH  14  15
ENDBRANCH  11  14
ENDBRANCH   2  10
BRANCH   5  23
ATOM     22  N   UNL     1      30.771 -23.075 -16.445  0.00  0.00    -0.234 NA
ATOM     23  C   UNL     1      32.592 -23.523 -14.924  0.00  0.00    +0.021 C 
ATOM     24  C   UNL     1      31.733 -23.393 -13.840  0.00  0.00    +0.004 C 
ATOM     25  C   UNL     1      32.069 -23.356 -16.193  0.00  0.00    +0.100 C 
ATOM     26  C   UNL     1      30.391 -23.104 -14.058  0.00  0.00    +0.029 C 
ATOM     27  C   UNL     1      29.963 -22.956 -15.368  0.00  0.00    +0.146 C 
BRANCH  27  32
ATOM     28  N   UNL     1      28.171 -22.159 -16.817  0.00  0.00    -0.105 NA
ATOM     29  N   UNL     1      26.859 -22.072 -16.555  0.00  0.00    -0.113 N 
ATOM     30  N   UNL     1      27.596 -22.857 -14.741  0.00  0.00    -0.085 NA
ATOM     31  N   UNL     1      26.473 -22.474 -15.337  0.00  0.00    -0.018 NA
ATOM     32  C   UNL     1      28.589 -22.656 -15.651  0.00  0.00    +0.092 C 
ATOM     33  C   UNL     1      25.919 -21.574 -17.525  0.00  0.00    +0.163 C 
ENDBRANCH  27  32
ENDBRANCH   5  23
TORSDOF 8
ENDMDL
MODEL 4
REMARK VINA RESULT:     -10.3      1.716      2.430
REMARK  Name = 11476460
REMARK  8 active torsions:
REMARK  status: ('A' for Active; 'I' for Inactive)
REMARK    1  A    between atoms: C_2  and  N_10
REMARK    2  A    between atoms: C_5  and  C_23
REMARK    3  A    between atoms: C_11  and  C_14
REMARK    4  A    between atoms: C_14  and  O_15
REMARK    5  A    between atoms: O_15  and  P_16
REMARK    6  A    between atoms: P_16  and  O_18
REMARK    7  A    between atoms: P_16  and  O_20
REMARK    8  A    between atoms: C_27  and  C_32
REMARK                            x       y       z     vdW  Elec       q    Type
REMARK                         _______ _______ _______ _____ _____    ______ ____
ROOT
ATOM      1  F   UNL     1      36.947 -21.160 -17.719  0.00  0.00    -0.204 F 
ATOM      2  C   UNL     1      34.919 -23.442 -15.737  0.00  0.00    +0.059 C 
ATOM      3  C   UNL     1      35.998 -22.661 -16.163  0.00  0.00    +0.045 C 
ATOM      4  C   UNL     1      33.739 -23.454 -16.489  0.00  0.00    +0.015 C 
ATOM      5  C   UNL     1      34.721 -21.917 -18.074  0.00  0.00    +0.029 C 
ATOM      6  C   UNL     1      35.900 -21.901 -17.328  0.00  0.00    +0.141 C 
ATOM      7  C   UNL     1      33.641 -22.694 -17.654  0.00  0.00    +0.004 C 
ENDROOT
BRANCH   2  10
ATOM      8  O   UNL     1      35.677 -25.746 -13.022  0.00  0.00    -0.434 OA
ATOM      9  O   UNL     1      36.784 -25.729 -15.002  0.00  0.00    -0.226 OA
ATOM     10  N   UNL     1      35.019 -24.218 -14.549  0.00  0.00    -0.221 N 
ATOM     11  C   UNL     1      34.760 -24.876 -12.345  0.00  0.00    +0.221 C 
ATOM     12  C   UNL     1      34.091 -24.097 -13.457  0.00  0.00    +0.148 C 
ATOM     13  C   UNL     1      35.916 -25.251 -14.285  0.00  0.00    +0.409 C 
BRANCH  11  14
ATOM     14  C   UNL     1      35.540 -23.993 -11.380  0.00  0.00    +0.199 C 
BRANCH  14  15
ATOM     15  O   UNL     1      36.663 -23.461 -12.061  0.00  0.00    -0.269 OA
BRANCH  15  16
ATOM     16  P   UNL     1      38.141 -23.946 -11.611  0.00  0.00    +0.473 P 
ATOM     17  O   UNL     1      39.009 -22.873 -11.021  0.00  0.00    -0.227 OA
BRANCH  16  18
ATOM     18  O   UNL     1      38.730 -24.662 -12.935  0.00  0.00    -0.303 OA
ATOM     19  H   UNL     1      38.262 -25.499 -13.086  0.00  0.00    +0.222 HD
ENDBRANCH  16  18
BRANCH  16  20
ATOM     20  O   UNL     1      37.828 -25.190 -10.625  0.00  0.00    -0.303 OA
ATOM     21  H   UNL     1      38.389 -25.125  -9.836  0.00  0.00    +0.222 HD
ENDBRANCH  16  20
ENDBRANCH  15  16
ENDBRANCH  14  15
ENDBRANCH  11  14
ENDBRANCH   2  10
BRANCH   5  23
ATOM     22  N   UNL     1      35.715 -19.903 -21.048  0.00  0.00    -0.234 NA
ATOM     23  C   UNL     1      34.614 -21.131 -19.284  0.00  0.00    +0.021 C 
ATOM     24  C   UNL     1      33.375 -20.841 -19.840  0.00  0.00    +0.004 C 
ATOM     25  C   UNL     1      35.743 -20.644 -19.919  0.00  0.00    +0.100 C 
ATOM     26  C   UNL     1      33.304 -20.081 -21.003  0.00  0.00    +0.029 C 
ATOM     27  C   UNL     1      34.493 -19.640 -21.563  0.00  0.00    +0.146 C 
BRANCH  27  32
ATOM     28  N   UNL     1      34.820 -17.562 -22.796  0.00  0.00    -0.105 NA
ATOM     29  N   UNL     1      34.636 -17.327 -24.103  0.00  0.00    -0.113 N 
ATOM     30  N   UNL     1      34.112 -19.365 -23.969  0.00  0.00    -0.085 NA
ATOM     31  N   UNL     1      34.217 -18.367 -24.837  0.00  0.00    -0.018 NA
ATOM     32  C   UNL     1      34.479 -18.852 -22.762  0.00  0.00    +0.092 C 
ATOM     33  C   UNL     1      34.874 -16.032 -24.686  0.00  0.00    +0.163 C 
ENDBRANCH  27  32
ENDBRANCH   5  23
TORSDOF 8
ENDMDL
MODEL 5
REMARK VINA RESULT:      -9.8     12.881     16.773
REMARK  Name = 11476460
REMARK  8 active torsions:
REMARK  status: ('A' for Active; 'I' for Inactive)
REMARK    1  A    between atoms: C_2  and  N_10
REMARK    2  A    between atoms: C_5  and  C_23
REMARK    3  A    between atoms: C_11  and  C_14
REMARK    4  A    between atoms: C_14  and  O_15
REMARK    5  A    between atoms: O_15  and  P_16
REMARK    6  A    between atoms: P_16  and  O_18
REMARK    7  A    between atoms: P_16  and  O_20
REMARK    8  A    between atoms: C_27  and  C_32
REMARK                            x       y       z     vdW  Elec       q    Type
REMARK                         _______ _______ _______ _____ _____    ______ ____
ROOT
ATOM      1  F   UNL     1      35.002 -10.229 -24.538  0.00  0.00    -0.204 F 
ATOM      2  C   UNL     1      32.478  -8.092 -23.020  0.00  0.00    +0.059 C 
ATOM      3  C   UNL     1      33.606  -8.502 -23.738  0.00  0.00    +0.045 C 
ATOM      4  C   UNL     1      31.660  -9.052 -22.414  0.00  0.00    +0.015 C 
ATOM      5  C   UNL     1      33.096 -10.810 -23.241  0.00  0.00    +0.029 C 
ATOM      6  C   UNL     1      33.915  -9.857 -23.847  0.00  0.00    +0.141 C 
ATOM      7  C   UNL     1      31.970 -10.407 -22.524  0.00  0.00    +0.004 C 
ENDROOT
BRANCH   2  10
ATOM      8  O   UNL     1      31.915  -4.613 -22.104  0.00  0.00    -0.434 OA
ATOM      9  O   UNL     1      32.820  -6.151 -20.704  0.00  0.00    -0.226 OA
ATOM     10  N   UNL     1      32.162  -6.708 -22.908  0.00  0.00    -0.221 N 
ATOM     11  C   UNL     1      31.626  -4.538 -23.506  0.00  0.00    +0.221 C 
ATOM     12  C   UNL     1      31.467  -5.981 -23.935  0.00  0.00    +0.148 C 
ATOM     13  C   UNL     1      32.361  -5.881 -21.805  0.00  0.00    +0.409 C 
BRANCH  11  14
ATOM     14  C   UNL     1      32.777  -3.828 -24.207  0.00  0.00    +0.199 C 
BRANCH  14  15
ATOM     15  O   UNL     1      32.562  -3.887 -25.606  0.00  0.00    -0.269 OA
BRANCH  15  16
ATOM     16  P   UNL     1      33.807  -4.280 -26.564  0.00  0.00    +0.473 P 
ATOM     17  O   UNL     1      33.437  -4.613 -27.980  0.00  0.00    -0.227 OA
BRANCH  16  18
ATOM     18  O   UNL     1      34.559  -5.458 -25.751  0.00  0.00    -0.303 OA
ATOM     19  H   UNL     1      33.911  -5.956 -25.227  0.00  0.00    +0.222 HD
ENDBRANCH  16  18
BRANCH  16  20
ATOM     20  O   UNL     1      34.804  -3.018 -26.397  0.00  0.00    -0.303 OA
ATOM     21  H   UNL     1      35.227  -3.054 -25.525  0.00  0.00    +0.222 HD
ENDBRANCH  16  20
ENDBRANCH  15  16
ENDBRANCH  14  15
ENDBRANCH  11  14
ENDBRANCH   2  10
BRANCH   5  23
ATOM     22  N   UNL     1      33.489 -14.214 -24.708  0.00  0.00    -0.234 NA
ATOM     23  C   UNL     1      33.413 -12.218 -23.351  0.00  0.00    +0.021 C 
ATOM     24  C   UNL     1      33.921 -12.923 -22.267  0.00  0.00    +0.004 C 
ATOM     25  C   UNL     1      33.217 -12.901 -24.538  0.00  0.00    +0.100 C 
ATOM     26  C   UNL     1      34.214 -14.275 -22.403  0.00  0.00    +0.029 C 
ATOM     27  C   UNL     1      33.983 -14.869 -23.633  0.00  0.00    +0.146 C 
BRANCH  27  32
ATOM     28  N   UNL     1      34.831 -17.034 -22.899  0.00  0.00    -0.105 NA
ATOM     29  N   UNL     1      34.866 -18.191 -23.574  0.00  0.00    -0.113 N 
ATOM     30  N   UNL     1      33.977 -16.908 -24.992  0.00  0.00    -0.085 NA
ATOM     31  N   UNL     1      34.370 -18.164 -24.819  0.00  0.00    -0.018 NA
ATOM     32  C   UNL     1      34.266 -16.262 -23.829  0.00  0.00    +0.092 C 
ATOM     33  C   UNL     1      35.405 -19.396 -22.997  0.00  0.00    +0.163 C 
ENDBRANCH  27  32
ENDBRANCH   5  23
TORSDOF 8
ENDMDL
MODEL 6
REMARK VINA RESULT:      -9.5      5.968      8.942
REMARK  Name = 11476460
REMARK  8 active torsions:
REMARK  status: ('A' for Active; 'I' for Inactive)
REMARK    1  A    between atoms: C_2  and  N_10
REMARK    2  A    between atoms: C_5  and  C_23
REMARK    3  A    between atoms: C_11  and  C_14
REMARK    4  A    between atoms: C_14  and  O_15
REMARK    5  A    between atoms: O_15  and  P_16
REMARK    6  A    between atoms: P_16  and  O_18
REMARK    7  A    between atoms: P_16  and  O_20
REMARK    8  A    between atoms: C_27  and  C_32
REMARK                            x       y       z     vdW  Elec       q    Type
REMARK                         _______ _______ _______ _____ _____    ______ ____
ROOT
ATOM      1  F   UNL     1      34.211 -15.268 -24.317  0.00  0.00    -0.204 F 
ATOM      2  C   UNL     1      35.188 -17.260 -21.432  0.00  0.00    +0.059 C 
ATOM      3  C   UNL     1      34.928 -16.886 -22.754  0.00  0.00    +0.045 C 
ATOM      4  C   UNL     1      34.973 -16.340 -20.401  0.00  0.00    +0.015 C 
ATOM      5  C   UNL     1      34.243 -14.692 -22.010  0.00  0.00    +0.029 C 
ATOM      6  C   UNL     1      34.456 -15.605 -23.042  0.00  0.00    +0.141 C 
ATOM      7  C   UNL     1      34.502 -15.059 -20.689  0.00  0.00    +0.004 C 
ENDROOT
BRANCH   2  10
ATOM      8  O   UNL     1      37.019 -20.299 -20.613  0.00  0.00    -0.434 OA
ATOM      9  O   UNL     1      37.983 -18.250 -20.752  0.00  0.00    -0.226 OA
ATOM     10  N   UNL     1      35.669 -18.567 -21.137  0.00  0.00    -0.221 N 
ATOM     11  C   UNL     1      35.680 -20.808 -20.559  0.00  0.00    +0.221 C 
ATOM     12  C   UNL     1      34.845 -19.741 -21.235  0.00  0.00    +0.148 C 
ATOM     13  C   UNL     1      36.974 -18.939 -20.824  0.00  0.00    +0.409 C 
BRANCH  11  14
ATOM     14  C   UNL     1      35.299 -21.033 -19.101  0.00  0.00    +0.199 C 
BRANCH  14  15
ATOM     15  O   UNL     1      33.932 -21.401 -19.042  0.00  0.00    -0.269 OA
BRANCH  15  16
ATOM     16  P   UNL     1      33.519 -22.696 -18.163  0.00  0.00    +0.473 P 
ATOM     17  O   UNL     1      32.149 -22.637 -17.551  0.00  0.00    -0.227 OA
BRANCH  16  18
ATOM     18  O   UNL     1      34.739 -22.854 -17.114  0.00  0.00    -0.303 OA
ATOM     19  H   UNL     1      35.430 -23.413 -17.503  0.00  0.00    +0.222 HD
ENDBRANCH  16  18
BRANCH  16  20
ATOM     20  O   UNL     1      33.754 -23.922 -19.192  0.00  0.00    -0.303 OA
ATOM     21  H   UNL     1      34.362 -24.565 -18.795  0.00  0.00    +0.222 HD
ENDBRANCH  16  20
ENDBRANCH  15  16
ENDBRANCH  14  15
ENDBRANCH  11  14
ENDBRANCH   2  10
BRANCH   5  23
ATOM     22  N   UNL     1      32.259 -11.547 -21.752  0.00  0.00    -0.234 NA
ATOM     23  C   UNL     1      33.753 -13.362 -22.304  0.00  0.00    +0.021 C 
ATOM     24  C   UNL     1      34.262 -12.634 -23.371  0.00  0.00    +0.004 C 
ATOM     25  C   UNL     1      32.763 -12.782 -21.532  0.00  0.00    +0.100 C 
ATOM     26  C   UNL     1      33.770 -11.359 -23.630  0.00  0.00    +0.029 C 
ATOM     27  C   UNL     1      32.778 -10.866 -22.798  0.00  0.00    +0.146 C 
BRANCH  27  32
ATOM     28  N   UNL     1      32.891  -8.585 -23.653  0.00  0.00    -0.105 NA
ATOM     29  N   UNL     1      31.964  -7.619 -23.585  0.00  0.00    -0.113 N 
ATOM     30  N   UNL     1      30.987  -9.204 -22.595  0.00  0.00    -0.085 NA
ATOM     31  N   UNL     1      30.820  -7.941 -22.967  0.00  0.00    -0.018 NA
ATOM     32  C   UNL     1      32.232  -9.557 -23.020  0.00  0.00    +0.092 C 
ATOM     33  C   UNL     1      32.184  -6.309 -24.143  0.00  0.00    +0.163 C 
ENDBRANCH  27  32
ENDBRANCH   5  23
TORSDOF 8
ENDMDL
MODEL 7
REMARK VINA RESULT:      -9.5     12.730     16.246
REMARK  Name = 11476460
REMARK  8 active torsions:
REMARK  status: ('A' for Active; 'I' for Inactive)
REMARK    1  A    between atoms: C_2  and  N_10
REMARK    2  A    between atoms: C_5  and  C_23
REMARK    3  A    between atoms: C_11  and  C_14
REMARK    4  A    between atoms: C_14  and  O_15
REMARK    5  A    between atoms: O_15  and  P_16
REMARK    6  A    between atoms: P_16  and  O_18
REMARK    7  A    between atoms: P_16  and  O_20
REMARK    8  A    between atoms: C_27  and  C_32
REMARK                            x       y       z     vdW  Elec       q    Type
REMARK                         _______ _______ _______ _____ _____    ______ ____
ROOT
ATOM      1  F   UNL     1      31.531 -12.617 -21.127  0.00  0.00    -0.204 F 
ATOM      2  C   UNL     1      32.368  -9.286 -22.332  0.00  0.00    +0.059 C 
ATOM      3  C   UNL     1      31.752 -10.318 -21.616  0.00  0.00    +0.045 C 
ATOM      4  C   UNL     1      33.372  -9.593 -23.256  0.00  0.00    +0.015 C 
ATOM      5  C   UNL     1      33.138 -11.943 -22.746  0.00  0.00    +0.029 C 
ATOM      6  C   UNL     1      32.136 -11.643 -21.823  0.00  0.00    +0.141 C 
ATOM      7  C   UNL     1      33.756 -10.918 -23.462  0.00  0.00    +0.004 C 
ENDROOT
BRANCH   2  10
ATOM      8  O   UNL     1      31.728  -5.878 -21.223  0.00  0.00    -0.434 OA
ATOM      9  O   UNL     1      32.993  -7.360 -20.063  0.00  0.00    -0.226 OA
ATOM     10  N   UNL     1      31.976  -7.934 -22.121  0.00  0.00    -0.221 N 
ATOM     11  C   UNL     1      31.176  -5.804 -22.545  0.00  0.00    +0.221 C 
ATOM     12  C   UNL     1      31.048  -7.249 -22.979  0.00  0.00    +0.148 C 
ATOM     13  C   UNL     1      32.316  -7.111 -21.050  0.00  0.00    +0.409 C 
BRANCH  11  14
ATOM     14  C   UNL     1      32.118  -4.995 -23.426  0.00  0.00    +0.199 C 
BRANCH  14  15
ATOM     15  O   UNL     1      31.354  -4.064 -24.171  0.00  0.00    -0.269 OA
BRANCH  15  16
ATOM     16  P   UNL     1      31.528  -2.487 -23.847  0.00  0.00    +0.473 P 
ATOM     17  O   UNL     1      32.584  -1.787 -24.652  0.00  0.00    -0.227 OA
BRANCH  16  18
ATOM     18  O   UNL     1      31.738  -2.444 -22.245  0.00  0.00    -0.303 OA
ATOM     19  H   UNL     1      32.568  -1.986 -22.039  0.00  0.00    +0.222 HD
ENDBRANCH  16  18
BRANCH  16  20
ATOM     20  O   UNL     1      30.028  -1.910 -24.040  0.00  0.00    -0.303 OA
ATOM     21  H   UNL     1      29.989  -0.998 -23.713  0.00  0.00    +0.222 HD
ENDBRANCH  16  20
ENDBRANCH  15  16
ENDBRANCH  14  15
ENDBRANCH  11  14
ENDBRANCH   2  10
BRANCH   5  23
ATOM     22  N   UNL     1      34.556 -15.329 -22.101  0.00  0.00    -0.234 NA
ATOM     23  C   UNL     1      33.539 -13.316 -22.964  0.00  0.00    +0.021 C 
ATOM     24  C   UNL     1      33.318 -13.939 -24.186  0.00  0.00    +0.004 C 
ATOM     25  C   UNL     1      34.155 -14.046 -21.964  0.00  0.00    +0.100 C 
ATOM     26  C   UNL     1      33.716 -15.258 -24.367  0.00  0.00    +0.029 C 
ATOM     27  C   UNL     1      34.325 -15.904 -23.303  0.00  0.00    +0.146 C 
BRANCH  27  32
ATOM     28  N   UNL     1      34.258 -18.111 -24.339  0.00  0.00    -0.105 NA
ATOM     29  N   UNL     1      34.981 -19.199 -24.037  0.00  0.00    -0.113 N 
ATOM     30  N   UNL     1      35.719 -17.807 -22.636  0.00  0.00    -0.085 NA
ATOM     31  N   UNL     1      35.859 -19.065 -23.034  0.00  0.00    -0.018 NA
ATOM     32  C   UNL     1      34.757 -17.266 -23.434  0.00  0.00    +0.092 C 
ATOM     33  C   UNL     1      34.823 -20.441 -24.749  0.00  0.00    +0.163 C 
ENDBRANCH  27  32
ENDBRANCH   5  23
TORSDOF 8
ENDMDL
MODEL 8
REMARK VINA RESULT:      -9.2      9.763     13.515
REMARK  Name = 11476460
REMARK  8 active torsions:
REMARK  status: ('A' for Active; 'I' for Inactive)
REMARK    1  A    between atoms: C_2  and  N_10
REMARK    2  A    between atoms: C_5  and  C_23
REMARK    3  A    between atoms: C_11  and  C_14
REMARK    4  A    between atoms: C_14  and  O_15
REMARK    5  A    between atoms: O_15  and  P_16
REMARK    6  A    between atoms: P_16  and  O_18
REMARK    7  A    between atoms: P_16  and  O_20
REMARK    8  A    between atoms: C_27  and  C_32
REMARK                            x       y       z     vdW  Elec       q    Type
REMARK                         _______ _______ _______ _____ _____    ______ ____
ROOT
ATOM      1  F   UNL     1      31.626 -10.458 -21.348  0.00  0.00    -0.204 F 
ATOM      2  C   UNL     1      33.426 -12.824 -23.447  0.00  0.00    +0.059 C 
ATOM      3  C   UNL     1      32.632 -12.305 -22.420  0.00  0.00    +0.045 C 
ATOM      4  C   UNL     1      33.976 -11.956 -24.397  0.00  0.00    +0.015 C 
ATOM      5  C   UNL     1      32.941 -10.074 -23.292  0.00  0.00    +0.029 C 
ATOM      6  C   UNL     1      32.390 -10.934 -22.342  0.00  0.00    +0.141 C 
ATOM      7  C   UNL     1      33.734 -10.585 -24.319  0.00  0.00    +0.004 C 
ENDROOT
BRANCH   2  10
ATOM      8  O   UNL     1      34.026 -16.307 -24.320  0.00  0.00    -0.434 OA
ATOM      9  O   UNL     1      33.698 -14.666 -25.851  0.00  0.00    -0.226 OA
ATOM     10  N   UNL     1      33.674 -14.223 -23.527  0.00  0.00    -0.221 N 
ATOM     11  C   UNL     1      34.293 -16.367 -22.912  0.00  0.00    +0.221 C 
ATOM     12  C   UNL     1      33.727 -15.073 -22.368  0.00  0.00    +0.148 C 
ATOM     13  C   UNL     1      33.795 -14.998 -24.678  0.00  0.00    +0.409 C 
BRANCH  11  14
ATOM     14  C   UNL     1      35.795 -16.499 -22.702  0.00  0.00    +0.199 C 
BRANCH  14  15
ATOM     15  O   UNL     1      36.126 -17.875 -22.645  0.00  0.00    -0.269 OA
BRANCH  15  16
ATOM     16  P   UNL     1      36.076 -18.622 -21.209  0.00  0.00    +0.473 P 
ATOM     17  O   UNL     1      35.121 -19.778 -21.128  0.00  0.00    -0.227 OA
BRANCH  16  18
ATOM     18  O   UNL     1      35.801 -17.423 -20.161  0.00  0.00    -0.303 OA
ATOM     19  H   UNL     1      36.425 -17.491 -19.421  0.00  0.00    +0.222 HD
ENDBRANCH  16  18
BRANCH  16  20
ATOM     20  O   UNL     1      37.627 -18.998 -20.944  0.00  0.00    -0.303 OA
ATOM     21  H   UNL     1      38.195 -18.308 -21.320  0.00  0.00    +0.222 HD
ENDBRANCH  16  20
ENDBRANCH  15  16
ENDBRANCH  14  15
ENDBRANCH  11  14
ENDBRANCH   2  10
BRANCH   5  23
ATOM     22  N   UNL     1      31.112  -6.826 -23.274  0.00  0.00    -0.234 NA
ATOM     23  C   UNL     1      32.693  -8.650 -23.215  0.00  0.00    +0.021 C 
ATOM     24  C   UNL     1      33.736  -7.753 -23.021  0.00  0.00    +0.004 C 
ATOM     25  C   UNL     1      31.412  -8.142 -23.335  0.00  0.00    +0.100 C 
ATOM     26  C   UNL     1      33.468  -6.391 -22.953  0.00  0.00    +0.029 C 
ATOM     27  C   UNL     1      32.150  -5.982 -23.084  0.00  0.00    +0.146 C 
BRANCH  27  32
ATOM     28  N   UNL     1      30.901  -4.088 -22.191  0.00  0.00    -0.105 NA
ATOM     29  N   UNL     1      30.982  -2.795 -22.535  0.00  0.00    -0.113 N 
ATOM     30  N   UNL     1      32.413  -3.659 -23.820  0.00  0.00    -0.085 NA
ATOM     31  N   UNL     1      31.865  -2.494 -23.496  0.00  0.00    -0.018 NA
ATOM     32  C   UNL     1      31.816  -4.588 -23.023  0.00  0.00    +0.092 C 
ATOM     33  C   UNL     1      30.167  -1.786 -21.908  0.00  0.00    +0.163 C 
ENDBRANCH  27  32
ENDBRANCH   5  23
TORSDOF 8
ENDMDL
MODEL 9
REMARK VINA RESULT:      -9.2     12.701     16.491
REMARK  Name = 11476460
REMARK  8 active torsions:
REMARK  status: ('A' for Active; 'I' for Inactive)
REMARK    1  A    between atoms: C_2  and  N_10
REMARK    2  A    between atoms: C_5  and  C_23
REMARK    3  A    between atoms: C_11  and  C_14
REMARK    4  A    between atoms: C_14  and  O_15
REMARK    5  A    between atoms: O_15  and  P_16
REMARK    6  A    between atoms: P_16  and  O_18
REMARK    7  A    between atoms: P_16  and  O_20
REMARK    8  A    between atoms: C_27  and  C_32
REMARK                            x       y       z     vdW  Elec       q    Type
REMARK                         _______ _______ _______ _____ _____    ______ ____
ROOT
ATOM      1  F   UNL     1      34.874 -10.756 -24.376  0.00  0.00    -0.204 F 
ATOM      2  C   UNL     1      32.217  -8.698 -22.981  0.00  0.00    +0.059 C 
ATOM      3  C   UNL     1      33.347  -9.084 -23.709  0.00  0.00    +0.045 C 
ATOM      4  C   UNL     1      31.532  -9.648 -22.216  0.00  0.00    +0.015 C 
ATOM      5  C   UNL     1      33.101 -11.350 -22.908  0.00  0.00    +0.029 C 
ATOM      6  C   UNL     1      33.788 -10.407 -23.672  0.00  0.00    +0.141 C 
ATOM      7  C   UNL     1      31.974 -10.971 -22.180  0.00  0.00    +0.004 C 
ENDROOT
BRANCH   2  10
ATOM      8  O   UNL     1      31.141  -5.268 -22.402  0.00  0.00    -0.434 OA
ATOM      9  O   UNL     1      31.780  -6.681 -20.747  0.00  0.00    -0.226 OA
ATOM     10  N   UNL     1      31.766  -7.349 -23.018  0.00  0.00    -0.221 N 
ATOM     11  C   UNL     1      31.221  -5.253 -23.834  0.00  0.00    +0.221 C 
ATOM     12  C   UNL     1      31.302  -6.714 -24.221  0.00  0.00    +0.148 C 
ATOM     13  C   UNL     1      31.601  -6.481 -21.940  0.00  0.00    +0.409 C 
BRANCH  11  14
ATOM     14  C   UNL     1      32.449  -4.454 -24.249  0.00  0.00    +0.199 C 
BRANCH  14  15
ATOM     15  O   UNL     1      32.449  -4.322 -25.660  0.00  0.00    -0.269 OA
BRANCH  15  16
ATOM     16  P   UNL     1      33.871  -4.226 -26.427  0.00  0.00    +0.473 P 
ATOM     17  O   UNL     1      34.615  -2.938 -26.226  0.00  0.00    -0.227 OA
BRANCH  16  18
ATOM     18  O   UNL     1      33.505  -4.581 -27.962  0.00  0.00    -0.303 OA
ATOM     19  H   UNL     1      32.719  -5.150 -27.983  0.00  0.00    +0.222 HD
ENDBRANCH  16  18
BRANCH  16  20
ATOM     20  O   UNL     1      34.648  -5.550 -25.915  0.00  0.00    -0.303 OA
ATOM     21  H   UNL     1      34.378  -6.311 -26.453  0.00  0.00    +0.222 HD
ENDBRANCH  16  20
ENDBRANCH  15  16
ENDBRANCH  14  15
ENDBRANCH  11  14
ENDBRANCH   2  10
BRANCH   5  23
ATOM     22  N   UNL     1      34.578 -14.520 -21.616  0.00  0.00    -0.234 NA
ATOM     23  C   UNL     1      33.556 -12.724 -22.866  0.00  0.00    +0.021 C 
ATOM     24  C   UNL     1      33.430 -13.552 -23.974  0.00  0.00    +0.004 C 
ATOM     25  C   UNL     1      34.131 -13.249 -21.722  0.00  0.00    +0.100 C 
ATOM     26  C   UNL     1      33.878 -14.866 -23.904  0.00  0.00    +0.029 C 
ATOM     27  C   UNL     1      34.439 -15.298 -22.713  0.00  0.00    +0.146 C 
BRANCH  27  32
ATOM     28  N   UNL     1      35.429 -17.137 -21.454  0.00  0.00    -0.105 NA
ATOM     29  N   UNL     1      35.709 -18.381 -21.870  0.00  0.00    -0.113 N 
ATOM     30  N   UNL     1      34.892 -17.530 -23.619  0.00  0.00    -0.085 NA
ATOM     31  N   UNL     1      35.407 -18.658 -23.146  0.00  0.00    -0.018 NA
ATOM     32  C   UNL     1      34.919 -16.644 -22.585  0.00  0.00    +0.092 C 
ATOM     33  C   UNL     1      36.300 -19.362 -20.998  0.00  0.00    +0.163 C 
ENDBRANCH  27  32
ENDBRANCH   5  23
TORSDOF 8
ENDMDL
