MODEL 1
REMARK VINA RESULT:     -11.7      0.000      0.000
REMARK  Name = 44123754
REMARK  11 active torsions:
REMARK  status: ('A' for Active; 'I' for Inactive)
REMARK    1  A    between atoms: C_3  and  C_22
REMARK    2  A    between atoms: C_4  and  C_7
REMARK    3  A    between atoms: N_6  and  C_15
REMARK    4  A    between atoms: C_8  and  N_12
REMARK    5  A    between atoms: C_15  and  O_16
REMARK    6  A    between atoms: O_16  and  P_17
REMARK    7  A    between atoms: P_17  and  O_20
REMARK    8  A    between atoms: C_22  and  C_23
REMARK    9  A    between atoms: C_26  and  C_29
REMARK   10  A    between atoms: C_29  and  O_30
REMARK   11  A    between atoms: O_30  and  C_32
REMARK                            x       y       z     vdW  Elec       q    Type
REMARK                         _______ _______ _______ _____ _____    ______ ____
ROOT
ATOM      1  O   UNL     1      33.970 -23.289 -18.136  0.00  0.00    -0.354 OA
ATOM      2  N   UNL     1      34.811 -22.745 -19.101  0.00  0.00    -0.081 NA
ATOM      3  C   UNL     1      35.723 -22.053 -18.414  0.00  0.00    +0.105 C 
ATOM      4  C   UNL     1      34.398 -22.910 -16.904  0.00  0.00    +0.175 C 
ATOM      5  C   UNL     1      35.511 -22.122 -17.025  0.00  0.00    +0.058 C 
ENDROOT
BRANCH   4   7
ATOM      6  N   UNL     1      31.562 -23.669 -14.658  0.00  0.00    -0.266 N 
ATOM      7  C   UNL     1      33.617 -23.402 -15.793  0.00  0.00    +0.048 C 
ATOM      8  C   UNL     1      32.248 -23.195 -15.707  0.00  0.00    +0.156 C 
ATOM      9  C   UNL     1      34.254 -24.105 -14.775  0.00  0.00    +0.003 C 
ATOM     10  C   UNL     1      32.150 -24.349 -13.665  0.00  0.00    +0.064 C 
ATOM     11  C   UNL     1      33.516 -24.585 -13.697  0.00  0.00    +0.016 C 
BRANCH   8  12
ATOM     12  N   UNL     1      31.564 -22.486 -16.719  0.00  0.00    -0.303 NA
ATOM     13  H   UNL     1      32.071 -22.027 -17.427  0.00  0.00    +0.121 HD
ATOM     14  H   UNL     1      30.580 -22.452 -16.715  0.00  0.00    +0.121 HD
ENDBRANCH   8  12
BRANCH   6  15
ATOM     15  C   UNL     1      30.116 -23.451 -14.569  0.00  0.00    +0.251 C 
BRANCH  15  16
ATOM     16  O   UNL     1      29.483 -24.162 -15.623  0.00  0.00    -0.250 OA
BRANCH  16  17
ATOM     17  P   UNL     1      28.153 -23.528 -16.329  0.00  0.00    +0.504 P 
ATOM     18  O   UNL     1      27.521 -24.554 -17.244  0.00  0.00    -0.225 OA
ATOM     19  O   UNL     1      28.496 -22.148 -16.845  0.00  0.00    -0.116 OA
BRANCH  17  20
ATOM     20  O   UNL     1      27.206 -23.355 -15.009  0.00  0.00    -0.301 OA
ATOM     21  H   UNL     1      27.651 -23.742 -14.239  0.00  0.00    +0.222 HD
ENDBRANCH  17  20
ENDBRANCH  16  17
ENDBRANCH  15  16
ENDBRANCH   6  15
ENDBRANCH   4   7
BRANCH   3  22
ATOM     22  C   UNL     1      36.790 -21.333 -19.128  0.00  0.00    +0.075 C 
BRANCH  22  23
ATOM     23  C   UNL     1      36.296 -20.315 -20.147  0.00  0.00    -0.016 C 
ATOM     24  C   UNL     1      37.167 -19.345 -20.643  0.00  0.00    -0.004 C 
ATOM     25  C   UNL     1      34.972 -20.353 -20.586  0.00  0.00    -0.004 C 
ATOM     26  C   UNL     1      35.391 -18.451 -22.015  0.00  0.00    +0.021 C 
ATOM     27  C   UNL     1      36.715 -18.413 -21.576  0.00  0.00    -0.001 C 
ATOM     28  C   UNL     1      34.520 -19.421 -21.519  0.00  0.00    -0.001 C 
BRANCH  26  29
ATOM     29  C   UNL     1      34.908 -17.456 -23.015  0.00  0.00    +0.234 C 
BRANCH  29  30
ATOM     30  O   UNL     1      35.455 -16.178 -22.712  0.00  0.00    -0.455 OA
BRANCH  30  32
ATOM     31  N   UNL     1      33.958 -14.616 -23.550  0.00  0.00    -0.210 NA
ATOM     32  C   UNL     1      34.564 -15.166 -22.473  0.00  0.00    +0.225 C 
ATOM     33  C   UNL     1      34.333 -14.769 -21.166  0.00  0.00    +0.058 C 
ATOM     34  C   UNL     1      33.422 -13.740 -20.950  0.00  0.00    +0.006 C 
ATOM     35  C   UNL     1      33.078 -13.620 -23.301  0.00  0.00    +0.102 C 
ATOM     36  C   UNL     1      32.778 -13.150 -22.032  0.00  0.00    +0.021 C 
ENDBRANCH  30  32
ENDBRANCH  29  30
ENDBRANCH  26  29
ENDBRANCH  22  23
ENDBRANCH   3  22
TORSDOF 11
ENDMDL
MODEL 2
REMARK VINA RESULT:     -11.6      3.951     11.064
REMARK  Name = 44123754
REMARK  11 active torsions:
REMARK  status: ('A' for Active; 'I' for Inactive)
REMARK    1  A    between atoms: C_3  and  C_22
REMARK    2  A    between atoms: C_4  and  C_7
REMARK    3  A    between atoms: N_6  and  C_15
REMARK    4  A    between atoms: C_8  and  N_12
REMARK    5  A    between atoms: C_15  and  O_16
REMARK    6  A    between atoms: O_16  and  P_17
REMARK    7  A    between atoms: P_17  and  O_20
REMARK    8  A    between atoms: C_22  and  C_23
REMARK    9  A    between atoms: C_26  and  C_29
REMARK   10  A    between atoms: C_29  and  O_30
REMARK   11  A    between atoms: O_30  and  C_32
REMARK                            x       y       z     vdW  Elec       q    Type
REMARK                         _______ _______ _______ _____ _____    ______ ____
ROOT
ATOM      1  O   UNL     1      35.109 -16.295 -20.893  0.00  0.00    -0.354 OA
ATOM      2  N   UNL     1      35.719 -17.329 -20.192  0.00  0.00    -0.081 NA
ATOM      3  C   UNL     1      36.011 -18.248 -21.117  0.00  0.00    +0.105 C 
ATOM      4  C   UNL     1      35.051 -16.619 -22.210  0.00  0.00    +0.175 C 
ATOM      5  C   UNL     1      35.612 -17.853 -22.406  0.00  0.00    +0.058 C 
ENDROOT
BRANCH   4   7
ATOM      6  N   UNL     1      33.443 -13.520 -23.424  0.00  0.00    -0.266 N 
ATOM      7  C   UNL     1      34.439 -15.633 -23.070  0.00  0.00    +0.048 C 
ATOM      8  C   UNL     1      34.005 -14.406 -22.590  0.00  0.00    +0.156 C 
ATOM      9  C   UNL     1      34.276 -15.919 -24.422  0.00  0.00    +0.003 C 
ATOM     10  C   UNL     1      33.274 -13.769 -24.729  0.00  0.00    +0.064 C 
ATOM     11  C   UNL     1      33.688 -14.980 -25.264  0.00  0.00    +0.016 C 
BRANCH   8  12
ATOM     12  N   UNL     1      34.152 -14.076 -21.225  0.00  0.00    -0.303 NA
ATOM     13  H   UNL     1      33.384 -14.159 -20.614  0.00  0.00    +0.121 HD
ATOM     14  H   UNL     1      35.021 -13.763 -20.886  0.00  0.00    +0.121 HD
ENDBRANCH   8  12
BRANCH   6  15
ATOM     15  C   UNL     1      32.986 -12.224 -22.916  0.00  0.00    +0.251 C 
BRANCH  15  16
ATOM     16  O   UNL     1      34.083 -11.320 -22.926  0.00  0.00    -0.250 OA
BRANCH  16  17
ATOM     17  P   UNL     1      34.105 -10.102 -24.015  0.00  0.00    +0.504 P 
ATOM     18  O   UNL     1      32.924  -9.185 -23.782  0.00  0.00    -0.225 OA
ATOM     19  O   UNL     1      34.360 -10.690 -25.386  0.00  0.00    -0.116 OA
BRANCH  17  20
ATOM     20  O   UNL     1      35.463  -9.335 -23.531  0.00  0.00    -0.301 OA
ATOM     21  H   UNL     1      35.369  -9.064 -22.604  0.00  0.00    +0.222 HD
ENDBRANCH  17  20
ENDBRANCH  16  17
ENDBRANCH  15  16
ENDBRANCH   6  15
ENDBRANCH   4   7
BRANCH   3  22
ATOM     22  C   UNL     1      36.676 -19.500 -20.724  0.00  0.00    +0.075 C 
BRANCH  22  23
ATOM     23  C   UNL     1      35.813 -20.445 -19.898  0.00  0.00    -0.016 C 
ATOM     24  C   UNL     1      34.438 -20.511 -20.125  0.00  0.00    -0.004 C 
ATOM     25  C   UNL     1      36.397 -21.245 -18.915  0.00  0.00    -0.004 C 
ATOM     26  C   UNL     1      34.231 -22.175 -18.386  0.00  0.00    +0.021 C 
ATOM     27  C   UNL     1      33.647 -21.375 -19.369  0.00  0.00    -0.001 C 
ATOM     28  C   UNL     1      35.605 -22.110 -18.159  0.00  0.00    -0.001 C 
BRANCH  26  29
ATOM     29  C   UNL     1      33.385 -23.102 -17.580  0.00  0.00    +0.234 C 
BRANCH  29  30
ATOM     30  O   UNL     1      32.041 -22.637 -17.581  0.00  0.00    -0.455 OA
BRANCH  30  32
ATOM     31  N   UNL     1      29.967 -22.719 -16.544  0.00  0.00    -0.210 NA
ATOM     32  C   UNL     1      31.308 -22.863 -16.446  0.00  0.00    +0.225 C 
ATOM     33  C   UNL     1      31.967 -23.223 -15.282  0.00  0.00    +0.058 C 
ATOM     34  C   UNL     1      31.201 -23.449 -14.143  0.00  0.00    +0.006 C 
ATOM     35  C   UNL     1      29.256 -22.948 -15.417  0.00  0.00    +0.102 C 
ATOM     36  C   UNL     1      29.819 -23.312 -14.204  0.00  0.00    +0.021 C 
ENDBRANCH  30  32
ENDBRANCH  29  30
ENDBRANCH  26  29
ENDBRANCH  22  23
ENDBRANCH   3  22
TORSDOF 11
ENDMDL
MODEL 3
REMARK VINA RESULT:     -11.6      3.777     10.598
REMARK  Name = 44123754
REMARK  11 active torsions:
REMARK  status: ('A' for Active; 'I' for Inactive)
REMARK    1  A    between atoms: C_3  and  C_22
REMARK    2  A    between atoms: C_4  and  C_7
REMARK    3  A    between atoms: N_6  and  C_15
REMARK    4  A    between atoms: C_8  and  N_12
REMARK    5  A    between atoms: C_15  and  O_16
REMARK    6  A    between atoms: O_16  and  P_17
REMARK    7  A    between atoms: P_17  and  O_20
REMARK    8  A    between atoms: C_22  and  C_23
REMARK    9  A    between atoms: C_26  and  C_29
REMARK   10  A    between atoms: C_29  and  O_30
REMARK   11  A    between atoms: O_30  and  C_32
REMARK                            x       y       z     vdW  Elec       q    Type
REMARK                         _______ _______ _______ _____ _____    ______ ____
ROOT
ATOM      1  O   UNL     1      34.990 -16.224 -20.936  0.00  0.00    -0.354 OA
ATOM      2  N   UNL     1      35.570 -17.295 -20.265  0.00  0.00    -0.081 NA
ATOM      3  C   UNL     1      35.913 -18.159 -21.224  0.00  0.00    +0.105 C 
ATOM      4  C   UNL     1      35.001 -16.473 -22.271  0.00  0.00    +0.175 C 
ATOM      5  C   UNL     1      35.578 -17.692 -22.507  0.00  0.00    +0.058 C 
ENDROOT
BRANCH   4   7
ATOM      6  N   UNL     1      33.644 -13.237 -23.432  0.00  0.00    -0.266 N 
ATOM      7  C   UNL     1      34.427 -15.442 -23.103  0.00  0.00    +0.048 C 
ATOM      8  C   UNL     1      34.177 -14.164 -22.624  0.00  0.00    +0.156 C 
ATOM      9  C   UNL     1      34.114 -15.734 -24.427  0.00  0.00    +0.003 C 
ATOM     10  C   UNL     1      33.333 -13.492 -24.709  0.00  0.00    +0.064 C 
ATOM     11  C   UNL     1      33.560 -14.752 -25.243  0.00  0.00    +0.016 C 
BRANCH   8  12
ATOM     12  N   UNL     1      34.480 -13.826 -21.287  0.00  0.00    -0.303 NA
ATOM     13  H   UNL     1      35.124 -13.106 -21.096  0.00  0.00    +0.121 HD
ATOM     14  H   UNL     1      34.047 -14.311 -20.548  0.00  0.00    +0.121 HD
ENDBRANCH   8  12
BRANCH   6  15
ATOM     15  C   UNL     1      33.380 -11.888 -22.925  0.00  0.00    +0.251 C 
BRANCH  15  16
ATOM     16  O   UNL     1      32.454 -11.979 -21.851  0.00  0.00    -0.250 OA
BRANCH  16  17
ATOM     17  P   UNL     1      31.554 -10.673 -21.460  0.00  0.00    +0.504 P 
ATOM     18  O   UNL     1      31.598  -9.664 -22.587  0.00  0.00    -0.225 OA
ATOM     19  O   UNL     1      31.899 -10.258 -20.046  0.00  0.00    -0.116 OA
BRANCH  17  20
ATOM     20  O   UNL     1      30.074 -11.364 -21.438  0.00  0.00    -0.301 OA
ATOM     21  H   UNL     1      29.467 -10.813 -20.920  0.00  0.00    +0.222 HD
ENDBRANCH  17  20
ENDBRANCH  16  17
ENDBRANCH  15  16
ENDBRANCH   6  15
ENDBRANCH   4   7
BRANCH   3  22
ATOM     22  C   UNL     1      36.565 -19.430 -20.869  0.00  0.00    +0.075 C 
BRANCH  22  23
ATOM     23  C   UNL     1      35.706 -20.373 -20.037  0.00  0.00    -0.016 C 
ATOM     24  C   UNL     1      34.323 -20.397 -20.217  0.00  0.00    -0.004 C 
ATOM     25  C   UNL     1      36.301 -21.212 -19.095  0.00  0.00    -0.004 C 
ATOM     26  C   UNL     1      34.131 -22.100 -18.514  0.00  0.00    +0.021 C 
ATOM     27  C   UNL     1      33.535 -21.260 -19.455  0.00  0.00    -0.001 C 
ATOM     28  C   UNL     1      35.514 -22.075 -18.333  0.00  0.00    -0.001 C 
BRANCH  26  29
ATOM     29  C   UNL     1      33.289 -23.024 -17.701  0.00  0.00    +0.234 C 
BRANCH  29  30
ATOM     30  O   UNL     1      31.966 -22.510 -17.620  0.00  0.00    -0.455 OA
BRANCH  30  32
ATOM     31  N   UNL     1      29.924 -22.634 -16.524  0.00  0.00    -0.210 NA
ATOM     32  C   UNL     1      31.267 -22.780 -16.473  0.00  0.00    +0.225 C 
ATOM     33  C   UNL     1      31.961 -23.183 -15.344  0.00  0.00    +0.058 C 
ATOM     34  C   UNL     1      31.230 -23.454 -14.192  0.00  0.00    +0.006 C 
ATOM     35  C   UNL     1      29.247 -22.906 -15.386  0.00  0.00    +0.102 C 
ATOM     36  C   UNL     1      29.846 -23.315 -14.205  0.00  0.00    +0.021 C 
ENDBRANCH  30  32
ENDBRANCH  29  30
ENDBRANCH  26  29
ENDBRANCH  22  23
ENDBRANCH   3  22
TORSDOF 11
ENDMDL
MODEL 4
REMARK VINA RESULT:     -11.6      4.992     11.740
REMARK  Name = 44123754
REMARK  11 active torsions:
REMARK  status: ('A' for Active; 'I' for Inactive)
REMARK    1  A    between atoms: C_3  and  C_22
REMARK    2  A    between atoms: C_4  and  C_7
REMARK    3  A    between atoms: N_6  and  C_15
REMARK    4  A    between atoms: C_8  and  N_12
REMARK    5  A    between atoms: C_15  and  O_16
REMARK    6  A    between atoms: O_16  and  P_17
REMARK    7  A    between atoms: P_17  and  O_20
REMARK    8  A    between atoms: C_22  and  C_23
REMARK    9  A    between atoms: C_26  and  C_29
REMARK   10  A    between atoms: C_29  and  O_30
REMARK   11  A    between atoms: O_30  and  C_32
REMARK                            x       y       z     vdW  Elec       q    Type
REMARK                         _______ _______ _______ _____ _____    ______ ____
ROOT
ATOM      1  O   UNL     1      32.984 -13.820 -24.520  0.00  0.00    -0.354 OA
ATOM      2  N   UNL     1      33.582 -14.928 -25.109  0.00  0.00    -0.081 NA
ATOM      3  C   UNL     1      34.244 -15.532 -24.119  0.00  0.00    +0.105 C 
ATOM      4  C   UNL     1      33.302 -13.789 -23.200  0.00  0.00    +0.175 C 
ATOM      5  C   UNL     1      34.102 -14.857 -22.893  0.00  0.00    +0.058 C 
ENDROOT
BRANCH   4   7
ATOM      6  N   UNL     1      32.288 -10.385 -22.177  0.00  0.00    -0.266 N 
ATOM      7  C   UNL     1      32.748 -12.686 -22.449  0.00  0.00    +0.048 C 
ATOM      8  C   UNL     1      32.816 -11.378 -22.905  0.00  0.00    +0.156 C 
ATOM      9  C   UNL     1      32.125 -12.939 -21.231  0.00  0.00    +0.003 C 
ATOM     10  C   UNL     1      31.684 -10.600 -21.001  0.00  0.00    +0.064 C 
ATOM     11  C   UNL     1      31.586 -11.888 -20.496  0.00  0.00    +0.016 C 
BRANCH   8  12
ATOM     12  N   UNL     1      33.439 -11.078 -24.137  0.00  0.00    -0.303 NA
ATOM     13  H   UNL     1      33.346 -11.696 -24.898  0.00  0.00    +0.121 HD
ATOM     14  H   UNL     1      33.966 -10.253 -24.232  0.00  0.00    +0.121 HD
ENDBRANCH   8  12
BRANCH   6  15
ATOM     15  C   UNL     1      32.361  -9.003 -22.660  0.00  0.00    +0.251 C 
BRANCH  15  16
ATOM     16  O   UNL     1      31.962  -8.134 -21.610  0.00  0.00    -0.250 OA
BRANCH  16  17
ATOM     17  P   UNL     1      32.971  -6.940 -21.134  0.00  0.00    +0.504 P 
ATOM     18  O   UNL     1      32.221  -5.626 -21.081  0.00  0.00    -0.225 OA
ATOM     19  O   UNL     1      34.258  -7.057 -21.922  0.00  0.00    -0.116 OA
BRANCH  17  20
ATOM     20  O   UNL     1      33.266  -7.432 -19.605  0.00  0.00    -0.301 OA
ATOM     21  H   UNL     1      34.215  -7.357 -19.418  0.00  0.00    +0.222 HD
ENDBRANCH  17  20
ENDBRANCH  16  17
ENDBRANCH  15  16
ENDBRANCH   6  15
ENDBRANCH   4   7
BRANCH   3  22
ATOM     22  C   UNL     1      35.007 -16.761 -24.388  0.00  0.00    +0.075 C 
BRANCH  22  23
ATOM     23  C   UNL     1      35.049 -17.748 -23.228  0.00  0.00    -0.016 C 
ATOM     24  C   UNL     1      34.260 -18.898 -23.262  0.00  0.00    -0.004 C 
ATOM     25  C   UNL     1      35.877 -17.502 -22.132  0.00  0.00    -0.004 C 
ATOM     26  C   UNL     1      35.126 -19.556 -21.104  0.00  0.00    +0.021 C 
ATOM     27  C   UNL     1      34.298 -19.801 -22.200  0.00  0.00    -0.001 C 
ATOM     28  C   UNL     1      35.915 -18.406 -21.070  0.00  0.00    -0.001 C 
BRANCH  26  29
ATOM     29  C   UNL     1      35.169 -20.523 -19.971  0.00  0.00    +0.234 C 
BRANCH  29  30
ATOM     30  O   UNL     1      33.885 -21.112 -19.803  0.00  0.00    -0.455 OA
BRANCH  30  32
ATOM     31  N   UNL     1      32.392 -22.015 -18.273  0.00  0.00    -0.210 NA
ATOM     32  C   UNL     1      33.676 -21.821 -18.649  0.00  0.00    +0.225 C 
ATOM     33  C   UNL     1      34.771 -22.294 -17.945  0.00  0.00    +0.058 C 
ATOM     34  C   UNL     1      34.534 -23.012 -16.778  0.00  0.00    +0.006 C 
ATOM     35  C   UNL     1      32.200 -22.718 -17.134  0.00  0.00    +0.102 C 
ATOM     36  C   UNL     1      33.226 -23.233 -16.359  0.00  0.00    +0.021 C 
ENDBRANCH  30  32
ENDBRANCH  29  30
ENDBRANCH  26  29
ENDBRANCH  22  23
ENDBRANCH   3  22
TORSDOF 11
ENDMDL
MODEL 5
REMARK VINA RESULT:     -11.6      4.262      6.190
REMARK  Name = 44123754
REMARK  11 active torsions:
REMARK  status: ('A' for Active; 'I' for Inactive)
REMARK    1  A    between atoms: C_3  and  C_22
REMARK    2  A    between atoms: C_4  and  C_7
REMARK    3  A    between atoms: N_6  and  C_15
REMARK    4  A    between atoms: C_8  and  N_12
REMARK    5  A    between atoms: C_15  and  O_16
REMARK    6  A    between atoms: O_16  and  P_17
REMARK    7  A    between atoms: P_17  and  O_20
REMARK    8  A    between atoms: C_22  and  C_23
REMARK    9  A    between atoms: C_26  and  C_29
REMARK   10  A    between atoms: C_29  and  O_30
REMARK   11  A    between atoms: O_30  and  C_32
REMARK                            x       y       z     vdW  Elec       q    Type
REMARK                         _______ _______ _______ _____ _____    ______ ____
ROOT
ATOM      1  O   UNL     1      33.421 -23.775 -14.444  0.00  0.00    -0.354 OA
ATOM      2  N   UNL     1      32.536 -23.436 -15.461  0.00  0.00    -0.081 NA
ATOM      3  C   UNL     1      33.309 -23.169 -16.517  0.00  0.00    +0.105 C 
ATOM      4  C   UNL     1      34.693 -23.702 -14.914  0.00  0.00    +0.175 C 
ATOM      5  C   UNL     1      34.677 -23.321 -16.229  0.00  0.00    +0.058 C 
ENDROOT
BRANCH   4   7
ATOM      6  N   UNL     1      37.368 -25.501 -13.104  0.00  0.00    -0.266 N 
ATOM      7  C   UNL     1      35.730 -24.030 -13.963  0.00  0.00    +0.048 C 
ATOM      8  C   UNL     1      36.411 -25.238 -14.005  0.00  0.00    +0.156 C 
ATOM      9  C   UNL     1      36.060 -23.109 -12.974  0.00  0.00    +0.003 C 
ATOM     10  C   UNL     1      37.705 -24.633 -12.142  0.00  0.00    +0.064 C 
ATOM     11  C   UNL     1      37.057 -23.410 -12.051  0.00  0.00    +0.016 C 
BRANCH   8  12
ATOM     12  N   UNL     1      36.107 -26.200 -14.993  0.00  0.00    -0.303 NA
ATOM     13  H   UNL     1      36.640 -27.026 -15.057  0.00  0.00    +0.121 HD
ATOM     14  H   UNL     1      35.363 -26.045 -15.618  0.00  0.00    +0.121 HD
ENDBRANCH   8  12
BRANCH   6  15
ATOM     15  C   UNL     1      38.086 -26.777 -13.150  0.00  0.00    +0.251 C 
BRANCH  15  16
ATOM     16  O   UNL     1      38.731 -26.890 -14.411  0.00  0.00    -0.250 OA
BRANCH  16  17
ATOM     17  P   UNL     1      40.209 -26.224 -14.615  0.00  0.00    +0.504 P 
ATOM     18  O   UNL     1      41.200 -26.878 -13.676  0.00  0.00    -0.225 OA
ATOM     19  O   UNL     1      40.057 -24.719 -14.641  0.00  0.00    -0.116 OA
BRANCH  17  20
ATOM     20  O   UNL     1      40.523 -26.729 -16.136  0.00  0.00    -0.301 OA
ATOM     21  H   UNL     1      40.908 -27.620 -16.108  0.00  0.00    +0.222 HD
ENDBRANCH  17  20
ENDBRANCH  16  17
ENDBRANCH  15  16
ENDBRANCH   6  15
ENDBRANCH   4   7
BRANCH   3  22
ATOM     22  C   UNL     1      32.696 -22.768 -17.793  0.00  0.00    +0.075 C 
BRANCH  22  23
ATOM     23  C   UNL     1      33.575 -21.884 -18.669  0.00  0.00    -0.016 C 
ATOM     24  C   UNL     1      32.992 -20.950 -19.525  0.00  0.00    -0.004 C 
ATOM     25  C   UNL     1      34.964 -22.009 -18.615  0.00  0.00    -0.004 C 
ATOM     26  C   UNL     1      35.184 -20.266 -20.273  0.00  0.00    +0.021 C 
ATOM     27  C   UNL     1      33.796 -20.141 -20.327  0.00  0.00    -0.001 C 
ATOM     28  C   UNL     1      35.768 -21.200 -19.417  0.00  0.00    -0.001 C 
BRANCH  26  29
ATOM     29  C   UNL     1      36.044 -19.399 -21.129  0.00  0.00    +0.234 C 
BRANCH  29  30
ATOM     30  O   UNL     1      35.655 -18.040 -20.966  0.00  0.00    -0.455 OA
BRANCH  30  32
ATOM     31  N   UNL     1      35.105 -16.040 -22.006  0.00  0.00    -0.210 NA
ATOM     32  C   UNL     1      35.219 -17.385 -22.088  0.00  0.00    +0.225 C 
ATOM     33  C   UNL     1      34.926 -18.120 -23.225  0.00  0.00    +0.058 C 
ATOM     34  C   UNL     1      34.487 -17.432 -24.350  0.00  0.00    +0.006 C 
ATOM     35  C   UNL     1      34.677 -15.405 -23.120  0.00  0.00    +0.102 C 
ATOM     36  C   UNL     1      34.358 -16.048 -24.305  0.00  0.00    +0.021 C 
ENDBRANCH  30  32
ENDBRANCH  29  30
ENDBRANCH  26  29
ENDBRANCH  22  23
ENDBRANCH   3  22
TORSDOF 11
ENDMDL
MODEL 6
REMARK VINA RESULT:     -11.3      3.029      3.915
REMARK  Name = 44123754
REMARK  11 active torsions:
REMARK  status: ('A' for Active; 'I' for Inactive)
REMARK    1  A    between atoms: C_3  and  C_22
REMARK    2  A    between atoms: C_4  and  C_7
REMARK    3  A    between atoms: N_6  and  C_15
REMARK    4  A    between atoms: C_8  and  N_12
REMARK    5  A    between atoms: C_15  and  O_16
REMARK    6  A    between atoms: O_16  and  P_17
REMARK    7  A    between atoms: P_17  and  O_20
REMARK    8  A    between atoms: C_22  and  C_23
REMARK    9  A    between atoms: C_26  and  C_29
REMARK   10  A    between atoms: C_29  and  O_30
REMARK   11  A    between atoms: O_30  and  C_32
REMARK                            x       y       z     vdW  Elec       q    Type
REMARK                         _______ _______ _______ _____ _____    ______ ____
ROOT
ATOM      1  O   UNL     1      33.904 -23.304 -18.383  0.00  0.00    -0.354 OA
ATOM      2  N   UNL     1      34.807 -22.775 -19.297  0.00  0.00    -0.081 NA
ATOM      3  C   UNL     1      35.600 -21.976 -18.577  0.00  0.00    +0.105 C 
ATOM      4  C   UNL     1      34.177 -22.811 -17.147  0.00  0.00    +0.175 C 
ATOM      5  C   UNL     1      35.248 -21.961 -17.216  0.00  0.00    +0.058 C 
ENDROOT
BRANCH   4   7
ATOM      6  N   UNL     1      32.978 -24.321 -13.993  0.00  0.00    -0.266 N 
ATOM      7  C   UNL     1      33.315 -23.275 -16.085  0.00  0.00    +0.048 C 
ATOM      8  C   UNL     1      33.814 -23.907 -14.955  0.00  0.00    +0.156 C 
ATOM      9  C   UNL     1      31.941 -23.083 -16.193  0.00  0.00    +0.003 C 
ATOM     10  C   UNL     1      31.652 -24.149 -14.072  0.00  0.00    +0.064 C 
ATOM     11  C   UNL     1      31.097 -23.524 -15.178  0.00  0.00    +0.016 C 
BRANCH   8  12
ATOM     12  N   UNL     1      35.202 -24.121 -14.806  0.00  0.00    -0.303 NA
ATOM     13  H   UNL     1      35.566 -24.394 -13.933  0.00  0.00    +0.121 HD
ATOM     14  H   UNL     1      35.803 -23.997 -15.575  0.00  0.00    +0.121 HD
ENDBRANCH   8  12
BRANCH   6  15
ATOM     15  C   UNL     1      33.506 -24.988 -12.801  0.00  0.00    +0.251 C 
BRANCH  15  16
ATOM     16  O   UNL     1      34.233 -24.039 -12.033  0.00  0.00    -0.250 OA
BRANCH  16  17
ATOM     17  P   UNL     1      35.595 -24.509 -11.262  0.00  0.00    +0.504 P 
ATOM     18  O   UNL     1      35.242 -25.108  -9.918  0.00  0.00    -0.225 OA
ATOM     19  O   UNL     1      36.612 -23.392 -11.360  0.00  0.00    -0.116 OA
BRANCH  17  20
ATOM     20  O   UNL     1      36.066 -25.713 -12.261  0.00  0.00    -0.301 OA
ATOM     21  H   UNL     1      36.177 -25.364 -13.159  0.00  0.00    +0.222 HD
ENDBRANCH  17  20
ENDBRANCH  16  17
ENDBRANCH  15  16
ENDBRANCH   6  15
ENDBRANCH   4   7
BRANCH   3  22
ATOM     22  C   UNL     1      36.691 -21.238 -19.234  0.00  0.00    +0.075 C 
BRANCH  22  23
ATOM     23  C   UNL     1      36.234 -20.218 -20.269  0.00  0.00    -0.016 C 
ATOM     24  C   UNL     1      34.916 -20.230 -20.725  0.00  0.00    -0.004 C 
ATOM     25  C   UNL     1      37.133 -19.270 -20.759  0.00  0.00    -0.004 C 
ATOM     26  C   UNL     1      35.397 -18.349 -22.163  0.00  0.00    +0.021 C 
ATOM     27  C   UNL     1      34.497 -19.297 -21.673  0.00  0.00    -0.001 C 
ATOM     28  C   UNL     1      36.714 -18.337 -21.707  0.00  0.00    -0.001 C 
BRANCH  26  29
ATOM     29  C   UNL     1      34.948 -17.349 -23.174  0.00  0.00    +0.234 C 
BRANCH  29  30
ATOM     30  O   UNL     1      35.488 -16.074 -22.849  0.00  0.00    -0.455 OA
BRANCH  30  32
ATOM     31  N   UNL     1      33.985 -14.415 -23.457  0.00  0.00    -0.210 NA
ATOM     32  C   UNL     1      34.598 -15.104 -22.469  0.00  0.00    +0.225 C 
ATOM     33  C   UNL     1      34.375 -14.889 -21.119  0.00  0.00    +0.058 C 
ATOM     34  C   UNL     1      33.466 -13.901 -20.759  0.00  0.00    +0.006 C 
ATOM     35  C   UNL     1      33.106 -13.463 -23.069  0.00  0.00    +0.102 C 
ATOM     36  C   UNL     1      32.814 -13.170 -21.747  0.00  0.00    +0.021 C 
ENDBRANCH  30  32
ENDBRANCH  29  30
ENDBRANCH  26  29
ENDBRANCH  22  23
ENDBRANCH   3  22
TORSDOF 11
ENDMDL
MODEL 7
REMARK VINA RESULT:     -11.3      4.688     11.588
REMARK  Name = 44123754
REMARK  11 active torsions:
REMARK  status: ('A' for Active; 'I' for Inactive)
REMARK    1  A    between atoms: C_3  and  C_22
REMARK    2  A    between atoms: C_4  and  C_7
REMARK    3  A    between atoms: N_6  and  C_15
REMARK    4  A    between atoms: C_8  and  N_12
REMARK    5  A    between atoms: C_15  and  O_16
REMARK    6  A    between atoms: O_16  and  P_17
REMARK    7  A    between atoms: P_17  and  O_20
REMARK    8  A    between atoms: C_22  and  C_23
REMARK    9  A    between atoms: C_26  and  C_29
REMARK   10  A    between atoms: C_29  and  O_30
REMARK   11  A    between atoms: O_30  and  C_32
REMARK                            x       y       z     vdW  Elec       q    Type
REMARK                         _______ _______ _______ _____ _____    ______ ____
ROOT
ATOM      1  O   UNL     1      34.505 -14.351 -21.948  0.00  0.00    -0.354 OA
ATOM      2  N   UNL     1      34.888 -15.687 -21.964  0.00  0.00    -0.081 NA
ATOM      3  C   UNL     1      34.658 -16.098 -23.214  0.00  0.00    +0.105 C 
ATOM      4  C   UNL     1      34.058 -13.998 -23.181  0.00  0.00    +0.175 C 
ATOM      5  C   UNL     1      34.135 -15.074 -24.024  0.00  0.00    +0.058 C 
ENDROOT
BRANCH   4   7
ATOM      6  N   UNL     1      32.390 -10.756 -22.569  0.00  0.00    -0.266 N 
ATOM      7  C   UNL     1      33.622 -12.628 -23.320  0.00  0.00    +0.048 C 
ATOM      8  C   UNL     1      32.769 -12.031 -22.403  0.00  0.00    +0.156 C 
ATOM      9  C   UNL     1      34.069 -11.880 -24.404  0.00  0.00    +0.003 C 
ATOM     10  C   UNL     1      32.805 -10.014 -23.604  0.00  0.00    +0.064 C 
ATOM     11  C   UNL     1      33.659 -10.559 -24.552  0.00  0.00    +0.016 C 
BRANCH   8  12
ATOM     12  N   UNL     1      32.292 -12.755 -21.288  0.00  0.00    -0.303 NA
ATOM     13  H   UNL     1      32.882 -12.913 -20.515  0.00  0.00    +0.121 HD
ATOM     14  H   UNL     1      31.371 -13.101 -21.284  0.00  0.00    +0.121 HD
ENDBRANCH   8  12
BRANCH   6  15
ATOM     15  C   UNL     1      31.489 -10.127 -21.600  0.00  0.00    +0.251 C 
BRANCH  15  16
ATOM     16  O   UNL     1      32.271  -9.445 -20.630  0.00  0.00    -0.250 OA
BRANCH  16  17
ATOM     17  P   UNL     1      32.308  -7.811 -20.638  0.00  0.00    +0.504 P 
ATOM     18  O   UNL     1      32.250  -7.291 -19.218  0.00  0.00    -0.225 OA
ATOM     19  O   UNL     1      31.327  -7.315 -21.677  0.00  0.00    -0.116 OA
BRANCH  17  20
ATOM     20  O   UNL     1      33.818  -7.580 -21.215  0.00  0.00    -0.301 OA
ATOM     21  H   UNL     1      34.206  -6.793 -20.800  0.00  0.00    +0.222 HD
ENDBRANCH  17  20
ENDBRANCH  16  17
ENDBRANCH  15  16
ENDBRANCH   6  15
ENDBRANCH   4   7
BRANCH   3  22
ATOM     22  C   UNL     1      34.954 -17.488 -23.596  0.00  0.00    +0.075 C 
BRANCH  22  23
ATOM     23  C   UNL     1      35.265 -18.414 -22.428  0.00  0.00    -0.016 C 
ATOM     24  C   UNL     1      36.523 -18.379 -21.826  0.00  0.00    -0.004 C 
ATOM     25  C   UNL     1      34.292 -19.298 -21.960  0.00  0.00    -0.004 C 
ATOM     26  C   UNL     1      35.835 -20.111 -20.288  0.00  0.00    +0.021 C 
ATOM     27  C   UNL     1      36.808 -19.227 -20.756  0.00  0.00    -0.001 C 
ATOM     28  C   UNL     1      34.578 -20.147 -20.891  0.00  0.00    -0.001 C 
BRANCH  26  29
ATOM     29  C   UNL     1      36.139 -21.016 -19.143  0.00  0.00    +0.234 C 
BRANCH  29  30
ATOM     30  O   UNL     1      35.317 -22.174 -19.224  0.00  0.00    -0.455 OA
BRANCH  30  32
ATOM     31  N   UNL     1      35.324 -22.818 -16.995  0.00  0.00    -0.210 NA
ATOM     32  C   UNL     1      34.609 -22.508 -18.100  0.00  0.00    +0.225 C 
ATOM     33  C   UNL     1      33.224 -22.507 -18.153  0.00  0.00    +0.058 C 
ATOM     34  C   UNL     1      32.528 -22.848 -16.999  0.00  0.00    +0.006 C 
ATOM     35  C   UNL     1      34.613 -23.143 -15.892  0.00  0.00    +0.102 C 
ATOM     36  C   UNL     1      33.229 -23.173 -15.842  0.00  0.00    +0.021 C 
ENDBRANCH  30  32
ENDBRANCH  29  30
ENDBRANCH  26  29
ENDBRANCH  22  23
ENDBRANCH   3  22
TORSDOF 11
ENDMDL
MODEL 8
REMARK VINA RESULT:     -11.3      3.686      5.559
REMARK  Name = 44123754
REMARK  11 active torsions:
REMARK  status: ('A' for Active; 'I' for Inactive)
REMARK    1  A    between atoms: C_3  and  C_22
REMARK    2  A    between atoms: C_4  and  C_7
REMARK    3  A    between atoms: N_6  and  C_15
REMARK    4  A    between atoms: C_8  and  N_12
REMARK    5  A    between atoms: C_15  and  O_16
REMARK    6  A    between atoms: O_16  and  P_17
REMARK    7  A    between atoms: P_17  and  O_20
REMARK    8  A    between atoms: C_22  and  C_23
REMARK    9  A    between atoms: C_26  and  C_29
REMARK   10  A    between atoms: C_29  and  O_30
REMARK   11  A    between atoms: O_30  and  C_32
REMARK                            x       y       z     vdW  Elec       q    Type
REMARK                         _______ _______ _______ _____ _____    ______ ____
ROOT
ATOM      1  O   UNL     1      36.289 -19.725 -19.940  0.00  0.00    -0.354 OA
ATOM      2  N   UNL     1      36.623 -18.927 -21.028  0.00  0.00    -0.081 NA
ATOM      3  C   UNL     1      35.623 -19.091 -21.898  0.00  0.00    +0.105 C 
ATOM      4  C   UNL     1      35.104 -20.342 -20.185  0.00  0.00    +0.175 C 
ATOM      5  C   UNL     1      34.638 -19.973 -21.418  0.00  0.00    +0.058 C 
ENDROOT
BRANCH   4   7
ATOM      6  N   UNL     1      34.974 -22.503 -17.188  0.00  0.00    -0.266 N 
ATOM      7  C   UNL     1      34.623 -21.211 -19.135  0.00  0.00    +0.048 C 
ATOM      8  C   UNL     1      35.462 -21.700 -18.144  0.00  0.00    +0.156 C 
ATOM      9  C   UNL     1      33.280 -21.571 -19.114  0.00  0.00    +0.003 C 
ATOM     10  C   UNL     1      33.685 -22.865 -17.145  0.00  0.00    +0.064 C 
ATOM     11  C   UNL     1      32.801 -22.407 -18.110  0.00  0.00    +0.016 C 
BRANCH   8  12
ATOM     12  N   UNL     1      36.832 -21.359 -18.128  0.00  0.00    -0.303 NA
ATOM     13  H   UNL     1      37.515 -22.067 -18.092  0.00  0.00    +0.121 HD
ATOM     14  H   UNL     1      37.103 -20.413 -18.154  0.00  0.00    +0.121 HD
ENDBRANCH   8  12
BRANCH   6  15
ATOM     15  C   UNL     1      35.859 -23.019 -16.141  0.00  0.00    +0.251 C 
BRANCH  15  16
ATOM     16  O   UNL     1      35.261 -24.173 -15.569  0.00  0.00    -0.250 OA
BRANCH  16  17
ATOM     17  P   UNL     1      36.176 -25.182 -14.665  0.00  0.00    +0.504 P 
ATOM     18  O   UNL     1      37.523 -24.548 -14.396  0.00  0.00    -0.225 OA
ATOM     19  O   UNL     1      36.087 -26.571 -15.258  0.00  0.00    -0.116 OA
BRANCH  17  20
ATOM     20  O   UNL     1      35.307 -25.164 -13.282  0.00  0.00    -0.301 OA
ATOM     21  H   UNL     1      34.908 -26.037 -13.139  0.00  0.00    +0.222 HD
ENDBRANCH  17  20
ENDBRANCH  16  17
ENDBRANCH  15  16
ENDBRANCH   6  15
ENDBRANCH   4   7
BRANCH   3  22
ATOM     22  C   UNL     1      35.647 -18.382 -23.187  0.00  0.00    +0.075 C 
BRANCH  22  23
ATOM     23  C   UNL     1      35.010 -16.998 -23.162  0.00  0.00    -0.016 C 
ATOM     24  C   UNL     1      34.386 -16.497 -24.304  0.00  0.00    -0.004 C 
ATOM     25  C   UNL     1      35.050 -16.233 -21.996  0.00  0.00    -0.004 C 
ATOM     26  C   UNL     1      33.843 -14.465 -23.115  0.00  0.00    +0.021 C 
ATOM     27  C   UNL     1      33.802 -15.231 -24.281  0.00  0.00    -0.001 C 
ATOM     28  C   UNL     1      34.467 -14.966 -21.973  0.00  0.00    -0.001 C 
BRANCH  26  29
ATOM     29  C   UNL     1      33.217 -13.112 -23.090  0.00  0.00    +0.234 C 
BRANCH  29  30
ATOM     30  O   UNL     1      33.652 -12.369 -24.222  0.00  0.00    -0.455 OA
BRANCH  30  32
ATOM     31  N   UNL     1      33.049 -10.404 -23.146  0.00  0.00    -0.210 NA
ATOM     32  C   UNL     1      33.851 -11.026 -24.039  0.00  0.00    +0.225 C 
ATOM     33  C   UNL     1      34.846 -10.390 -24.764  0.00  0.00    +0.058 C 
ATOM     34  C   UNL     1      35.029  -9.026 -24.559  0.00  0.00    +0.006 C 
ATOM     35  C   UNL     1      33.257  -9.079 -22.973  0.00  0.00    +0.102 C 
ATOM     36  C   UNL     1      34.224  -8.351 -23.648  0.00  0.00    +0.021 C 
ENDBRANCH  30  32
ENDBRANCH  29  30
ENDBRANCH  26  29
ENDBRANCH  22  23
ENDBRANCH   3  22
TORSDOF 11
ENDMDL
MODEL 9
REMARK VINA RESULT:     -11.2      3.649      5.109
REMARK  Name = 44123754
REMARK  11 active torsions:
REMARK  status: ('A' for Active; 'I' for Inactive)
REMARK    1  A    between atoms: C_3  and  C_22
REMARK    2  A    between atoms: C_4  and  C_7
REMARK    3  A    between atoms: N_6  and  C_15
REMARK    4  A    between atoms: C_8  and  N_12
REMARK    5  A    between atoms: C_15  and  O_16
REMARK    6  A    between atoms: O_16  and  P_17
REMARK    7  A    between atoms: P_17  and  O_20
REMARK    8  A    between atoms: C_22  and  C_23
REMARK    9  A    between atoms: C_26  and  C_29
REMARK   10  A    between atoms: C_29  and  O_30
REMARK   11  A    between atoms: O_30  and  C_32
REMARK                            x       y       z     vdW  Elec       q    Type
REMARK                         _______ _______ _______ _____ _____    ______ ____
ROOT
ATOM      1  O   UNL     1      33.576 -20.502 -20.408  0.00  0.00    -0.354 OA
ATOM      2  N   UNL     1      33.948 -19.701 -21.481  0.00  0.00    -0.081 NA
ATOM      3  C   UNL     1      35.277 -19.600 -21.392  0.00  0.00    +0.105 C 
ATOM      4  C   UNL     1      34.684 -20.858 -19.708  0.00  0.00    +0.175 C 
ATOM      5  C   UNL     1      35.794 -20.309 -20.294  0.00  0.00    +0.058 C 
ENDROOT
BRANCH   4   7
ATOM      6  N   UNL     1      35.203 -22.774 -16.590  0.00  0.00    -0.266 N 
ATOM      7  C   UNL     1      34.454 -21.698 -18.556  0.00  0.00    +0.048 C 
ATOM      8  C   UNL     1      35.460 -21.991 -17.647  0.00  0.00    +0.156 C 
ATOM      9  C   UNL     1      33.187 -22.231 -18.348  0.00  0.00    +0.003 C 
ATOM     10  C   UNL     1      33.992 -23.301 -16.366  0.00  0.00    +0.064 C 
ATOM     11  C   UNL     1      32.948 -23.043 -17.242  0.00  0.00    +0.016 C 
BRANCH   8  12
ATOM     12  N   UNL     1      36.761 -21.469 -17.821  0.00  0.00    -0.303 NA
ATOM     13  H   UNL     1      37.062 -20.706 -17.276  0.00  0.00    +0.121 HD
ATOM     14  H   UNL     1      37.365 -21.868 -18.488  0.00  0.00    +0.121 HD
ENDBRANCH   8  12
BRANCH   6  15
ATOM     15  C   UNL     1      36.266 -23.082 -15.630  0.00  0.00    +0.251 C 
BRANCH  15  16
ATOM     16  O   UNL     1      35.764 -24.013 -14.681  0.00  0.00    -0.250 OA
BRANCH  16  17
ATOM     17  P   UNL     1      36.569 -25.413 -14.432  0.00  0.00    +0.504 P 
ATOM     18  O   UNL     1      36.015 -26.490 -15.340  0.00  0.00    -0.225 OA
ATOM     19  O   UNL     1      36.675 -25.647 -12.941  0.00  0.00    -0.116 OA
BRANCH  17  20
ATOM     20  O   UNL     1      38.043 -24.977 -14.984  0.00  0.00    -0.301 OA
ATOM     21  H   UNL     1      38.297 -24.127 -14.589  0.00  0.00    +0.222 HD
ENDBRANCH  17  20
ENDBRANCH  16  17
ENDBRANCH  15  16
ENDBRANCH   6  15
ENDBRANCH   4   7
BRANCH   3  22
ATOM     22  C   UNL     1      36.021 -18.809 -22.386  0.00  0.00    +0.075 C 
BRANCH  22  23
ATOM     23  C   UNL     1      35.319 -17.534 -22.837  0.00  0.00    -0.016 C 
ATOM     24  C   UNL     1      35.265 -16.430 -21.987  0.00  0.00    -0.004 C 
ATOM     25  C   UNL     1      34.730 -17.471 -24.100  0.00  0.00    -0.004 C 
ATOM     26  C   UNL     1      34.034 -15.200 -23.662  0.00  0.00    +0.021 C 
ATOM     27  C   UNL     1      34.622 -15.263 -22.399  0.00  0.00    -0.001 C 
ATOM     28  C   UNL     1      34.087 -16.304 -24.512  0.00  0.00    -0.001 C 
BRANCH  26  29
ATOM     29  C   UNL     1      33.349 -13.951 -24.104  0.00  0.00    +0.234 C 
BRANCH  29  30
ATOM     30  O   UNL     1      33.944 -12.832 -23.458  0.00  0.00    -0.455 OA
BRANCH  30  32
ATOM     31  N   UNL     1      33.133 -10.668 -23.248  0.00  0.00    -0.210 NA
ATOM     32  C   UNL     1      33.095 -11.955 -22.836  0.00  0.00    +0.225 C 
ATOM     33  C   UNL     1      32.257 -12.426 -21.838  0.00  0.00    +0.058 C 
ATOM     34  C   UNL     1      31.403 -11.516 -21.222  0.00  0.00    +0.006 C 
ATOM     35  C   UNL     1      32.289  -9.814 -22.628  0.00  0.00    +0.102 C 
ATOM     36  C   UNL     1      31.413 -10.184 -21.620  0.00  0.00    +0.021 C 
ENDBRANCH  30  32
ENDBRANCH  29  30
ENDBRANCH  26  29
ENDBRANCH  22  23
ENDBRANCH   3  22
TORSDOF 11
ENDMDL
