MODEL 1
REMARK VINA RESULT:     -12.2      0.000      0.000
REMARK  Name = 25243853
REMARK  6 active torsions:
REMARK  status: ('A' for Active; 'I' for Inactive)
REMARK    1  A    between atoms: N_1  and  C_6
REMARK    2  A    between atoms: N_1  and  C_21
REMARK    3  A    between atoms: C_3  and  C_16
REMARK    4  A    between atoms: C_11  and  C_18
REMARK    5  A    between atoms: C_18  and  O_19
REMARK    6  A    between atoms: C_21  and  C_28
REMARK                            x       y       z     vdW  Elec       q    Type
REMARK                         _______ _______ _______ _____ _____    ______ ____
ROOT
ATOM      1  N   UNL     1      35.185 -19.801 -21.316  0.00  0.00    -0.327 N 
ATOM      2  H   UNL     1      35.033 -20.164 -22.218  0.00  0.00    +0.147 HD
ENDROOT
BRANCH   1   6
ATOM      3  C   UNL     1      34.271 -22.218 -18.004  0.00  0.00    +0.054 C 
ATOM      4  C   UNL     1      35.601 -22.001 -18.362  0.00  0.00    +0.006 C 
ATOM      5  C   UNL     1      33.245 -21.632 -18.745  0.00  0.00    +0.006 C 
ATOM      6  C   UNL     1      34.878 -20.613 -20.203  0.00  0.00    +0.045 C 
ATOM      7  C   UNL     1      35.905 -21.197 -19.462  0.00  0.00    +0.014 C 
ATOM      8  C   UNL     1      33.548 -20.830 -19.844  0.00  0.00    +0.014 C 
BRANCH   3  16
ATOM      9  O   UNL     1      32.773 -23.395 -16.728  0.00  0.00    -0.270 OA
ATOM     10  N   UNL     1      34.991 -23.421 -15.986  0.00  0.00    -0.276 N 
ATOM     11  C   UNL     1      36.570 -23.025 -13.581  0.00  0.00    +0.102 C 
ATOM     12  C   UNL     1      35.121 -23.520 -13.530  0.00  0.00    +0.033 C 
ATOM     13  C   UNL     1      36.879 -22.280 -14.883  0.00  0.00    +0.033 C 
ATOM     14  C   UNL     1      34.706 -24.241 -14.811  0.00  0.00    +0.094 C 
ATOM     15  C   UNL     1      36.396 -23.022 -16.129  0.00  0.00    +0.094 C 
ATOM     16  C   UNL     1      33.951 -23.062 -16.847  0.00  0.00    +0.249 C 
BRANCH  11  18
ATOM     17  O   UNL     1      38.600 -24.275 -13.938  0.00  0.00    -0.250 OA
ATOM     18  C   UNL     1      37.519 -24.171 -13.374  0.00  0.00    +0.317 C 
BRANCH  18  19
ATOM     19  O   UNL     1      36.985 -25.048 -12.477  0.00  0.00    -0.444 OA
ATOM     20  C   UNL     1      37.297 -26.426 -12.706  0.00  0.00    +0.256 C 
ENDBRANCH  18  19
ENDBRANCH  11  18
ENDBRANCH   3  16
ENDBRANCH   1   6
BRANCH   1  21
ATOM     21  C   UNL     1      35.708 -18.477 -21.190  0.00  0.00    +0.145 C 
BRANCH  21  28
ATOM     22  N   UNL     1      34.934 -16.316 -22.014  0.00  0.00    -0.392 NA
ATOM     23  N   UNL     1      34.547 -17.325 -24.562  0.00  0.00    -0.200 NA
ATOM     24  N   UNL     1      33.820 -15.251 -25.289  0.00  0.00    -0.271 NA
ATOM     25  N   UNL     1      33.715 -13.384 -23.787  0.00  0.00    -0.310 NA
ATOM     26  N   UNL     1      34.361 -13.663 -21.532  0.00  0.00    -0.329 N 
ATOM     27  N   UNL     1      33.082 -13.149 -26.029  0.00  0.00    -0.283 N 
ATOM     28  C   UNL     1      35.197 -17.600 -22.300  0.00  0.00    +0.133 C 
ATOM     29  C   UNL     1      35.006 -18.099 -23.560  0.00  0.00    +0.193 C 
ATOM     30  C   UNL     1      34.475 -15.544 -23.018  0.00  0.00    +0.248 C 
ATOM     31  C   UNL     1      34.276 -16.039 -24.309  0.00  0.00    +0.131 C 
ATOM     32  C   UNL     1      34.176 -14.209 -22.829  0.00  0.00    +0.231 C 
ATOM     33  C   UNL     1      33.562 -13.965 -24.982  0.00  0.00    +0.207 C 
ATOM     34  H   UNL     1      34.156 -12.716 -21.362  0.00  0.00    +0.145 HD
ATOM     35  H   UNL     1      34.694 -14.232 -20.801  0.00  0.00    +0.145 HD
ATOM     36  H   UNL     1      32.951 -13.528 -26.928  0.00  0.00    +0.156 HD
ATOM     37  H   UNL     1      32.877 -12.201 -25.860  0.00  0.00    +0.156 HD
ENDBRANCH  21  28
ENDBRANCH   1  21
TORSDOF 6
ENDMDL
MODEL 2
REMARK VINA RESULT:     -11.5      4.558     11.249
REMARK  Name = 25243853
REMARK  6 active torsions:
REMARK  status: ('A' for Active; 'I' for Inactive)
REMARK    1  A    between atoms: N_1  and  C_6
REMARK    2  A    between atoms: N_1  and  C_21
REMARK    3  A    between atoms: C_3  and  C_16
REMARK    4  A    between atoms: C_11  and  C_18
REMARK    5  A    between atoms: C_18  and  O_19
REMARK    6  A    between atoms: C_21  and  C_28
REMARK                            x       y       z     vdW  Elec       q    Type
REMARK                         _______ _______ _______ _____ _____    ______ ____
ROOT
ATOM      1  N   UNL     1      36.085 -20.107 -19.886  0.00  0.00    -0.327 N 
ATOM      2  H   UNL     1      36.556 -19.753 -19.098  0.00  0.00    +0.147 HD
ENDROOT
BRANCH   1   6
ATOM      3  C   UNL     1      34.866 -17.414 -22.871  0.00  0.00    +0.054 C 
ATOM      4  C   UNL     1      34.482 -18.753 -22.942  0.00  0.00    +0.006 C 
ATOM      5  C   UNL     1      35.654 -16.970 -21.809  0.00  0.00    +0.006 C 
ATOM      6  C   UNL     1      35.675 -19.202 -20.889  0.00  0.00    +0.045 C 
ATOM      7  C   UNL     1      34.887 -19.647 -21.950  0.00  0.00    +0.014 C 
ATOM      8  C   UNL     1      36.059 -17.863 -20.819  0.00  0.00    +0.014 C 
BRANCH   3  16
ATOM      9  O   UNL     1      34.622 -16.833 -25.076  0.00  0.00    -0.270 OA
ATOM     10  N   UNL     1      33.869 -15.262 -23.515  0.00  0.00    -0.276 N 
ATOM     11  C   UNL     1      34.050 -12.430 -22.896  0.00  0.00    +0.102 C 
ATOM     12  C   UNL     1      34.178 -12.960 -24.328  0.00  0.00    +0.033 C 
ATOM     13  C   UNL     1      34.364 -13.507 -21.853  0.00  0.00    +0.033 C 
ATOM     14  C   UNL     1      33.456 -14.291 -24.525  0.00  0.00    +0.094 C 
ATOM     15  C   UNL     1      33.654 -14.834 -22.128  0.00  0.00    +0.094 C 
ATOM     16  C   UNL     1      34.441 -16.473 -23.914  0.00  0.00    +0.249 C 
BRANCH  11  18
ATOM     17  O   UNL     1      31.795 -12.402 -22.048  0.00  0.00    -0.250 OA
ATOM     18  C   UNL     1      32.684 -11.846 -22.678  0.00  0.00    +0.317 C 
BRANCH  18  19
ATOM     19  O   UNL     1      32.608 -10.627 -23.284  0.00  0.00    -0.444 OA
ATOM     20  C   UNL     1      31.974  -9.599 -22.518  0.00  0.00    +0.256 C 
ENDBRANCH  18  19
ENDBRANCH  11  18
ENDBRANCH   3  16
ENDBRANCH   1   6
BRANCH   1  21
ATOM     21  C   UNL     1      35.847 -21.514 -19.966  0.00  0.00    +0.145 C 
BRANCH  21  28
ATOM     22  N   UNL     1      35.148 -22.466 -17.832  0.00  0.00    -0.392 NA
ATOM     23  N   UNL     1      32.473 -22.109 -18.447  0.00  0.00    -0.200 NA
ATOM     24  N   UNL     1      31.868 -23.021 -16.407  0.00  0.00    -0.271 NA
ATOM     25  N   UNL     1      33.530 -23.777 -14.852  0.00  0.00    -0.310 NA
ATOM     26  N   UNL     1      35.819 -23.593 -15.408  0.00  0.00    -0.329 N 
ATOM     27  N   UNL     1      31.252 -23.945 -14.339  0.00  0.00    -0.283 N 
ATOM     28  C   UNL     1      34.770 -21.923 -19.000  0.00  0.00    +0.133 C 
ATOM     29  C   UNL     1      33.447 -21.746 -19.303  0.00  0.00    +0.193 C 
ATOM     30  C   UNL     1      34.172 -22.828 -16.977  0.00  0.00    +0.248 C 
ATOM     31  C   UNL     1      32.818 -22.653 -17.274  0.00  0.00    +0.131 C 
ATOM     32  C   UNL     1      34.456 -23.394 -15.750  0.00  0.00    +0.231 C 
ATOM     33  C   UNL     1      32.268 -23.563 -15.241  0.00  0.00    +0.207 C 
ATOM     34  H   UNL     1      36.055 -23.995 -14.541  0.00  0.00    +0.145 HD
ATOM     35  H   UNL     1      36.528 -23.329 -16.037  0.00  0.00    +0.145 HD
ATOM     36  H   UNL     1      30.306 -23.810 -14.577  0.00  0.00    +0.156 HD
ATOM     37  H   UNL     1      31.487 -24.347 -13.472  0.00  0.00    +0.156 HD
ENDBRANCH  21  28
ENDBRANCH   1  21
TORSDOF 6
ENDMDL
MODEL 3
REMARK VINA RESULT:     -11.2      5.692      9.430
REMARK  Name = 25243853
REMARK  6 active torsions:
REMARK  status: ('A' for Active; 'I' for Inactive)
REMARK    1  A    between atoms: N_1  and  C_6
REMARK    2  A    between atoms: N_1  and  C_21
REMARK    3  A    between atoms: C_3  and  C_16
REMARK    4  A    between atoms: C_11  and  C_18
REMARK    5  A    between atoms: C_18  and  O_19
REMARK    6  A    between atoms: C_21  and  C_28
REMARK                            x       y       z     vdW  Elec       q    Type
REMARK                         _______ _______ _______ _____ _____    ______ ____
ROOT
ATOM      1  N   UNL     1      32.858 -10.992 -22.872  0.00  0.00    -0.327 N 
ATOM      2  H   UNL     1      33.253 -10.268 -23.410  0.00  0.00    +0.147 HD
ENDROOT
BRANCH   1   6
ATOM      3  C   UNL     1      33.920 -14.957 -23.762  0.00  0.00    +0.054 C 
ATOM      4  C   UNL     1      33.854 -14.534 -22.434  0.00  0.00    +0.006 C 
ATOM      5  C   UNL     1      33.632 -14.064 -24.794  0.00  0.00    +0.006 C 
ATOM      6  C   UNL     1      33.214 -12.324 -23.171  0.00  0.00    +0.045 C 
ATOM      7  C   UNL     1      33.501 -13.217 -22.139  0.00  0.00    +0.014 C 
ATOM      8  C   UNL     1      33.280 -12.747 -24.499  0.00  0.00    +0.014 C 
BRANCH   3  16
ATOM      9  O   UNL     1      33.873 -16.790 -25.141  0.00  0.00    -0.270 OA
ATOM     10  N   UNL     1      35.080 -17.037 -23.152  0.00  0.00    -0.276 N 
ATOM     11  C   UNL     1      35.388 -18.859 -20.912  0.00  0.00    +0.102 C 
ATOM     12  C   UNL     1      34.955 -19.342 -22.300  0.00  0.00    +0.033 C 
ATOM     13  C   UNL     1      35.108 -17.368 -20.708  0.00  0.00    +0.033 C 
ATOM     14  C   UNL     1      35.449 -18.425 -23.417  0.00  0.00    +0.094 C 
ATOM     15  C   UNL     1      35.576 -16.502 -21.879  0.00  0.00    +0.094 C 
ATOM     16  C   UNL     1      34.291 -16.343 -24.074  0.00  0.00    +0.249 C 
BRANCH  11  18
ATOM     17  O   UNL     1      37.742 -18.829 -21.429  0.00  0.00    -0.250 OA
ATOM     18  C   UNL     1      36.838 -19.175 -20.681  0.00  0.00    +0.317 C 
BRANCH  18  19
ATOM     19  O   UNL     1      36.970 -19.892 -19.528  0.00  0.00    -0.444 OA
ATOM     20  C   UNL     1      36.233 -21.118 -19.481  0.00  0.00    +0.256 C 
ENDBRANCH  18  19
ENDBRANCH  11  18
ENDBRANCH   3  16
ENDBRANCH   1   6
BRANCH   1  21
ATOM     21  C   UNL     1      31.951 -10.648 -21.823  0.00  0.00    +0.145 C 
BRANCH  21  28
ATOM     22  N   UNL     1      31.604  -8.395 -22.691  0.00  0.00    -0.392 NA
ATOM     23  N   UNL     1      32.143  -7.264 -20.222  0.00  0.00    -0.200 NA
ATOM     24  N   UNL     1      31.801  -5.149 -21.100  0.00  0.00    -0.271 NA
ATOM     25  N   UNL     1      31.218  -4.851 -23.408  0.00  0.00    -0.310 NA
ATOM     26  N   UNL     1      30.989  -6.740 -24.808  0.00  0.00    -0.329 N 
ATOM     27  N   UNL     1      31.457  -3.004 -21.988  0.00  0.00    -0.283 N 
ATOM     28  C   UNL     1      31.909  -9.157 -21.629  0.00  0.00    +0.133 C 
ATOM     29  C   UNL     1      32.175  -8.597 -20.409  0.00  0.00    +0.193 C 
ATOM     30  C   UNL     1      31.572  -7.061 -22.502  0.00  0.00    +0.248 C 
ATOM     31  C   UNL     1      31.841  -6.477 -21.262  0.00  0.00    +0.131 C 
ATOM     32  C   UNL     1      31.267  -6.190 -23.529  0.00  0.00    +0.231 C 
ATOM     33  C   UNL     1      31.493  -4.402 -22.177  0.00  0.00    +0.207 C 
ATOM     34  H   UNL     1      30.770  -6.147 -25.562  0.00  0.00    +0.145 HD
ATOM     35  H   UNL     1      31.017  -7.715 -24.941  0.00  0.00    +0.145 HD
ATOM     36  H   UNL     1      31.652  -2.622 -21.102  0.00  0.00    +0.156 HD
ATOM     37  H   UNL     1      31.237  -2.410 -22.742  0.00  0.00    +0.156 HD
ENDBRANCH  21  28
ENDBRANCH   1  21
TORSDOF 6
ENDMDL
MODEL 4
REMARK VINA RESULT:     -11.2      5.601      9.195
REMARK  Name = 25243853
REMARK  6 active torsions:
REMARK  status: ('A' for Active; 'I' for Inactive)
REMARK    1  A    between atoms: N_1  and  C_6
REMARK    2  A    between atoms: N_1  and  C_21
REMARK    3  A    between atoms: C_3  and  C_16
REMARK    4  A    between atoms: C_11  and  C_18
REMARK    5  A    between atoms: C_18  and  O_19
REMARK    6  A    between atoms: C_21  and  C_28
REMARK                            x       y       z     vdW  Elec       q    Type
REMARK                         _______ _______ _______ _____ _____    ______ ____
ROOT
ATOM      1  N   UNL     1      33.128 -11.227 -23.256  0.00  0.00    -0.327 N 
ATOM      2  H   UNL     1      33.431 -10.568 -23.921  0.00  0.00    +0.147 HD
ENDROOT
BRANCH   1   6
ATOM      3  C   UNL     1      34.051 -15.277 -23.877  0.00  0.00    +0.054 C 
ATOM      4  C   UNL     1      33.596 -14.495 -24.939  0.00  0.00    +0.006 C 
ATOM      5  C   UNL     1      34.200 -14.714 -22.610  0.00  0.00    +0.006 C 
ATOM      6  C   UNL     1      33.438 -12.588 -23.465  0.00  0.00    +0.045 C 
ATOM      7  C   UNL     1      33.290 -13.150 -24.732  0.00  0.00    +0.014 C 
ATOM      8  C   UNL     1      33.894 -13.370 -22.403  0.00  0.00    +0.014 C 
BRANCH   3  16
ATOM      9  O   UNL     1      33.946 -17.194 -25.133  0.00  0.00    -0.270 OA
ATOM     10  N   UNL     1      35.132 -17.352 -23.123  0.00  0.00    -0.276 N 
ATOM     11  C   UNL     1      35.362 -19.033 -20.766  0.00  0.00    +0.102 C 
ATOM     12  C   UNL     1      34.919 -19.590 -22.123  0.00  0.00    +0.033 C 
ATOM     13  C   UNL     1      35.134 -17.522 -20.662  0.00  0.00    +0.033 C 
ATOM     14  C   UNL     1      35.452 -18.767 -23.293  0.00  0.00    +0.094 C 
ATOM     15  C   UNL     1      35.640 -16.753 -21.883  0.00  0.00    +0.094 C 
ATOM     16  C   UNL     1      34.374 -16.693 -24.094  0.00  0.00    +0.249 C 
BRANCH  11  18
ATOM     17  O   UNL     1      37.728 -19.044 -21.220  0.00  0.00    -0.250 OA
ATOM     18  C   UNL     1      36.798 -19.385 -20.502  0.00  0.00    +0.317 C 
BRANCH  18  19
ATOM     19  O   UNL     1      36.883 -20.126 -19.361  0.00  0.00    -0.444 OA
ATOM     20  C   UNL     1      36.112 -21.331 -19.353  0.00  0.00    +0.256 C 
ENDBRANCH  18  19
ENDBRANCH  11  18
ENDBRANCH   3  16
ENDBRANCH   1   6
BRANCH   1  21
ATOM     21  C   UNL     1      32.394 -10.764 -22.119  0.00  0.00    +0.145 C 
BRANCH  21  28
ATOM     22  N   UNL     1      32.196  -8.490 -21.261  0.00  0.00    -0.392 NA
ATOM     23  N   UNL     1      31.109  -7.591 -23.643  0.00  0.00    -0.200 NA
ATOM     24  N   UNL     1      30.945  -5.450 -22.776  0.00  0.00    -0.271 NA
ATOM     25  N   UNL     1      31.663  -4.966 -20.539  0.00  0.00    -0.310 NA
ATOM     26  N   UNL     1      32.550  -6.697 -19.198  0.00  0.00    -0.329 N 
ATOM     27  N   UNL     1      30.777  -3.279 -21.899  0.00  0.00    -0.283 N 
ATOM     28  C   UNL     1      32.003  -9.323 -22.295  0.00  0.00    +0.133 C 
ATOM     29  C   UNL     1      31.466  -8.878 -23.472  0.00  0.00    +0.193 C 
ATOM     30  C   UNL     1      31.840  -7.203 -21.434  0.00  0.00    +0.248 C 
ATOM     31  C   UNL     1      31.291  -6.734 -22.630  0.00  0.00    +0.131 C 
ATOM     32  C   UNL     1      31.998  -6.265 -20.432  0.00  0.00    +0.231 C 
ATOM     33  C   UNL     1      31.147  -4.630 -21.727  0.00  0.00    +0.207 C 
ATOM     34  H   UNL     1      32.676  -6.054 -18.463  0.00  0.00    +0.145 HD
ATOM     35  H   UNL     1      32.807  -7.639 -19.076  0.00  0.00    +0.145 HD
ATOM     36  H   UNL     1      30.392  -2.980 -22.754  0.00  0.00    +0.156 HD
ATOM     37  H   UNL     1      30.903  -2.636 -21.165  0.00  0.00    +0.156 HD
ENDBRANCH  21  28
ENDBRANCH   1  21
TORSDOF 6
ENDMDL
MODEL 5
REMARK VINA RESULT:     -11.2      1.255      2.331
REMARK  Name = 25243853
REMARK  6 active torsions:
REMARK  status: ('A' for Active; 'I' for Inactive)
REMARK    1  A    between atoms: N_1  and  C_6
REMARK    2  A    between atoms: N_1  and  C_21
REMARK    3  A    between atoms: C_3  and  C_16
REMARK    4  A    between atoms: C_11  and  C_18
REMARK    5  A    between atoms: C_18  and  O_19
REMARK    6  A    between atoms: C_21  and  C_28
REMARK                            x       y       z     vdW  Elec       q    Type
REMARK                         _______ _______ _______ _____ _____    ______ ____
ROOT
ATOM      1  N   UNL     1      35.123 -19.262 -22.024  0.00  0.00    -0.327 N 
ATOM      2  H   UNL     1      34.754 -19.445 -22.918  0.00  0.00    +0.147 HD
ENDROOT
BRANCH   1   6
ATOM      3  C   UNL     1      33.882 -21.666 -18.811  0.00  0.00    +0.054 C 
ATOM      4  C   UNL     1      32.936 -20.992 -19.584  0.00  0.00    +0.006 C 
ATOM      5  C   UNL     1      35.239 -21.541 -19.105  0.00  0.00    +0.006 C 
ATOM      6  C   UNL     1      34.706 -20.070 -20.945  0.00  0.00    +0.045 C 
ATOM      7  C   UNL     1      33.348 -20.195 -20.652  0.00  0.00    +0.014 C 
ATOM      8  C   UNL     1      35.652 -20.743 -20.172  0.00  0.00    +0.014 C 
BRANCH   3  16
ATOM      9  O   UNL     1      32.239 -22.714 -17.601  0.00  0.00    -0.270 OA
ATOM     10  N   UNL     1      34.425 -22.999 -16.819  0.00  0.00    -0.276 N 
ATOM     11  C   UNL     1      35.985 -22.846 -14.373  0.00  0.00    +0.102 C 
ATOM     12  C   UNL     1      34.491 -23.184 -14.366  0.00  0.00    +0.033 C 
ATOM     13  C   UNL     1      36.400 -22.100 -15.645  0.00  0.00    +0.033 C 
ATOM     14  C   UNL     1      34.029 -23.818 -15.676  0.00  0.00    +0.094 C 
ATOM     15  C   UNL     1      35.868 -22.748 -16.923  0.00  0.00    +0.094 C 
ATOM     16  C   UNL     1      33.448 -22.505 -17.687  0.00  0.00    +0.249 C 
BRANCH  11  18
ATOM     17  O   UNL     1      36.348 -25.152 -13.776  0.00  0.00    -0.250 OA
ATOM     18  C   UNL     1      36.802 -24.092 -14.185  0.00  0.00    +0.317 C 
BRANCH  18  19
ATOM     19  O   UNL     1      38.095 -23.846 -14.538  0.00  0.00    -0.444 OA
ATOM     20  C   UNL     1      39.005 -24.931 -14.329  0.00  0.00    +0.256 C 
ENDBRANCH  18  19
ENDBRANCH  11  18
ENDBRANCH   3  16
ENDBRANCH   1   6
BRANCH   1  21
ATOM     21  C   UNL     1      36.060 -18.193 -21.876  0.00  0.00    +0.145 C 
BRANCH  21  28
ATOM     22  N   UNL     1      34.867 -16.272 -22.791  0.00  0.00    -0.392 NA
ATOM     23  N   UNL     1      34.541 -15.164 -20.275  0.00  0.00    -0.200 NA
ATOM     24  N   UNL     1      33.415 -13.364 -21.198  0.00  0.00    -0.271 NA
ATOM     25  N   UNL     1      33.052 -13.218 -23.564  0.00  0.00    -0.310 NA
ATOM     26  N   UNL     1      33.855 -14.933 -24.977  0.00  0.00    -0.329 N 
ATOM     27  N   UNL     1      32.274 -11.538 -22.131  0.00  0.00    -0.283 N 
ATOM     28  C   UNL     1      35.343 -16.884 -21.695  0.00  0.00    +0.133 C 
ATOM     29  C   UNL     1      35.181 -16.336 -20.451  0.00  0.00    +0.193 C 
ATOM     30  C   UNL     1      34.228 -15.100 -22.612  0.00  0.00    +0.248 C 
ATOM     31  C   UNL     1      34.055 -14.529 -21.349  0.00  0.00    +0.131 C 
ATOM     32  C   UNL     1      33.701 -14.392 -23.674  0.00  0.00    +0.231 C 
ATOM     33  C   UNL     1      32.946 -12.766 -22.310  0.00  0.00    +0.207 C 
ATOM     34  H   UNL     1      33.492 -14.453 -25.756  0.00  0.00    +0.145 HD
ATOM     35  H   UNL     1      34.325 -15.788 -25.102  0.00  0.00    +0.145 HD
ATOM     36  H   UNL     1      32.169 -11.160 -21.228  0.00  0.00    +0.156 HD
ATOM     37  H   UNL     1      31.910 -11.057 -22.910  0.00  0.00    +0.156 HD
ENDBRANCH  21  28
ENDBRANCH   1  21
TORSDOF 6
ENDMDL
MODEL 6
REMARK VINA RESULT:     -11.1      5.478      9.236
REMARK  Name = 25243853
REMARK  6 active torsions:
REMARK  status: ('A' for Active; 'I' for Inactive)
REMARK    1  A    between atoms: N_1  and  C_6
REMARK    2  A    between atoms: N_1  and  C_21
REMARK    3  A    between atoms: C_3  and  C_16
REMARK    4  A    between atoms: C_11  and  C_18
REMARK    5  A    between atoms: C_18  and  O_19
REMARK    6  A    between atoms: C_21  and  C_28
REMARK                            x       y       z     vdW  Elec       q    Type
REMARK                         _______ _______ _______ _____ _____    ______ ____
ROOT
ATOM      1  N   UNL     1      33.312 -11.228 -24.316  0.00  0.00    -0.327 N 
ATOM      2  H   UNL     1      32.589 -10.852 -24.867  0.00  0.00    +0.147 HD
ENDROOT
BRANCH   1   6
ATOM      3  C   UNL     1      33.839 -15.395 -24.271  0.00  0.00    +0.054 C 
ATOM      4  C   UNL     1      33.605 -14.735 -25.478  0.00  0.00    +0.006 C 
ATOM      5  C   UNL     1      33.899 -14.671 -23.081  0.00  0.00    +0.006 C 
ATOM      6  C   UNL     1      33.490 -12.628 -24.301  0.00  0.00    +0.045 C 
ATOM      7  C   UNL     1      33.430 -13.351 -25.492  0.00  0.00    +0.014 C 
ATOM      8  C   UNL     1      33.724 -13.288 -23.095  0.00  0.00    +0.014 C 
BRANCH   3  16
ATOM      9  O   UNL     1      33.397 -17.487 -25.102  0.00  0.00    -0.270 OA
ATOM     10  N   UNL     1      34.883 -17.396 -23.298  0.00  0.00    -0.276 N 
ATOM     11  C   UNL     1      35.382 -18.639 -20.721  0.00  0.00    +0.102 C 
ATOM     12  C   UNL     1      34.684 -19.385 -21.863  0.00  0.00    +0.033 C 
ATOM     13  C   UNL     1      35.280 -17.119 -20.879  0.00  0.00    +0.033 C 
ATOM     14  C   UNL     1      35.072 -18.843 -23.237  0.00  0.00    +0.094 C 
ATOM     15  C   UNL     1      35.629 -16.637 -22.288  0.00  0.00    +0.094 C 
ATOM     16  C   UNL     1      34.023 -16.852 -24.255  0.00  0.00    +0.249 C 
BRANCH  11  18
ATOM     17  O   UNL     1      37.673 -18.823 -21.444  0.00  0.00    -0.250 OA
ATOM     18  C   UNL     1      36.814 -19.077 -20.611  0.00  0.00    +0.317 C 
BRANCH  18  19
ATOM     19  O   UNL     1      36.986 -19.786 -19.459  0.00  0.00    -0.444 OA
ATOM     20  C   UNL     1      36.396 -21.090 -19.447  0.00  0.00    +0.256 C 
ENDBRANCH  18  19
ENDBRANCH  11  18
ENDBRANCH   3  16
ENDBRANCH   1   6
BRANCH   1  21
ATOM     21  C   UNL     1      34.138 -10.333 -23.567  0.00  0.00    +0.145 C 
BRANCH  21  28
ATOM     22  N   UNL     1      33.648  -7.945 -23.498  0.00  0.00    -0.392 NA
ATOM     23  N   UNL     1      31.574  -8.331 -21.707  0.00  0.00    -0.200 NA
ATOM     24  N   UNL     1      31.154  -6.054 -21.680  0.00  0.00    -0.271 NA
ATOM     25  N   UNL     1      32.470  -4.542 -22.997  0.00  0.00    -0.310 NA
ATOM     26  N   UNL     1      34.222  -5.384 -24.339  0.00  0.00    -0.329 N 
ATOM     27  N   UNL     1      30.726  -3.746 -21.651  0.00  0.00    -0.283 N 
ATOM     28  C   UNL     1      33.330  -9.172 -23.057  0.00  0.00    +0.133 C 
ATOM     29  C   UNL     1      32.304  -9.362 -22.172  0.00  0.00    +0.193 C 
ATOM     30  C   UNL     1      32.916  -6.915 -23.032  0.00  0.00    +0.248 C 
ATOM     31  C   UNL     1      31.866  -7.095 -22.128  0.00  0.00    +0.131 C 
ATOM     32  C   UNL     1      33.162  -5.613 -23.424  0.00  0.00    +0.231 C 
ATOM     33  C   UNL     1      31.488  -4.831 -22.135  0.00  0.00    +0.207 C 
ATOM     34  H   UNL     1      34.424  -4.468 -24.638  0.00  0.00    +0.145 HD
ATOM     35  H   UNL     1      34.755  -6.140 -24.675  0.00  0.00    +0.145 HD
ATOM     36  H   UNL     1      29.993  -3.905 -21.014  0.00  0.00    +0.156 HD
ATOM     37  H   UNL     1      30.928  -2.830 -21.950  0.00  0.00    +0.156 HD
ENDBRANCH  21  28
ENDBRANCH   1  21
TORSDOF 6
ENDMDL
MODEL 7
REMARK VINA RESULT:     -10.6      1.565      2.547
REMARK  Name = 25243853
REMARK  6 active torsions:
REMARK  status: ('A' for Active; 'I' for Inactive)
REMARK    1  A    between atoms: N_1  and  C_6
REMARK    2  A    between atoms: N_1  and  C_21
REMARK    3  A    between atoms: C_3  and  C_16
REMARK    4  A    between atoms: C_11  and  C_18
REMARK    5  A    between atoms: C_18  and  O_19
REMARK    6  A    between atoms: C_21  and  C_28
REMARK                            x       y       z     vdW  Elec       q    Type
REMARK                         _______ _______ _______ _____ _____    ______ ____
ROOT
ATOM      1  N   UNL     1      34.546 -19.751 -21.539  0.00  0.00    -0.327 N 
ATOM      2  H   UNL     1      33.574 -19.613 -21.592  0.00  0.00    +0.147 HD
ENDROOT
BRANCH   1   6
ATOM      3  C   UNL     1      36.129 -21.562 -18.094  0.00  0.00    +0.054 C 
ATOM      4  C   UNL     1      36.920 -20.702 -18.856  0.00  0.00    +0.006 C 
ATOM      5  C   UNL     1      34.812 -21.820 -18.477  0.00  0.00    +0.006 C 
ATOM      6  C   UNL     1      35.078 -20.359 -20.381  0.00  0.00    +0.045 C 
ATOM      7  C   UNL     1      36.394 -20.100 -19.999  0.00  0.00    +0.014 C 
ATOM      8  C   UNL     1      34.287 -21.219 -19.620  0.00  0.00    +0.014 C 
BRANCH   3  16
ATOM      9  O   UNL     1      37.908 -22.238 -16.815  0.00  0.00    -0.270 OA
ATOM     10  N   UNL     1      35.788 -22.690 -15.938  0.00  0.00    -0.276 N 
ATOM     11  C   UNL     1      34.249 -24.851 -14.754  0.00  0.00    +0.102 C 
ATOM     12  C   UNL     1      35.775 -24.778 -14.635  0.00  0.00    +0.033 C 
ATOM     13  C   UNL     1      33.726 -24.044 -15.946  0.00  0.00    +0.033 C 
ATOM     14  C   UNL     1      36.301 -23.348 -14.739  0.00  0.00    +0.094 C 
ATOM     15  C   UNL     1      34.324 -22.639 -16.030  0.00  0.00    +0.094 C 
ATOM     16  C   UNL     1      36.681 -22.196 -16.891  0.00  0.00    +0.249 C 
BRANCH  11  18
ATOM     17  O   UNL     1      34.177 -24.384 -12.391  0.00  0.00    -0.250 OA
ATOM     18  C   UNL     1      33.606 -24.405 -13.473  0.00  0.00    +0.317 C 
BRANCH  18  19
ATOM     19  O   UNL     1      32.315 -24.038 -13.715  0.00  0.00    -0.444 OA
ATOM     20  C   UNL     1      31.318 -24.859 -13.099  0.00  0.00    +0.256 C 
ENDBRANCH  18  19
ENDBRANCH  11  18
ENDBRANCH   3  16
ENDBRANCH   1   6
BRANCH   1  21
ATOM     21  C   UNL     1      35.359 -19.330 -22.637  0.00  0.00    +0.145 C 
BRANCH  21  28
ATOM     22  N   UNL     1      34.871 -16.973 -22.245  0.00  0.00    -0.392 NA
ATOM     23  N   UNL     1      34.182 -16.582 -24.897  0.00  0.00    -0.200 NA
ATOM     24  N   UNL     1      33.734 -14.352 -24.467  0.00  0.00    -0.271 NA
ATOM     25  N   UNL     1      34.004 -13.442 -22.265  0.00  0.00    -0.310 NA
ATOM     26  N   UNL     1      34.736 -14.839 -20.506  0.00  0.00    -0.329 N 
ATOM     27  N   UNL     1      33.278 -12.090 -24.034  0.00  0.00    -0.283 N 
ATOM     28  C   UNL     1      34.919 -17.980 -23.131  0.00  0.00    +0.133 C 
ATOM     29  C   UNL     1      34.579 -17.786 -24.442  0.00  0.00    +0.193 C 
ATOM     30  C   UNL     1      34.475 -15.769 -22.702  0.00  0.00    +0.248 C 
ATOM     31  C   UNL     1      34.124 -15.558 -24.038  0.00  0.00    +0.131 C 
ATOM     32  C   UNL     1      34.392 -14.669 -21.872  0.00  0.00    +0.231 C 
ATOM     33  C   UNL     1      33.693 -13.355 -23.563  0.00  0.00    +0.207 C 
ATOM     34  H   UNL     1      34.688 -14.075 -19.887  0.00  0.00    +0.145 HD
ATOM     35  H   UNL     1      35.023 -15.721 -20.176  0.00  0.00    +0.145 HD
ATOM     36  H   UNL     1      33.037 -11.973 -24.981  0.00  0.00    +0.156 HD
ATOM     37  H   UNL     1      33.229 -11.326 -23.415  0.00  0.00    +0.156 HD
ENDBRANCH  21  28
ENDBRANCH   1  21
TORSDOF 6
ENDMDL
MODEL 8
REMARK VINA RESULT:     -10.5      3.286      6.304
REMARK  Name = 25243853
REMARK  6 active torsions:
REMARK  status: ('A' for Active; 'I' for Inactive)
REMARK    1  A    between atoms: N_1  and  C_6
REMARK    2  A    between atoms: N_1  and  C_21
REMARK    3  A    between atoms: C_3  and  C_16
REMARK    4  A    between atoms: C_11  and  C_18
REMARK    5  A    between atoms: C_18  and  O_19
REMARK    6  A    between atoms: C_21  and  C_28
REMARK                            x       y       z     vdW  Elec       q    Type
REMARK                         _______ _______ _______ _____ _____    ______ ____
ROOT
ATOM      1  N   UNL     1      33.271 -14.863 -24.314  0.00  0.00    -0.327 N 
ATOM      2  H   UNL     1      32.291 -14.946 -24.280  0.00  0.00    +0.147 HD
ENDROOT
BRANCH   1   6
ATOM      3  C   UNL     1      35.594 -17.631 -22.173  0.00  0.00    +0.054 C 
ATOM      4  C   UNL     1      35.358 -16.363 -21.644  0.00  0.00    +0.006 C 
ATOM      5  C   UNL     1      35.059 -17.980 -23.413  0.00  0.00    +0.006 C 
ATOM      6  C   UNL     1      34.051 -15.793 -23.594  0.00  0.00    +0.045 C 
ATOM      7  C   UNL     1      34.586 -15.443 -22.355  0.00  0.00    +0.014 C 
ATOM      8  C   UNL     1      34.288 -17.061 -24.124  0.00  0.00    +0.014 C 
BRANCH   3  16
ATOM      9  O   UNL     1      37.612 -18.597 -21.668  0.00  0.00    -0.270 OA
ATOM     10  N   UNL     1      35.760 -19.432 -20.509  0.00  0.00    -0.276 N 
ATOM     11  C   UNL     1      34.494 -21.945 -19.788  0.00  0.00    +0.102 C 
ATOM     12  C   UNL     1      36.004 -21.832 -20.024  0.00  0.00    +0.033 C 
ATOM     13  C   UNL     1      33.718 -20.816 -20.474  0.00  0.00    +0.033 C 
ATOM     14  C   UNL     1      36.532 -20.423 -19.764  0.00  0.00    +0.094 C 
ATOM     15  C   UNL     1      34.321 -19.433 -20.222  0.00  0.00    +0.094 C 
ATOM     16  C   UNL     1      36.406 -18.599 -21.426  0.00  0.00    +0.249 C 
BRANCH  11  18
ATOM     17  O   UNL     1      35.059 -22.075 -17.449  0.00  0.00    -0.250 OA
ATOM     18  C   UNL     1      34.200 -21.988 -18.316  0.00  0.00    +0.317 C 
BRANCH  18  19
ATOM     19  O   UNL     1      32.853 -21.917 -18.118  0.00  0.00    -0.444 OA
ATOM     20  C   UNL     1      32.345 -22.727 -17.053  0.00  0.00    +0.256 C 
ENDBRANCH  18  19
ENDBRANCH  11  18
ENDBRANCH   3  16
ENDBRANCH   1   6
BRANCH   1  21
ATOM     21  C   UNL     1      33.843 -13.807 -25.091  0.00  0.00    +0.145 C 
BRANCH  21  28
ATOM     22  N   UNL     1      32.844 -12.454 -23.325  0.00  0.00    -0.392 NA
ATOM     23  N   UNL     1      33.951 -10.134 -24.352  0.00  0.00    -0.200 NA
ATOM     24  N   UNL     1      32.979  -8.899 -22.653  0.00  0.00    -0.271 NA
ATOM     25  N   UNL     1      31.631  -9.958 -20.974  0.00  0.00    -0.310 NA
ATOM     26  N   UNL     1      31.288 -12.294 -21.055  0.00  0.00    -0.329 N 
ATOM     27  N   UNL     1      31.993  -7.645 -20.931  0.00  0.00    -0.283 N 
ATOM     28  C   UNL     1      33.608 -12.478 -24.428  0.00  0.00    +0.133 C 
ATOM     29  C   UNL     1      34.155 -11.331 -24.935  0.00  0.00    +0.193 C 
ATOM     30  C   UNL     1      32.641 -11.255 -22.743  0.00  0.00    +0.248 C 
ATOM     31  C   UNL     1      33.194 -10.077 -23.250  0.00  0.00    +0.131 C 
ATOM     32  C   UNL     1      31.872 -11.123 -21.603  0.00  0.00    +0.231 C 
ATOM     33  C   UNL     1      32.210  -8.896 -21.547  0.00  0.00    +0.207 C 
ATOM     34  H   UNL     1      30.734 -12.234 -20.244  0.00  0.00    +0.145 HD
ATOM     35  H   UNL     1      31.437 -13.166 -21.485  0.00  0.00    +0.145 HD
ATOM     36  H   UNL     1      32.396  -6.832 -21.313  0.00  0.00    +0.156 HD
ATOM     37  H   UNL     1      31.438  -7.584 -20.119  0.00  0.00    +0.156 HD
ENDBRANCH  21  28
ENDBRANCH   1  21
TORSDOF 6
ENDMDL
MODEL 9
REMARK VINA RESULT:     -10.4      8.520     15.085
REMARK  Name = 25243853
REMARK  6 active torsions:
REMARK  status: ('A' for Active; 'I' for Inactive)
REMARK    1  A    between atoms: N_1  and  C_6
REMARK    2  A    between atoms: N_1  and  C_21
REMARK    3  A    between atoms: C_3  and  C_16
REMARK    4  A    between atoms: C_11  and  C_18
REMARK    5  A    between atoms: C_18  and  O_19
REMARK    6  A    between atoms: C_21  and  C_28
REMARK                            x       y       z     vdW  Elec       q    Type
REMARK                         _______ _______ _______ _____ _____    ______ ____
ROOT
ATOM      1  N   UNL     1      34.202 -11.901 -24.209  0.00  0.00    -0.327 N 
ATOM      2  H   UNL     1      35.068 -11.977 -24.671  0.00  0.00    +0.147 HD
ENDROOT
BRANCH   1   6
ATOM      3  C   UNL     1      33.170  -8.216 -22.477  0.00  0.00    +0.054 C 
ATOM      4  C   UNL     1      32.330  -9.319 -22.322  0.00  0.00    +0.006 C 
ATOM      5  C   UNL     1      34.353  -8.337 -23.207  0.00  0.00    +0.006 C 
ATOM      6  C   UNL     1      33.855 -10.663 -23.627  0.00  0.00    +0.045 C 
ATOM      7  C   UNL     1      32.674 -10.543 -22.896  0.00  0.00    +0.014 C 
ATOM      8  C   UNL     1      34.695  -9.560 -23.782  0.00  0.00    +0.014 C 
BRANCH   3  16
ATOM      9  O   UNL     1      32.576  -6.942 -20.665  0.00  0.00    -0.270 OA
ATOM     10  N   UNL     1      32.766  -5.802 -22.699  0.00  0.00    -0.276 N 
ATOM     11  C   UNL     1      31.325  -3.912 -24.369  0.00  0.00    +0.102 C 
ATOM     12  C   UNL     1      31.159  -3.943 -22.846  0.00  0.00    +0.033 C 
ATOM     13  C   UNL     1      31.847  -5.243 -24.919  0.00  0.00    +0.033 C 
ATOM     14  C   UNL     1      32.388  -4.508 -22.137  0.00  0.00    +0.094 C 
ATOM     15  C   UNL     1      33.045  -5.787 -24.139  0.00  0.00    +0.094 C 
ATOM     16  C   UNL     1      32.810  -6.927 -21.872  0.00  0.00    +0.249 C 
BRANCH  11  18
ATOM     17  O   UNL     1      32.422  -1.786 -24.077  0.00  0.00    -0.250 OA
ATOM     18  C   UNL     1      32.217  -2.772 -24.771  0.00  0.00    +0.317 C 
BRANCH  18  19
ATOM     19  O   UNL     1      32.741  -3.018 -26.006  0.00  0.00    -0.444 OA
ATOM     20  C   UNL     1      33.943  -2.306 -26.315  0.00  0.00    +0.256 C 
ENDBRANCH  18  19
ENDBRANCH  11  18
ENDBRANCH   3  16
ENDBRANCH   1   6
BRANCH   1  21
ATOM     21  C   UNL     1      33.349 -13.048 -24.159  0.00  0.00    +0.145 C 
BRANCH  21  28
ATOM     22  N   UNL     1      34.152 -15.297 -23.667  0.00  0.00    -0.392 NA
ATOM     23  N   UNL     1      34.600 -14.653 -21.012  0.00  0.00    -0.200 NA
ATOM     24  N   UNL     1      35.353 -16.804 -20.603  0.00  0.00    -0.271 NA
ATOM     25  N   UNL     1      35.424 -18.441 -22.354  0.00  0.00    -0.310 NA
ATOM     26  N   UNL     1      34.716 -17.854 -24.530  0.00  0.00    -0.329 N 
ATOM     27  N   UNL     1      36.116 -18.984 -20.184  0.00  0.00    -0.283 N 
ATOM     28  C   UNL     1      33.893 -14.067 -23.197  0.00  0.00    +0.133 C 
ATOM     29  C   UNL     1      34.115 -13.750 -21.885  0.00  0.00    +0.193 C 
ATOM     30  C   UNL     1      34.638 -16.200 -22.793  0.00  0.00    +0.248 C 
ATOM     31  C   UNL     1      34.869 -15.889 -21.451  0.00  0.00    +0.131 C 
ATOM     32  C   UNL     1      34.938 -17.493 -23.176  0.00  0.00    +0.231 C 
ATOM     33  C   UNL     1      35.607 -18.032 -21.093  0.00  0.00    +0.207 C 
ATOM     34  H   UNL     1      34.918 -18.767 -24.836  0.00  0.00    +0.145 HD
ATOM     35  H   UNL     1      34.358 -17.191 -25.164  0.00  0.00    +0.145 HD
ATOM     36  H   UNL     1      36.268 -18.735 -19.244  0.00  0.00    +0.156 HD
ATOM     37  H   UNL     1      36.319 -19.898 -20.489  0.00  0.00    +0.156 HD
ENDBRANCH  21  28
ENDBRANCH   1  21
TORSDOF 6
ENDMDL
