MODEL 1
REMARK VINA RESULT:     -12.4      0.000      0.000
REMARK  Name = 25174099
REMARK  5 active torsions:
REMARK  status: ('A' for Active; 'I' for Inactive)
REMARK    1  A    between atoms: C_5  and  C_33
REMARK    2  A    between atoms: C_14  and  C_18
REMARK    3  A    between atoms: N_17  and  C_20
REMARK    4  A    between atoms: C_20  and  C_24
REMARK    5  A    between atoms: C_33  and  C_36
REMARK                            x       y       z     vdW  Elec       q    Type
REMARK                         _______ _______ _______ _____ _____    ______ ____
ROOT
ATOM      1  S   UNL     1      34.437 -24.088 -14.174  0.00  0.00    -0.064 S 
ATOM      2  O   UNL     1      31.620 -22.569 -17.939  0.00  0.00    -0.274 OA
ATOM      3  N   UNL     1      35.408 -22.772 -16.293  0.00  0.00    -0.379 NA
ATOM      4  N   UNL     1      33.885 -22.113 -18.015  0.00  0.00    -0.255 N 
ATOM      5  C   UNL     1      30.592 -24.035 -15.364  0.00  0.00    +0.028 C 
ATOM      6  C   UNL     1      30.060 -25.168 -14.451  0.00  0.00    +0.005 C 
ATOM      7  C   UNL     1      32.089 -23.896 -15.225  0.00  0.00    -0.027 C 
ATOM      8  C   UNL     1      30.624 -25.084 -13.026  0.00  0.00    +0.006 C 
ATOM      9  C   UNL     1      32.155 -25.191 -13.011  0.00  0.00    +0.032 C 
ATOM     10  C   UNL     1      32.765 -24.401 -14.127  0.00  0.00    +0.002 C 
ATOM     11  C   UNL     1      32.998 -23.266 -16.138  0.00  0.00    +0.154 C 
ATOM     12  C   UNL     1      34.308 -23.291 -15.676  0.00  0.00    +0.152 C 
ATOM     13  C   UNL     1      32.734 -22.632 -17.426  0.00  0.00    +0.239 C 
ATOM     14  C   UNL     1      35.139 -22.207 -17.430  0.00  0.00    +0.240 C 
ATOM     15  H   UNL     1      33.806 -21.659 -18.885  0.00  0.00    +0.157 HD
ENDROOT
BRANCH  14  18
ATOM     16  O   UNL     1      37.389 -21.912 -17.917  0.00  0.00    -0.266 OA
ATOM     17  N   UNL     1      35.809 -20.735 -19.190  0.00  0.00    -0.294 N 
ATOM     18  C   UNL     1      36.242 -21.600 -18.209  0.00  0.00    +0.290 C 
ATOM     19  H   UNL     1      34.840 -20.594 -19.295  0.00  0.00    +0.150 HD
BRANCH  17  20
ATOM     20  C   UNL     1      36.708 -20.029 -20.074  0.00  0.00    +0.117 C 
BRANCH  20  24
ATOM     21  O   UNL     1      33.881 -17.443 -24.235  0.00  0.00    -0.464 OA
ATOM     22  O   UNL     1      34.301 -13.995 -23.236  0.00  0.00    -0.271 OA
ATOM     23  N   UNL     1      35.082 -15.893 -22.196  0.00  0.00    -0.279 N 
ATOM     24  C   UNL     1      35.972 -19.326 -21.178  0.00  0.00    -0.001 C 
ATOM     25  C   UNL     1      35.204 -17.285 -22.211  0.00  0.00    +0.085 C 
ATOM     26  C   UNL     1      35.883 -17.934 -21.178  0.00  0.00    +0.015 C 
ATOM     27  C   UNL     1      34.608 -18.023 -23.233  0.00  0.00    +0.153 C 
ATOM     28  C   UNL     1      35.374 -20.066 -22.197  0.00  0.00    +0.001 C 
ATOM     29  C   UNL     1      34.685 -19.416 -23.222  0.00  0.00    +0.038 C 
ATOM     30  C   UNL     1      34.171 -16.074 -24.442  0.00  0.00    +0.290 C 
ATOM     31  C   UNL     1      34.491 -15.210 -23.234  0.00  0.00    +0.271 C 
ATOM     32  H   UNL     1      35.428 -15.388 -21.425  0.00  0.00    +0.155 HD
ENDBRANCH  20  24
ENDBRANCH  17  20
ENDBRANCH  14  18
BRANCH   5  33
ATOM     33  C   UNL     1      29.882 -22.712 -15.055  0.00  0.00    +0.089 C 
BRANCH  33  36
ATOM     34  O   UNL     1      27.527 -22.146 -15.190  0.00  0.00    -0.275 OA
ATOM     35  N   UNL     1      28.541 -23.167 -16.984  0.00  0.00    -0.329 N 
ATOM     36  C   UNL     1      28.526 -22.631 -15.714  0.00  0.00    +0.220 C 
ATOM     37  H   UNL     1      27.719 -23.176 -17.524  0.00  0.00    +0.145 HD
ATOM     38  H   UNL     1      29.375 -23.541 -17.350  0.00  0.00    +0.145 HD
ENDBRANCH  33  36
ENDBRANCH   5  33
TORSDOF 5
ENDMDL
MODEL 2
REMARK VINA RESULT:     -12.2      4.779     11.949
REMARK  Name = 25174099
REMARK  5 active torsions:
REMARK  status: ('A' for Active; 'I' for Inactive)
REMARK    1  A    between atoms: C_5  and  C_33
REMARK    2  A    between atoms: C_14  and  C_18
REMARK    3  A    between atoms: N_17  and  C_20
REMARK    4  A    between atoms: C_20  and  C_24
REMARK    5  A    between atoms: C_33  and  C_36
REMARK                            x       y       z     vdW  Elec       q    Type
REMARK                         _______ _______ _______ _____ _____    ______ ____
ROOT
ATOM      1  S   UNL     1      32.280 -12.668 -20.561  0.00  0.00    -0.064 S 
ATOM      2  O   UNL     1      33.590 -10.982 -25.017  0.00  0.00    -0.274 OA
ATOM      3  N   UNL     1      33.225 -14.246 -22.505  0.00  0.00    -0.379 NA
ATOM      4  N   UNL     1      33.812 -13.244 -24.596  0.00  0.00    -0.255 N 
ATOM      5  C   UNL     1      32.558  -9.226 -22.631  0.00  0.00    +0.028 C 
ATOM      6  C   UNL     1      31.603  -8.368 -21.765  0.00  0.00    +0.005 C 
ATOM      7  C   UNL     1      32.567 -10.659 -22.154  0.00  0.00    -0.027 C 
ATOM      8  C   UNL     1      31.807  -8.602 -20.262  0.00  0.00    +0.006 C 
ATOM      9  C   UNL     1      31.554 -10.064 -19.873  0.00  0.00    +0.032 C 
ATOM     10  C   UNL     1      32.138 -11.003 -20.883  0.00  0.00    +0.002 C 
ATOM     11  C   UNL     1      32.989 -11.821 -22.881  0.00  0.00    +0.154 C 
ATOM     12  C   UNL     1      32.895 -12.980 -22.121  0.00  0.00    +0.152 C 
ATOM     13  C   UNL     1      33.483 -11.934 -24.251  0.00  0.00    +0.239 C 
ATOM     14  C   UNL     1      33.669 -14.311 -23.723  0.00  0.00    +0.240 C 
ATOM     15  H   UNL     1      34.161 -13.419 -25.500  0.00  0.00    +0.157 HD
ENDROOT
BRANCH  14  18
ATOM     16  O   UNL     1      33.872 -15.834 -25.463  0.00  0.00    -0.266 OA
ATOM     17  N   UNL     1      34.622 -16.469 -23.333  0.00  0.00    -0.294 N 
ATOM     18  C   UNL     1      34.067 -15.628 -24.272  0.00  0.00    +0.290 C 
ATOM     19  H   UNL     1      34.708 -16.145 -22.407  0.00  0.00    +0.150 HD
BRANCH  17  20
ATOM     20  C   UNL     1      35.084 -17.803 -23.642  0.00  0.00    +0.117 C 
BRANCH  20  24
ATOM     21  O   UNL     1      36.043 -20.801 -18.942  0.00  0.00    -0.464 OA
ATOM     22  O   UNL     1      32.769 -22.243 -18.433  0.00  0.00    -0.271 OA
ATOM     23  N   UNL     1      33.466 -20.827 -20.107  0.00  0.00    -0.279 N 
ATOM     24  C   UNL     1      35.325 -18.614 -22.402  0.00  0.00    -0.001 C 
ATOM     25  C   UNL     1      34.515 -20.112 -20.692  0.00  0.00    +0.085 C 
ATOM     26  C   UNL     1      34.284 -19.354 -21.841  0.00  0.00    +0.015 C 
ATOM     27  C   UNL     1      35.777 -20.124 -20.099  0.00  0.00    +0.153 C 
ATOM     28  C   UNL     1      36.588 -18.622 -21.809  0.00  0.00    +0.001 C 
ATOM     29  C   UNL     1      36.813 -19.371 -20.653  0.00  0.00    +0.038 C 
ATOM     30  C   UNL     1      35.132 -21.845 -18.660  0.00  0.00    +0.290 C 
ATOM     31  C   UNL     1      33.669 -21.649 -19.023  0.00  0.00    +0.271 C 
ATOM     32  H   UNL     1      32.559 -20.740 -20.479  0.00  0.00    +0.155 HD
ENDBRANCH  20  24
ENDBRANCH  17  20
ENDBRANCH  14  18
BRANCH   5  33
ATOM     33  C   UNL     1      33.971  -8.633 -22.630  0.00  0.00    +0.089 C 
BRANCH  33  36
ATOM     34  O   UNL     1      33.792  -6.662 -24.032  0.00  0.00    -0.275 OA
ATOM     35  N   UNL     1      35.033  -8.453 -24.766  0.00  0.00    -0.329 N 
ATOM     36  C   UNL     1      34.233  -7.794 -23.857  0.00  0.00    +0.220 C 
ATOM     37  H   UNL     1      35.280  -8.015 -25.612  0.00  0.00    +0.145 HD
ATOM     38  H   UNL     1      35.357  -9.361 -24.569  0.00  0.00    +0.145 HD
ENDBRANCH  33  36
ENDBRANCH   5  33
TORSDOF 5
ENDMDL
MODEL 3
REMARK VINA RESULT:     -11.6      2.377      3.552
REMARK  Name = 25174099
REMARK  5 active torsions:
REMARK  status: ('A' for Active; 'I' for Inactive)
REMARK    1  A    between atoms: C_5  and  C_33
REMARK    2  A    between atoms: C_14  and  C_18
REMARK    3  A    between atoms: N_17  and  C_20
REMARK    4  A    between atoms: C_20  and  C_24
REMARK    5  A    between atoms: C_33  and  C_36
REMARK                            x       y       z     vdW  Elec       q    Type
REMARK                         _______ _______ _______ _____ _____    ______ ____
ROOT
ATOM      1  S   UNL     1      37.195 -22.018 -16.796  0.00  0.00    -0.064 S 
ATOM      2  O   UNL     1      32.415 -22.942 -17.647  0.00  0.00    -0.274 OA
ATOM      3  N   UNL     1      35.856 -21.012 -18.885  0.00  0.00    -0.379 NA
ATOM      4  N   UNL     1      33.542 -21.569 -19.126  0.00  0.00    -0.255 N 
ATOM      5  C   UNL     1      34.068 -23.984 -15.193  0.00  0.00    +0.028 C 
ATOM      6  C   UNL     1      34.859 -24.953 -14.280  0.00  0.00    +0.005 C 
ATOM      7  C   UNL     1      35.010 -23.166 -16.045  0.00  0.00    -0.027 C 
ATOM      8  C   UNL     1      36.026 -24.260 -13.563  0.00  0.00    +0.006 C 
ATOM      9  C   UNL     1      37.037 -23.671 -14.555  0.00  0.00    +0.032 C 
ATOM     10  C   UNL     1      36.344 -23.014 -15.710  0.00  0.00    +0.002 C 
ATOM     11  C   UNL     1      34.705 -22.462 -17.257  0.00  0.00    +0.154 C 
ATOM     12  C   UNL     1      35.807 -21.783 -17.761  0.00  0.00    +0.152 C 
ATOM     13  C   UNL     1      33.445 -22.370 -17.989  0.00  0.00    +0.239 C 
ATOM     14  C   UNL     1      34.720 -20.943 -19.507  0.00  0.00    +0.240 C 
ATOM     15  H   UNL     1      32.740 -21.441 -19.682  0.00  0.00    +0.157 HD
ENDROOT
BRANCH  14  18
ATOM     16  O   UNL     1      33.574 -20.160 -21.368  0.00  0.00    -0.266 OA
ATOM     17  N   UNL     1      35.783 -19.445 -21.037  0.00  0.00    -0.294 N 
ATOM     18  C   UNL     1      34.628 -20.136 -20.746  0.00  0.00    +0.290 C 
ATOM     19  H   UNL     1      36.549 -19.535 -20.426  0.00  0.00    +0.150 HD
BRANCH  17  20
ATOM     20  C   UNL     1      35.923 -18.592 -22.196  0.00  0.00    +0.117 C 
BRANCH  20  24
ATOM     21  O   UNL     1      33.760 -13.452 -21.251  0.00  0.00    -0.464 OA
ATOM     22  O   UNL     1      33.371 -12.295 -24.652  0.00  0.00    -0.271 OA
ATOM     23  N   UNL     1      34.193 -14.311 -23.910  0.00  0.00    -0.279 N 
ATOM     24  C   UNL     1      35.336 -17.230 -21.963  0.00  0.00    -0.001 C 
ATOM     25  C   UNL     1      34.473 -15.148 -22.827  0.00  0.00    +0.085 C 
ATOM     26  C   UNL     1      35.025 -16.411 -23.049  0.00  0.00    +0.015 C 
ATOM     27  C   UNL     1      34.242 -14.700 -21.527  0.00  0.00    +0.153 C 
ATOM     28  C   UNL     1      35.109 -16.782 -20.661  0.00  0.00    +0.001 C 
ATOM     29  C   UNL     1      34.569 -15.515 -20.442  0.00  0.00    +0.038 C 
ATOM     30  C   UNL     1      33.072 -12.846 -22.328  0.00  0.00    +0.290 C 
ATOM     31  C   UNL     1      33.576 -13.093 -23.740  0.00  0.00    +0.271 C 
ATOM     32  H   UNL     1      34.443 -14.599 -24.818  0.00  0.00    +0.155 HD
ENDBRANCH  20  24
ENDBRANCH  17  20
ENDBRANCH  14  18
BRANCH   5  33
ATOM     33  C   UNL     1      33.150 -23.082 -14.361  0.00  0.00    +0.089 C 
BRANCH  33  36
ATOM     34  O   UNL     1      31.628 -24.149 -12.801  0.00  0.00    -0.275 OA
ATOM     35  N   UNL     1      31.038 -23.993 -15.019  0.00  0.00    -0.329 N 
ATOM     36  C   UNL     1      31.883 -23.792 -13.949  0.00  0.00    +0.220 C 
ATOM     37  H   UNL     1      30.174 -24.447 -14.885  0.00  0.00    +0.145 HD
ATOM     38  H   UNL     1      31.298 -23.684 -15.916  0.00  0.00    +0.145 HD
ENDBRANCH  33  36
ENDBRANCH   5  33
TORSDOF 5
ENDMDL
MODEL 4
REMARK VINA RESULT:     -11.5      3.411     10.380
REMARK  Name = 25174099
REMARK  5 active torsions:
REMARK  status: ('A' for Active; 'I' for Inactive)
REMARK    1  A    between atoms: C_5  and  C_33
REMARK    2  A    between atoms: C_14  and  C_18
REMARK    3  A    between atoms: N_17  and  C_20
REMARK    4  A    between atoms: C_20  and  C_24
REMARK    5  A    between atoms: C_33  and  C_36
REMARK                            x       y       z     vdW  Elec       q    Type
REMARK                         _______ _______ _______ _____ _____    ______ ____
ROOT
ATOM      1  S   UNL     1      34.611 -16.433 -24.536  0.00  0.00    -0.064 S 
ATOM      2  O   UNL     1      34.693 -14.868 -19.850  0.00  0.00    -0.274 OA
ATOM      3  N   UNL     1      35.519 -17.925 -22.508  0.00  0.00    -0.379 NA
ATOM      4  N   UNL     1      35.474 -16.995 -20.305  0.00  0.00    -0.255 N 
ATOM      5  C   UNL     1      33.573 -13.254 -22.294  0.00  0.00    +0.028 C 
ATOM      6  C   UNL     1      33.493 -12.199 -23.426  0.00  0.00    +0.005 C 
ATOM      7  C   UNL     1      34.075 -14.574 -22.830  0.00  0.00    -0.027 C 
ATOM      8  C   UNL     1      32.812 -12.747 -24.689  0.00  0.00    +0.006 C 
ATOM      9  C   UNL     1      33.564 -13.952 -25.266  0.00  0.00    +0.032 C 
ATOM     10  C   UNL     1      34.025 -14.875 -24.180  0.00  0.00    +0.002 C 
ATOM     11  C   UNL     1      34.649 -15.658 -22.086  0.00  0.00    +0.154 C 
ATOM     12  C   UNL     1      34.972 -16.738 -22.897  0.00  0.00    +0.152 C 
ATOM     13  C   UNL     1      34.920 -15.765 -20.655  0.00  0.00    +0.239 C 
ATOM     14  C   UNL     1      35.739 -17.993 -21.231  0.00  0.00    +0.240 C 
ATOM     15  H   UNL     1      35.685 -17.164 -19.358  0.00  0.00    +0.157 HD
ENDROOT
BRANCH  14  18
ATOM     16  O   UNL     1      37.551 -19.320 -20.646  0.00  0.00    -0.266 OA
ATOM     17  N   UNL     1      35.392 -20.138 -20.234  0.00  0.00    -0.294 N 
ATOM     18  C   UNL     1      36.331 -19.229 -20.669  0.00  0.00    +0.290 C 
ATOM     19  H   UNL     1      34.440 -19.907 -20.325  0.00  0.00    +0.150 HD
BRANCH  17  20
ATOM     20  C   UNL     1      35.739 -21.412 -19.648  0.00  0.00    +0.117 C 
BRANCH  20  24
ATOM     21  O   UNL     1      31.753 -23.223 -16.066  0.00  0.00    -0.464 OA
ATOM     22  O   UNL     1      33.831 -24.651 -13.478  0.00  0.00    -0.271 OA
ATOM     23  N   UNL     1      34.480 -23.630 -15.434  0.00  0.00    -0.279 N 
ATOM     24  C   UNL     1      34.694 -21.888 -18.680  0.00  0.00    -0.001 C 
ATOM     25  C   UNL     1      34.102 -22.959 -16.601  0.00  0.00    +0.085 C 
ATOM     26  C   UNL     1      35.077 -22.525 -17.500  0.00  0.00    +0.015 C 
ATOM     27  C   UNL     1      32.750 -22.766 -16.882  0.00  0.00    +0.153 C 
ATOM     28  C   UNL     1      33.342 -21.697 -18.966  0.00  0.00    +0.001 C 
ATOM     29  C   UNL     1      32.369 -22.143 -18.071  0.00  0.00    +0.038 C 
ATOM     30  C   UNL     1      32.160 -23.457 -14.732  0.00  0.00    +0.290 C 
ATOM     31  C   UNL     1      33.556 -24.002 -14.484  0.00  0.00    +0.271 C 
ATOM     32  H   UNL     1      35.430 -23.841 -15.287  0.00  0.00    +0.155 HD
ENDBRANCH  20  24
ENDBRANCH  17  20
ENDBRANCH  14  18
BRANCH   5  33
ATOM     33  C   UNL     1      32.211 -13.416 -21.609  0.00  0.00    +0.089 C 
BRANCH  33  36
ATOM     34  O   UNL     1      32.332 -11.858 -19.754  0.00  0.00    -0.275 OA
ATOM     35  N   UNL     1      30.827 -11.472 -21.449  0.00  0.00    -0.329 N 
ATOM     36  C   UNL     1      31.824 -12.188 -20.823  0.00  0.00    +0.220 C 
ATOM     37  H   UNL     1      30.482 -10.646 -21.040  0.00  0.00    +0.145 HD
ATOM     38  H   UNL     1      30.459 -11.787 -22.306  0.00  0.00    +0.145 HD
ENDBRANCH  33  36
ENDBRANCH   5  33
TORSDOF 5
ENDMDL
MODEL 5
REMARK VINA RESULT:     -11.1      3.289     10.001
REMARK  Name = 25174099
REMARK  5 active torsions:
REMARK  status: ('A' for Active; 'I' for Inactive)
REMARK    1  A    between atoms: C_5  and  C_33
REMARK    2  A    between atoms: C_14  and  C_18
REMARK    3  A    between atoms: N_17  and  C_20
REMARK    4  A    between atoms: C_20  and  C_24
REMARK    5  A    between atoms: C_33  and  C_36
REMARK                            x       y       z     vdW  Elec       q    Type
REMARK                         _______ _______ _______ _____ _____    ______ ____
ROOT
ATOM      1  S   UNL     1      36.973 -20.656 -19.433  0.00  0.00    -0.064 S 
ATOM      2  O   UNL     1      32.191 -20.390 -20.652  0.00  0.00    -0.274 OA
ATOM      3  N   UNL     1      35.081 -22.162 -18.284  0.00  0.00    -0.379 NA
ATOM      4  N   UNL     1      32.818 -21.894 -19.012  0.00  0.00    -0.255 N 
ATOM      5  C   UNL     1      34.509 -18.751 -21.985  0.00  0.00    +0.028 C 
ATOM      6  C   UNL     1      35.430 -17.555 -22.332  0.00  0.00    +0.005 C 
ATOM      7  C   UNL     1      35.137 -19.614 -20.916  0.00  0.00    -0.027 C 
ATOM      8  C   UNL     1      36.889 -17.983 -22.546  0.00  0.00    +0.006 C 
ATOM      9  C   UNL     1      37.480 -18.641 -21.292  0.00  0.00    +0.032 C 
ATOM     10  C   UNL     1      36.494 -19.566 -20.649  0.00  0.00    +0.002 C 
ATOM     11  C   UNL     1      34.482 -20.558 -20.057  0.00  0.00    +0.154 C 
ATOM     12  C   UNL     1      35.372 -21.204 -19.210  0.00  0.00    +0.152 C 
ATOM     13  C   UNL     1      33.067 -20.910 -19.967  0.00  0.00    +0.239 C 
ATOM     14  C   UNL     1      33.819 -22.458 -18.235  0.00  0.00    +0.240 C 
ATOM     15  H   UNL     1      31.892 -22.202 -18.884  0.00  0.00    +0.157 HD
ENDROOT
BRANCH  14  18
ATOM     16  O   UNL     1      33.010 -24.571 -17.716  0.00  0.00    -0.266 OA
ATOM     17  N   UNL     1      33.391 -23.062 -15.961  0.00  0.00    -0.294 N 
ATOM     18  C   UNL     1      33.359 -23.486 -17.272  0.00  0.00    +0.290 C 
ATOM     19  H   UNL     1      33.703 -22.148 -15.772  0.00  0.00    +0.150 HD
BRANCH  17  20
ATOM     20  C   UNL     1      32.989 -23.896 -14.852  0.00  0.00    +0.117 C 
BRANCH  20  24
ATOM     21  O   UNL     1      37.384 -25.780 -11.829  0.00  0.00    -0.464 OA
ATOM     22  O   UNL     1      39.481 -27.046 -14.485  0.00  0.00    -0.271 OA
ATOM     23  N   UNL     1      37.414 -26.051 -14.645  0.00  0.00    -0.279 N 
ATOM     24  C   UNL     1      34.169 -24.390 -14.066  0.00  0.00    -0.001 C 
ATOM     25  C   UNL     1      36.346 -25.429 -13.991  0.00  0.00    +0.085 C 
ATOM     26  C   UNL     1      35.249 -24.978 -14.726  0.00  0.00    +0.015 C 
ATOM     27  C   UNL     1      36.363 -25.303 -12.602  0.00  0.00    +0.153 C 
ATOM     28  C   UNL     1      34.182 -24.266 -12.677  0.00  0.00    +0.001 C 
ATOM     29  C   UNL     1      35.275 -24.729 -11.943  0.00  0.00    +0.038 C 
ATOM     30  C   UNL     1      38.601 -25.961 -12.526  0.00  0.00    +0.290 C 
ATOM     31  C   UNL     1      38.548 -26.437 -13.968  0.00  0.00    +0.271 C 
ATOM     32  H   UNL     1      37.353 -26.217 -15.613  0.00  0.00    +0.155 HD
ENDBRANCH  20  24
ENDBRANCH  17  20
ENDBRANCH  14  18
BRANCH   5  33
ATOM     33  C   UNL     1      34.189 -19.570 -23.240  0.00  0.00    +0.089 C 
BRANCH  33  36
ATOM     34  O   UNL     1      34.333 -17.769 -24.859  0.00  0.00    -0.275 OA
ATOM     35  N   UNL     1      32.442 -19.078 -24.799  0.00  0.00    -0.329 N 
ATOM     36  C   UNL     1      33.697 -18.701 -24.372  0.00  0.00    +0.220 C 
ATOM     37  H   UNL     1      32.006 -18.590 -25.534  0.00  0.00    +0.145 HD
ATOM     38  H   UNL     1      31.982 -19.834 -24.369  0.00  0.00    +0.145 HD
ENDBRANCH  33  36
ENDBRANCH   5  33
TORSDOF 5
ENDMDL
MODEL 6
REMARK VINA RESULT:     -10.9      4.521     11.625
REMARK  Name = 25174099
REMARK  5 active torsions:
REMARK  status: ('A' for Active; 'I' for Inactive)
REMARK    1  A    between atoms: C_5  and  C_33
REMARK    2  A    between atoms: C_14  and  C_18
REMARK    3  A    between atoms: N_17  and  C_20
REMARK    4  A    between atoms: C_20  and  C_24
REMARK    5  A    between atoms: C_33  and  C_36
REMARK                            x       y       z     vdW  Elec       q    Type
REMARK                         _______ _______ _______ _____ _____    ______ ____
ROOT
ATOM      1  S   UNL     1      32.585 -13.090 -20.400  0.00  0.00    -0.064 S 
ATOM      2  O   UNL     1      33.679 -11.946 -25.081  0.00  0.00    -0.274 OA
ATOM      3  N   UNL     1      33.766 -14.798 -22.089  0.00  0.00    -0.379 NA
ATOM      4  N   UNL     1      34.221 -14.059 -24.318  0.00  0.00    -0.255 N 
ATOM      5  C   UNL     1      32.383 -10.008 -22.983  0.00  0.00    +0.028 C 
ATOM      6  C   UNL     1      31.306  -9.172 -22.248  0.00  0.00    +0.005 C 
ATOM      7  C   UNL     1      32.595 -11.333 -22.289  0.00  0.00    -0.027 C 
ATOM      8  C   UNL     1      31.528  -9.138 -20.729  0.00  0.00    +0.006 C 
ATOM      9  C   UNL     1      31.486 -10.543 -20.115  0.00  0.00    +0.032 C 
ATOM     10  C   UNL     1      32.208 -11.533 -20.975  0.00  0.00    +0.002 C 
ATOM     11  C   UNL     1      33.186 -12.521 -22.833  0.00  0.00    +0.154 C 
ATOM     12  C   UNL     1      33.253 -13.548 -21.901  0.00  0.00    +0.152 C 
ATOM     13  C   UNL     1      33.704 -12.773 -24.175  0.00  0.00    +0.239 C 
ATOM     14  C   UNL     1      34.226 -14.988 -23.288  0.00  0.00    +0.240 C 
ATOM     15  H   UNL     1      34.600 -14.321 -25.188  0.00  0.00    +0.157 HD
ENDROOT
BRANCH  14  18
ATOM     16  O   UNL     1      34.787 -16.653 -24.803  0.00  0.00    -0.266 OA
ATOM     17  N   UNL     1      35.330 -16.973 -22.544  0.00  0.00    -0.294 N 
ATOM     18  C   UNL     1      34.814 -16.302 -23.631  0.00  0.00    +0.290 C 
ATOM     19  H   UNL     1      35.271 -16.546 -21.659  0.00  0.00    +0.150 HD
BRANCH  17  20
ATOM     20  C   UNL     1      35.955 -18.273 -22.642  0.00  0.00    +0.117 C 
BRANCH  20  24
ATOM     21  O   UNL     1      33.921 -21.900 -18.807  0.00  0.00    -0.464 OA
ATOM     22  O   UNL     1      36.926 -22.573 -16.918  0.00  0.00    -0.271 OA
ATOM     23  N   UNL     1      36.659 -21.196 -18.741  0.00  0.00    -0.279 N 
ATOM     24  C   UNL     1      35.429 -19.227 -21.609  0.00  0.00    -0.001 C 
ATOM     25  C   UNL     1      35.793 -20.637 -19.685  0.00  0.00    +0.085 C 
ATOM     26  C   UNL     1      36.290 -19.756 -20.647  0.00  0.00    +0.015 C 
ATOM     27  C   UNL     1      34.446 -20.997 -19.688  0.00  0.00    +0.153 C 
ATOM     28  C   UNL     1      34.081 -19.588 -21.617  0.00  0.00    +0.001 C 
ATOM     29  C   UNL     1      33.591 -20.479 -20.661  0.00  0.00    +0.038 C 
ATOM     30  C   UNL     1      34.683 -22.068 -17.628  0.00  0.00    +0.290 C 
ATOM     31  C   UNL     1      36.198 -22.005 -17.728  0.00  0.00    +0.271 C 
ATOM     32  H   UNL     1      37.624 -21.007 -18.802  0.00  0.00    +0.155 HD
ENDBRANCH  20  24
ENDBRANCH  17  20
ENDBRANCH  14  18
BRANCH   5  33
ATOM     33  C   UNL     1      33.696  -9.224 -23.093  0.00  0.00    +0.089 C 
BRANCH  33  36
ATOM     34  O   UNL     1      32.692  -7.257 -24.095  0.00  0.00    -0.275 OA
ATOM     35  N   UNL     1      34.205  -6.997 -22.382  0.00  0.00    -0.329 N 
ATOM     36  C   UNL     1      33.458  -7.744 -23.267  0.00  0.00    +0.220 C 
ATOM     37  H   UNL     1      34.143  -6.015 -22.391  0.00  0.00    +0.145 HD
ATOM     38  H   UNL     1      34.802  -7.446 -21.741  0.00  0.00    +0.145 HD
ENDBRANCH  33  36
ENDBRANCH   5  33
TORSDOF 5
ENDMDL
MODEL 7
REMARK VINA RESULT:     -10.9      9.309     16.286
REMARK  Name = 25174099
REMARK  5 active torsions:
REMARK  status: ('A' for Active; 'I' for Inactive)
REMARK    1  A    between atoms: C_5  and  C_33
REMARK    2  A    between atoms: C_14  and  C_18
REMARK    3  A    between atoms: N_17  and  C_20
REMARK    4  A    between atoms: C_20  and  C_24
REMARK    5  A    between atoms: C_33  and  C_36
REMARK                            x       y       z     vdW  Elec       q    Type
REMARK                         _______ _______ _______ _____ _____    ______ ____
ROOT
ATOM      1  S   UNL     1      34.568  -6.727 -24.339  0.00  0.00    -0.064 S 
ATOM      2  O   UNL     1      30.893  -4.482 -21.917  0.00  0.00    -0.274 OA
ATOM      3  N   UNL     1      33.239  -7.863 -22.312  0.00  0.00    -0.379 NA
ATOM      4  N   UNL     1      31.485  -6.619 -21.266  0.00  0.00    -0.255 N 
ATOM      5  C   UNL     1      32.462  -3.296 -24.360  0.00  0.00    +0.028 C 
ATOM      6  C   UNL     1      33.462  -2.426 -25.162  0.00  0.00    +0.005 C 
ATOM      7  C   UNL     1      33.049  -4.659 -24.078  0.00  0.00    -0.027 C 
ATOM      8  C   UNL     1      34.075  -3.182 -26.349  0.00  0.00    +0.006 C 
ATOM      9  C   UNL     1      34.846  -4.428 -25.894  0.00  0.00    +0.032 C 
ATOM     10  C   UNL     1      34.108  -5.159 -24.815  0.00  0.00    +0.002 C 
ATOM     11  C   UNL     1      32.640  -5.596 -23.072  0.00  0.00    +0.154 C 
ATOM     12  C   UNL     1      33.380  -6.770 -23.116  0.00  0.00    +0.152 C 
ATOM     13  C   UNL     1      31.594  -5.479 -22.060  0.00  0.00    +0.239 C 
ATOM     14  C   UNL     1      32.297  -7.731 -21.430  0.00  0.00    +0.240 C 
ATOM     15  H   UNL     1      30.801  -6.637 -20.558  0.00  0.00    +0.157 HD
ENDROOT
BRANCH  14  18
ATOM     16  O   UNL     1      32.183  -8.631 -19.294  0.00  0.00    -0.266 OA
ATOM     17  N   UNL     1      31.641 -10.008 -21.113  0.00  0.00    -0.294 N 
ATOM     18  C   UNL     1      32.033  -8.844 -20.490  0.00  0.00    +0.290 C 
ATOM     19  H   UNL     1      31.568 -10.012 -22.095  0.00  0.00    +0.150 HD
BRANCH  17  20
ATOM     20  C   UNL     1      31.329 -11.223 -20.395  0.00  0.00    +0.117 C 
BRANCH  20  24
ATOM     21  O   UNL     1      34.533 -15.597 -22.005  0.00  0.00    -0.464 OA
ATOM     22  O   UNL     1      33.901 -15.568 -25.563  0.00  0.00    -0.271 OA
ATOM     23  N   UNL     1      33.057 -14.165 -23.947  0.00  0.00    -0.279 N 
ATOM     24  C   UNL     1      32.184 -12.373 -20.841  0.00  0.00    -0.001 C 
ATOM     25  C   UNL     1      33.034 -13.789 -22.601  0.00  0.00    +0.085 C 
ATOM     26  C   UNL     1      32.232 -12.723 -22.191  0.00  0.00    +0.015 C 
ATOM     27  C   UNL     1      33.778 -14.509 -21.667  0.00  0.00    +0.153 C 
ATOM     28  C   UNL     1      32.925 -13.095 -19.905  0.00  0.00    +0.001 C 
ATOM     29  C   UNL     1      33.717 -14.168 -20.316  0.00  0.00    +0.038 C 
ATOM     30  C   UNL     1      34.893 -15.650 -23.372  0.00  0.00    +0.290 C 
ATOM     31  C   UNL     1      33.894 -15.157 -24.405  0.00  0.00    +0.271 C 
ATOM     32  H   UNL     1      32.460 -13.710 -24.584  0.00  0.00    +0.155 HD
ENDBRANCH  20  24
ENDBRANCH  17  20
ENDBRANCH  14  18
BRANCH   5  33
ATOM     33  C   UNL     1      31.127  -3.411 -25.104  0.00  0.00    +0.089 C 
BRANCH  33  36
ATOM     34  O   UNL     1      29.206  -1.949 -25.347  0.00  0.00    -0.275 OA
ATOM     35  N   UNL     1      30.412  -1.904 -23.389  0.00  0.00    -0.329 N 
ATOM     36  C   UNL     1      30.141  -2.358 -24.662  0.00  0.00    +0.220 C 
ATOM     37  H   UNL     1      29.842  -1.213 -22.981  0.00  0.00    +0.145 HD
ATOM     38  H   UNL     1      31.177  -2.270 -22.889  0.00  0.00    +0.145 HD
ENDBRANCH  33  36
ENDBRANCH   5  33
TORSDOF 5
ENDMDL
MODEL 8
REMARK VINA RESULT:     -10.6      4.149     11.076
REMARK  Name = 25174099
REMARK  5 active torsions:
REMARK  status: ('A' for Active; 'I' for Inactive)
REMARK    1  A    between atoms: C_5  and  C_33
REMARK    2  A    between atoms: C_14  and  C_18
REMARK    3  A    between atoms: N_17  and  C_20
REMARK    4  A    between atoms: C_20  and  C_24
REMARK    5  A    between atoms: C_33  and  C_36
REMARK                            x       y       z     vdW  Elec       q    Type
REMARK                         _______ _______ _______ _____ _____    ______ ____
ROOT
ATOM      1  S   UNL     1      33.844 -13.624 -25.542  0.00  0.00    -0.064 S 
ATOM      2  O   UNL     1      34.068 -13.710 -20.606  0.00  0.00    -0.274 OA
ATOM      3  N   UNL     1      34.470 -15.818 -24.140  0.00  0.00    -0.379 NA
ATOM      4  N   UNL     1      34.522 -15.664 -21.754  0.00  0.00    -0.255 N 
ATOM      5  C   UNL     1      33.260 -11.235 -22.355  0.00  0.00    +0.028 C 
ATOM      6  C   UNL     1      33.367  -9.869 -23.078  0.00  0.00    +0.005 C 
ATOM      7  C   UNL     1      33.565 -12.367 -23.307  0.00  0.00    -0.027 C 
ATOM      8  C   UNL     1      32.636  -9.863 -24.428  0.00  0.00    +0.006 C 
ATOM      9  C   UNL     1      33.207 -10.914 -25.390  0.00  0.00    +0.032 C 
ATOM     10  C   UNL     1      33.498 -12.199 -24.679  0.00  0.00    +0.002 C 
ATOM     11  C   UNL     1      33.949 -13.709 -22.975  0.00  0.00    +0.154 C 
ATOM     12  C   UNL     1      34.120 -14.500 -24.104  0.00  0.00    +0.152 C 
ATOM     13  C   UNL     1      34.171 -14.318 -21.667  0.00  0.00    +0.239 C 
ATOM     14  C   UNL     1      34.650 -16.332 -22.963  0.00  0.00    +0.240 C 
ATOM     15  H   UNL     1      34.685 -16.163 -20.921  0.00  0.00    +0.157 HD
ENDROOT
BRANCH  14  18
ATOM     16  O   UNL     1      34.764 -18.497 -23.790  0.00  0.00    -0.266 OA
ATOM     17  N   UNL     1      35.665 -18.067 -21.668  0.00  0.00    -0.294 N 
ATOM     18  C   UNL     1      35.034 -17.758 -22.853  0.00  0.00    +0.290 C 
ATOM     19  H   UNL     1      35.807 -17.347 -21.012  0.00  0.00    +0.150 HD
BRANCH  17  20
ATOM     20  C   UNL     1      36.129 -19.396 -21.343  0.00  0.00    +0.117 C 
BRANCH  20  24
ATOM     21  O   UNL     1      32.315 -22.256 -18.298  0.00  0.00    -0.464 OA
ATOM     22  O   UNL     1      34.510 -24.028 -16.040  0.00  0.00    -0.271 OA
ATOM     23  N   UNL     1      35.068 -22.561 -17.722  0.00  0.00    -0.279 N 
ATOM     24  C   UNL     1      35.130 -20.152 -20.517  0.00  0.00    -0.001 C 
ATOM     25  C   UNL     1      34.633 -21.690 -18.724  0.00  0.00    +0.085 C 
ATOM     26  C   UNL     1      35.567 -20.994 -19.493  0.00  0.00    +0.015 C 
ATOM     27  C   UNL     1      33.269 -21.554 -18.981  0.00  0.00    +0.153 C 
ATOM     28  C   UNL     1      33.766 -20.018 -20.778  0.00  0.00    +0.001 C 
ATOM     29  C   UNL     1      32.835 -20.724 -20.015  0.00  0.00    +0.038 C 
ATOM     30  C   UNL     1      32.742 -22.736 -17.038  0.00  0.00    +0.290 C 
ATOM     31  C   UNL     1      34.180 -23.203 -16.889  0.00  0.00    +0.271 C 
ATOM     32  H   UNL     1      36.032 -22.719 -17.608  0.00  0.00    +0.155 HD
ENDBRANCH  20  24
ENDBRANCH  17  20
ENDBRANCH  14  18
BRANCH   5  33
ATOM     33  C   UNL     1      31.876 -11.404 -21.719  0.00  0.00    +0.089 C 
BRANCH  33  36
ATOM     34  O   UNL     1      31.466  -9.624 -20.122  0.00  0.00    -0.275 OA
ATOM     35  N   UNL     1      32.170 -11.677 -19.360  0.00  0.00    -0.329 N 
ATOM     36  C   UNL     1      31.806 -10.784 -20.345  0.00  0.00    +0.220 C 
ATOM     37  H   UNL     1      32.167 -11.398 -18.416  0.00  0.00    +0.145 HD
ATOM     38  H   UNL     1      32.433 -12.594 -19.601  0.00  0.00    +0.145 HD
ENDBRANCH  33  36
ENDBRANCH   5  33
TORSDOF 5
ENDMDL
MODEL 9
REMARK VINA RESULT:     -10.6      1.550      2.242
REMARK  Name = 25174099
REMARK  5 active torsions:
REMARK  status: ('A' for Active; 'I' for Inactive)
REMARK    1  A    between atoms: C_5  and  C_33
REMARK    2  A    between atoms: C_14  and  C_18
REMARK    3  A    between atoms: N_17  and  C_20
REMARK    4  A    between atoms: C_20  and  C_24
REMARK    5  A    between atoms: C_33  and  C_36
REMARK                            x       y       z     vdW  Elec       q    Type
REMARK                         _______ _______ _______ _____ _____    ______ ____
ROOT
ATOM      1  S   UNL     1      35.668 -23.075 -15.584  0.00  0.00    -0.064 S 
ATOM      2  O   UNL     1      31.915 -22.187 -18.675  0.00  0.00    -0.274 OA
ATOM      3  N   UNL     1      35.948 -21.733 -17.884  0.00  0.00    -0.379 NA
ATOM      4  N   UNL     1      34.011 -21.398 -19.246  0.00  0.00    -0.255 N 
ATOM      5  C   UNL     1      31.699 -23.663 -15.916  0.00  0.00    +0.028 C 
ATOM      6  C   UNL     1      31.558 -24.816 -14.891  0.00  0.00    +0.005 C 
ATOM      7  C   UNL     1      33.150 -23.292 -16.105  0.00  0.00    -0.027 C 
ATOM      8  C   UNL     1      32.390 -24.578 -13.623  0.00  0.00    +0.006 C 
ATOM      9  C   UNL     1      33.886 -24.452 -13.938  0.00  0.00    +0.032 C 
ATOM     10  C   UNL     1      34.114 -23.634 -15.173  0.00  0.00    +0.002 C 
ATOM     11  C   UNL     1      33.735 -22.578 -17.204  0.00  0.00    +0.154 C 
ATOM     12  C   UNL     1      35.099 -22.382 -17.036  0.00  0.00    +0.152 C 
ATOM     13  C   UNL     1      33.107 -22.056 -18.414  0.00  0.00    +0.239 C 
ATOM     14  C   UNL     1      35.359 -21.273 -18.944  0.00  0.00    +0.240 C 
ATOM     15  H   UNL     1      33.679 -21.005 -20.086  0.00  0.00    +0.157 HD
ENDROOT
BRANCH  14  18
ATOM     16  O   UNL     1      37.378 -20.531 -19.816  0.00  0.00    -0.266 OA
ATOM     17  N   UNL     1      35.402 -19.962 -20.943  0.00  0.00    -0.294 N 
ATOM     18  C   UNL     1      36.162 -20.545 -19.953  0.00  0.00    +0.290 C 
ATOM     19  H   UNL     1      34.424 -20.069 -20.906  0.00  0.00    +0.150 HD
BRANCH  17  20
ATOM     20  C   UNL     1      35.971 -19.202 -22.032  0.00  0.00    +0.117 C 
BRANCH  20  24
ATOM     21  O   UNL     1      33.944 -13.924 -22.200  0.00  0.00    -0.464 OA
ATOM     22  O   UNL     1      33.175 -13.654 -25.721  0.00  0.00    -0.271 OA
ATOM     23  N   UNL     1      34.070 -15.442 -24.583  0.00  0.00    -0.279 N 
ATOM     24  C   UNL     1      35.419 -17.808 -22.092  0.00  0.00    -0.001 C 
ATOM     25  C   UNL     1      34.469 -15.986 -23.359  0.00  0.00    +0.085 C 
ATOM     26  C   UNL     1      34.988 -17.281 -23.311  0.00  0.00    +0.015 C 
ATOM     27  C   UNL     1      34.389 -15.217 -22.199  0.00  0.00    +0.153 C 
ATOM     28  C   UNL     1      35.342 -17.038 -20.931  0.00  0.00    +0.001 C 
ATOM     29  C   UNL     1      34.834 -15.739 -20.985  0.00  0.00    +0.038 C 
ATOM     30  C   UNL     1      33.141 -13.589 -23.315  0.00  0.00    +0.290 C 
ATOM     31  C   UNL     1      33.480 -14.202 -24.663  0.00  0.00    +0.271 C 
ATOM     32  H   UNL     1      34.214 -15.959 -25.409  0.00  0.00    +0.155 HD
ENDBRANCH  20  24
ENDBRANCH  17  20
ENDBRANCH  14  18
BRANCH   5  33
ATOM     33  C   UNL     1      30.870 -22.449 -15.481  0.00  0.00    +0.089 C 
BRANCH  33  36
ATOM     34  O   UNL     1      28.910 -22.779 -16.872  0.00  0.00    -0.275 OA
ATOM     35  N   UNL     1      28.659 -22.650 -14.590  0.00  0.00    -0.329 N 
ATOM     36  C   UNL     1      29.398 -22.643 -15.753  0.00  0.00    +0.220 C 
ATOM     37  H   UNL     1      27.682 -22.769 -14.628  0.00  0.00    +0.145 HD
ATOM     38  H   UNL     1      29.107 -22.537 -13.721  0.00  0.00    +0.145 HD
ENDBRANCH  33  36
ENDBRANCH   5  33
TORSDOF 5
ENDMDL
