MODEL 1
REMARK VINA RESULT:     -11.8      0.000      0.000
REMARK  Name = 11978813
REMARK  7 active torsions:
REMARK  status: ('A' for Active; 'I' for Inactive)
REMARK    1  A    between atoms: C_1  and  N_2
REMARK    2  A    between atoms: C_1  and  C_18
REMARK    3  A    between atoms: N_3  and  C_10
REMARK    4  A    between atoms: C_18  and  C_19
REMARK    5  A    between atoms: C_19  and  C_20
REMARK    6  A    between atoms: C_20  and  O_21
REMARK    7  A    between atoms: O_21  and  C_24
REMARK                            x       y       z     vdW  Elec       q    Type
REMARK                         _______ _______ _______ _____ _____    ______ ____
ROOT
ATOM      1  C   UNL     1      34.955 -16.860 -24.114  0.00  0.00    -0.077 C 
ENDROOT
BRANCH   1   2
ATOM      2  N   UNL     1      34.067 -15.793 -23.655  0.00  0.00    +0.389 N 
ATOM      3  N   UNL     1      33.332 -13.111 -23.001  0.00  0.00    -0.312 N 
ATOM      4  C   UNL     1      34.617 -15.144 -22.459  0.00  0.00    -0.055 C 
ATOM      5  C   UNL     1      33.864 -14.799 -24.715  0.00  0.00    -0.055 C 
ATOM      6  C   UNL     1      33.668 -14.064 -21.935  0.00  0.00    +0.068 C 
ATOM      7  C   UNL     1      32.891 -13.706 -24.267  0.00  0.00    +0.068 C 
ATOM      8  H   UNL     1      33.166 -16.210 -23.419  0.00  0.00    -0.080 HD
BRANCH   3  10
ATOM      9  S   UNL     1      33.798  -8.092 -23.428  0.00  0.00    -0.086 S 
ATOM     10  C   UNL     1      32.866 -11.845 -22.629  0.00  0.00    +0.048 C 
ATOM     11  C   UNL     1      33.456 -10.637 -23.125  0.00  0.00    +0.020 C 
ATOM     12  C   UNL     1      31.778 -11.740 -21.736  0.00  0.00    +0.015 C 
ATOM     13  C   UNL     1      32.941  -9.405 -22.711  0.00  0.00    +0.031 C 
ATOM     14  C   UNL     1      34.556 -10.462 -24.030  0.00  0.00    +0.009 C 
ATOM     15  C   UNL     1      31.283 -10.505 -21.339  0.00  0.00    +0.002 C 
ATOM     16  C   UNL     1      31.854  -9.323 -21.818  0.00  0.00    +0.007 C 
ATOM     17  C   UNL     1      34.841  -9.140 -24.275  0.00  0.00    +0.035 C 
ENDBRANCH   3  10
ENDBRANCH   1   2
BRANCH   1  18
ATOM     18  C   UNL     1      34.563 -18.191 -23.474  0.00  0.00    -0.019 C 
BRANCH  18  19
ATOM     19  C   UNL     1      35.713 -18.767 -22.649  0.00  0.00    +0.045 C 
BRANCH  19  20
ATOM     20  C   UNL     1      35.299 -19.018 -21.205  0.00  0.00    +0.205 C 
BRANCH  20  21
ATOM     21  O   UNL     1      34.393 -20.112 -21.147  0.00  0.00    -0.475 OA
BRANCH  21  24
ATOM     22  O   UNL     1      30.850 -23.449 -15.958  0.00  0.00    -0.270 OA
ATOM     23  N   UNL     1      31.981 -22.362 -17.644  0.00  0.00    -0.280 N 
ATOM     24  C   UNL     1      34.393 -20.854 -19.995  0.00  0.00    +0.140 C 
ATOM     25  C   UNL     1      33.185 -21.223 -19.416  0.00  0.00    +0.052 C 
ATOM     26  C   UNL     1      33.196 -21.980 -18.242  0.00  0.00    +0.054 C 
ATOM     27  C   UNL     1      35.603 -21.228 -19.419  0.00  0.00    +0.037 C 
ATOM     28  C   UNL     1      34.404 -22.364 -17.651  0.00  0.00    +0.014 C 
ATOM     29  C   UNL     1      35.612 -21.985 -18.245  0.00  0.00    +0.004 C 
ATOM     30  C   UNL     1      34.371 -23.155 -16.424  0.00  0.00    +0.006 C 
ATOM     31  C   UNL     1      31.908 -23.110 -16.485  0.00  0.00    +0.250 C 
ATOM     32  C   UNL     1      33.204 -23.508 -15.872  0.00  0.00    +0.058 C 
ATOM     33  H   UNL     1      31.140 -22.082 -18.073  0.00  0.00    +0.155 HD
ENDBRANCH  21  24
ENDBRANCH  20  21
ENDBRANCH  19  20
ENDBRANCH  18  19
ENDBRANCH   1  18
TORSDOF 7
ENDMDL
MODEL 2
REMARK VINA RESULT:     -11.3      4.687     11.916
REMARK  Name = 11978813
REMARK  7 active torsions:
REMARK  status: ('A' for Active; 'I' for Inactive)
REMARK    1  A    between atoms: C_1  and  N_2
REMARK    2  A    between atoms: C_1  and  C_18
REMARK    3  A    between atoms: N_3  and  C_10
REMARK    4  A    between atoms: C_18  and  C_19
REMARK    5  A    between atoms: C_19  and  C_20
REMARK    6  A    between atoms: C_20  and  O_21
REMARK    7  A    between atoms: O_21  and  C_24
REMARK                            x       y       z     vdW  Elec       q    Type
REMARK                         _______ _______ _______ _____ _____    ______ ____
ROOT
ATOM      1  C   UNL     1      34.249 -15.952 -24.566  0.00  0.00    -0.077 C 
ENDROOT
BRANCH   1   2
ATOM      2  N   UNL     1      34.945 -16.955 -23.761  0.00  0.00    +0.389 N 
ATOM      3  N   UNL     1      35.248 -18.849 -21.644  0.00  0.00    -0.312 N 
ATOM      4  C   UNL     1      35.076 -16.500 -22.372  0.00  0.00    -0.055 C 
ATOM      5  C   UNL     1      34.229 -18.236 -23.802  0.00  0.00    -0.055 C 
ATOM      6  C   UNL     1      35.854 -17.516 -21.533  0.00  0.00    +0.068 C 
ATOM      7  C   UNL     1      34.978 -19.310 -23.010  0.00  0.00    +0.068 C 
ATOM      8  H   UNL     1      35.877 -17.086 -24.154  0.00  0.00    -0.080 HD
BRANCH   3  10
ATOM      9  S   UNL     1      33.434 -22.260 -18.378  0.00  0.00    -0.086 S 
ATOM     10  C   UNL     1      35.519 -19.782 -20.637  0.00  0.00    +0.048 C 
ATOM     11  C   UNL     1      34.486 -20.543 -20.001  0.00  0.00    +0.020 C 
ATOM     12  C   UNL     1      36.853 -19.989 -20.224  0.00  0.00    +0.015 C 
ATOM     13  C   UNL     1      34.828 -21.459 -19.001  0.00  0.00    +0.031 C 
ATOM     14  C   UNL     1      33.069 -20.528 -20.227  0.00  0.00    +0.009 C 
ATOM     15  C   UNL     1      37.169 -20.904 -19.228  0.00  0.00    +0.002 C 
ATOM     16  C   UNL     1      36.167 -21.650 -18.604  0.00  0.00    +0.007 C 
ATOM     17  C   UNL     1      32.389 -21.406 -19.418  0.00  0.00    +0.035 C 
ENDBRANCH   3  10
ENDBRANCH   1   2
BRANCH   1  18
ATOM     18  C   UNL     1      33.774 -14.799 -23.683  0.00  0.00    -0.019 C 
BRANCH  18  19
ATOM     19  C   UNL     1      33.327 -13.605 -24.526  0.00  0.00    +0.045 C 
BRANCH  19  20
ATOM     20  C   UNL     1      33.961 -12.308 -24.042  0.00  0.00    +0.205 C 
BRANCH  20  21
ATOM     21  O   UNL     1      33.014 -11.559 -23.292  0.00  0.00    -0.475 OA
BRANCH  21  24
ATOM     22  O   UNL     1      30.435  -5.068 -21.940  0.00  0.00    -0.270 OA
ATOM     23  N   UNL     1      31.253  -7.176 -22.373  0.00  0.00    -0.280 N 
ATOM     24  C   UNL     1      33.166 -10.197 -23.286  0.00  0.00    +0.140 C 
ATOM     25  C   UNL     1      32.128  -9.392 -22.833  0.00  0.00    +0.052 C 
ATOM     26  C   UNL     1      32.294  -8.005 -22.830  0.00  0.00    +0.054 C 
ATOM     27  C   UNL     1      34.358  -9.638 -23.735  0.00  0.00    +0.037 C 
ATOM     28  C   UNL     1      33.487  -7.428 -23.278  0.00  0.00    +0.014 C 
ATOM     29  C   UNL     1      34.522  -8.251 -23.732  0.00  0.00    +0.004 C 
ATOM     30  C   UNL     1      33.619  -5.973 -23.259  0.00  0.00    +0.006 C 
ATOM     31  C   UNL     1      31.340  -5.798 -22.339  0.00  0.00    +0.250 C 
ATOM     32  C   UNL     1      32.616  -5.203 -22.820  0.00  0.00    +0.058 C 
ATOM     33  H   UNL     1      30.420  -7.600 -22.062  0.00  0.00    +0.155 HD
ENDBRANCH  21  24
ENDBRANCH  20  21
ENDBRANCH  19  20
ENDBRANCH  18  19
ENDBRANCH   1  18
TORSDOF 7
ENDMDL
MODEL 3
REMARK VINA RESULT:     -11.2      1.745      2.282
REMARK  Name = 11978813
REMARK  7 active torsions:
REMARK  status: ('A' for Active; 'I' for Inactive)
REMARK    1  A    between atoms: C_1  and  N_2
REMARK    2  A    between atoms: C_1  and  C_18
REMARK    3  A    between atoms: N_3  and  C_10
REMARK    4  A    between atoms: C_18  and  C_19
REMARK    5  A    between atoms: C_19  and  C_20
REMARK    6  A    between atoms: C_20  and  O_21
REMARK    7  A    between atoms: O_21  and  C_24
REMARK                            x       y       z     vdW  Elec       q    Type
REMARK                         _______ _______ _______ _____ _____    ______ ____
ROOT
ATOM      1  C   UNL     1      34.962 -17.162 -23.650  0.00  0.00    -0.077 C 
ENDROOT
BRANCH   1   2
ATOM      2  N   UNL     1      34.763 -15.721 -23.497  0.00  0.00    +0.389 N 
ATOM      3  N   UNL     1      33.361 -13.346 -22.754  0.00  0.00    -0.312 N 
ATOM      4  C   UNL     1      33.595 -15.277 -24.267  0.00  0.00    -0.055 C 
ATOM      5  C   UNL     1      34.591 -15.372 -22.082  0.00  0.00    -0.055 C 
ATOM      6  C   UNL     1      33.411 -13.761 -24.161  0.00  0.00    +0.068 C 
ATOM      7  C   UNL     1      34.439 -13.860 -21.902  0.00  0.00    +0.068 C 
ATOM      8  H   UNL     1      35.593 -15.247 -23.854  0.00  0.00    -0.080 HD
BRANCH   3  10
ATOM      9  S   UNL     1      33.347  -8.328 -23.400  0.00  0.00    -0.086 S 
ATOM     10  C   UNL     1      32.764 -12.117 -22.451  0.00  0.00    +0.048 C 
ATOM     11  C   UNL     1      33.247 -10.879 -22.988  0.00  0.00    +0.020 C 
ATOM     12  C   UNL     1      31.647 -12.081 -21.589  0.00  0.00    +0.015 C 
ATOM     13  C   UNL     1      32.602  -9.687 -22.643  0.00  0.00    +0.031 C 
ATOM     14  C   UNL     1      34.348 -10.635 -23.875  0.00  0.00    +0.009 C 
ATOM     15  C   UNL     1      31.023 -10.885 -21.261  0.00  0.00    +0.002 C 
ATOM     16  C   UNL     1      31.488  -9.674 -21.780  0.00  0.00    +0.007 C 
ATOM     17  C   UNL     1      34.510  -9.304 -24.174  0.00  0.00    +0.035 C 
ENDBRANCH   3  10
ENDBRANCH   1   2
BRANCH   1  18
ATOM     18  C   UNL     1      35.384 -17.784 -22.320  0.00  0.00    -0.019 C 
BRANCH  18  19
ATOM     19  C   UNL     1      35.153 -19.294 -22.319  0.00  0.00    +0.045 C 
BRANCH  19  20
ATOM     20  C   UNL     1      34.669 -19.787 -20.961  0.00  0.00    +0.205 C 
BRANCH  20  21
ATOM     21  O   UNL     1      35.654 -20.629 -20.376  0.00  0.00    -0.475 OA
BRANCH  21  24
ATOM     22  O   UNL     1      37.294 -23.544 -14.096  0.00  0.00    -0.270 OA
ATOM     23  N   UNL     1      36.781 -22.597 -16.131  0.00  0.00    -0.280 N 
ATOM     24  C   UNL     1      35.283 -21.329 -19.257  0.00  0.00    +0.140 C 
ATOM     25  C   UNL     1      36.226 -21.601 -18.274  0.00  0.00    +0.052 C 
ATOM     26  C   UNL     1      35.838 -22.314 -17.136  0.00  0.00    +0.054 C 
ATOM     27  C   UNL     1      33.967 -21.758 -19.121  0.00  0.00    +0.037 C 
ATOM     28  C   UNL     1      34.518 -22.752 -16.985  0.00  0.00    +0.014 C 
ATOM     29  C   UNL     1      33.581 -22.470 -17.983  0.00  0.00    +0.004 C 
ATOM     30  C   UNL     1      34.154 -23.494 -15.780  0.00  0.00    +0.006 C 
ATOM     31  C   UNL     1      36.475 -23.294 -14.979  0.00  0.00    +0.250 C 
ATOM     32  C   UNL     1      35.067 -23.752 -14.836  0.00  0.00    +0.058 C 
ATOM     33  H   UNL     1      37.706 -22.281 -16.255  0.00  0.00    +0.155 HD
ENDBRANCH  21  24
ENDBRANCH  20  21
ENDBRANCH  19  20
ENDBRANCH  18  19
ENDBRANCH   1  18
TORSDOF 7
ENDMDL
MODEL 4
REMARK VINA RESULT:     -11.2      2.195      3.749
REMARK  Name = 11978813
REMARK  7 active torsions:
REMARK  status: ('A' for Active; 'I' for Inactive)
REMARK    1  A    between atoms: C_1  and  N_2
REMARK    2  A    between atoms: C_1  and  C_18
REMARK    3  A    between atoms: N_3  and  C_10
REMARK    4  A    between atoms: C_18  and  C_19
REMARK    5  A    between atoms: C_19  and  C_20
REMARK    6  A    between atoms: C_20  and  O_21
REMARK    7  A    between atoms: O_21  and  C_24
REMARK                            x       y       z     vdW  Elec       q    Type
REMARK                         _______ _______ _______ _____ _____    ______ ____
ROOT
ATOM      1  C   UNL     1      33.037 -13.888 -22.616  0.00  0.00    -0.077 C 
ENDROOT
BRANCH   1   2
ATOM      2  N   UNL     1      32.552 -12.509 -22.620  0.00  0.00    +0.389 N 
ATOM      3  N   UNL     1      32.446  -9.778 -21.787  0.00  0.00    -0.312 N 
ATOM      4  C   UNL     1      31.998 -12.154 -21.308  0.00  0.00    -0.055 C 
ATOM      5  C   UNL     1      33.634 -11.582 -22.973  0.00  0.00    -0.055 C 
ATOM      6  C   UNL     1      31.434 -10.731 -21.316  0.00  0.00    +0.068 C 
ATOM      7  C   UNL     1      33.126 -10.140 -23.036  0.00  0.00    +0.068 C 
ATOM      8  H   UNL     1      31.813 -12.434 -23.320  0.00  0.00    -0.080 HD
BRANCH   3  10
ATOM      9  S   UNL     1      31.284  -5.097 -23.312  0.00  0.00    -0.086 S 
ATOM     10  C   UNL     1      32.289  -8.429 -21.448  0.00  0.00    +0.048 C 
ATOM     11  C   UNL     1      31.898  -7.440 -22.408  0.00  0.00    +0.020 C 
ATOM     12  C   UNL     1      32.521  -8.015 -20.118  0.00  0.00    +0.015 C 
ATOM     13  C   UNL     1      31.760  -6.109 -22.000  0.00  0.00    +0.031 C 
ATOM     14  C   UNL     1      31.604  -7.588 -23.805  0.00  0.00    +0.009 C 
ATOM     15  C   UNL     1      32.378  -6.688 -19.737  0.00  0.00    +0.002 C 
ATOM     16  C   UNL     1      31.997  -5.719 -20.668  0.00  0.00    +0.007 C 
ATOM     17  C   UNL     1      31.260  -6.402 -24.408  0.00  0.00    +0.035 C 
ENDBRANCH   3  10
ENDBRANCH   1   2
BRANCH   1  18
ATOM     18  C   UNL     1      33.959 -14.130 -23.810  0.00  0.00    -0.019 C 
BRANCH  18  19
ATOM     19  C   UNL     1      34.160 -15.624 -24.059  0.00  0.00    +0.045 C 
BRANCH  19  20
ATOM     20  C   UNL     1      34.969 -16.275 -22.945  0.00  0.00    +0.205 C 
BRANCH  20  21
ATOM     21  O   UNL     1      35.261 -17.624 -23.286  0.00  0.00    -0.475 OA
BRANCH  21  24
ATOM     22  O   UNL     1      32.820 -22.433 -18.647  0.00  0.00    -0.270 OA
ATOM     23  N   UNL     1      33.593 -20.874 -20.154  0.00  0.00    -0.280 N 
ATOM     24  C   UNL     1      35.479 -18.491 -22.247  0.00  0.00    +0.140 C 
ATOM     25  C   UNL     1      34.420 -19.232 -21.738  0.00  0.00    +0.052 C 
ATOM     26  C   UNL     1      34.653 -20.115 -20.680  0.00  0.00    +0.054 C 
ATOM     27  C   UNL     1      36.759 -18.617 -21.717  0.00  0.00    +0.037 C 
ATOM     28  C   UNL     1      35.934 -20.253 -20.135  0.00  0.00    +0.014 C 
ATOM     29  C   UNL     1      36.990 -19.500 -20.659  0.00  0.00    +0.004 C 
ATOM     30  C   UNL     1      36.136 -21.186 -19.030  0.00  0.00    +0.006 C 
ATOM     31  C   UNL     1      33.742 -21.766 -19.111  0.00  0.00    +0.250 C 
ATOM     32  C   UNL     1      35.112 -21.899 -18.544  0.00  0.00    +0.058 C 
ATOM     33  H   UNL     1      32.697 -20.763 -20.550  0.00  0.00    +0.155 HD
ENDBRANCH  21  24
ENDBRANCH  20  21
ENDBRANCH  19  20
ENDBRANCH  18  19
ENDBRANCH   1  18
TORSDOF 7
ENDMDL
MODEL 5
REMARK VINA RESULT:     -11.1      3.517      5.972
REMARK  Name = 11978813
REMARK  7 active torsions:
REMARK  status: ('A' for Active; 'I' for Inactive)
REMARK    1  A    between atoms: C_1  and  N_2
REMARK    2  A    between atoms: C_1  and  C_18
REMARK    3  A    between atoms: N_3  and  C_10
REMARK    4  A    between atoms: C_18  and  C_19
REMARK    5  A    between atoms: C_19  and  C_20
REMARK    6  A    between atoms: C_20  and  O_21
REMARK    7  A    between atoms: O_21  and  C_24
REMARK                            x       y       z     vdW  Elec       q    Type
REMARK                         _______ _______ _______ _____ _____    ______ ____
ROOT
ATOM      1  C   UNL     1      36.012 -21.797 -18.585  0.00  0.00    -0.077 C 
ENDROOT
BRANCH   1   2
ATOM      2  N   UNL     1      35.909 -21.007 -19.811  0.00  0.00    +0.389 N 
ATOM      3  N   UNL     1      35.321 -18.695 -21.383  0.00  0.00    -0.312 N 
ATOM      4  C   UNL     1      34.517 -20.605 -20.049  0.00  0.00    -0.055 C 
ATOM      5  C   UNL     1      36.765 -19.818 -19.733  0.00  0.00    -0.055 C 
ATOM      6  C   UNL     1      34.387 -19.826 -21.360  0.00  0.00    +0.068 C 
ATOM      7  C   UNL     1      36.710 -19.012 -21.032  0.00  0.00    +0.068 C 
ATOM      8  H   UNL     1      36.222 -21.587 -20.590  0.00  0.00    -0.080 HD
BRANCH   3  10
ATOM      9  S   UNL     1      34.230 -13.786 -21.932  0.00  0.00    -0.086 S 
ATOM     10  C   UNL     1      35.051 -17.634 -22.255  0.00  0.00    +0.048 C 
ATOM     11  C   UNL     1      34.785 -16.307 -21.786  0.00  0.00    +0.020 C 
ATOM     12  C   UNL     1      35.036 -17.867 -23.648  0.00  0.00    +0.015 C 
ATOM     13  C   UNL     1      34.521 -15.294 -22.714  0.00  0.00    +0.031 C 
ATOM     14  C   UNL     1      34.738 -15.804 -20.443  0.00  0.00    +0.009 C 
ATOM     15  C   UNL     1      34.771 -16.846 -24.550  0.00  0.00    +0.002 C 
ATOM     16  C   UNL     1      34.511 -15.549 -24.100  0.00  0.00    +0.007 C 
ATOM     17  C   UNL     1      34.450 -14.462 -20.384  0.00  0.00    +0.035 C 
ENDBRANCH   3  10
ENDBRANCH   1   2
BRANCH   1  18
ATOM     18  C   UNL     1      37.092 -21.220 -17.671  0.00  0.00    -0.019 C 
BRANCH  18  19
ATOM     19  C   UNL     1      37.480 -22.215 -16.579  0.00  0.00    +0.045 C 
BRANCH  19  20
ATOM     20  C   UNL     1      36.368 -22.384 -15.552  0.00  0.00    +0.205 C 
BRANCH  20  21
ATOM     21  O   UNL     1      35.668 -23.597 -15.796  0.00  0.00    -0.475 OA
BRANCH  21  24
ATOM     22  O   UNL     1      28.703 -22.547 -16.800  0.00  0.00    -0.270 OA
ATOM     23  N   UNL     1      30.961 -22.878 -16.491  0.00  0.00    -0.280 N 
ATOM     24  C   UNL     1      34.377 -23.668 -15.340  0.00  0.00    +0.140 C 
ATOM     25  C   UNL     1      33.337 -23.235 -16.153  0.00  0.00    +0.052 C 
ATOM     26  C   UNL     1      32.025 -23.313 -15.680  0.00  0.00    +0.054 C 
ATOM     27  C   UNL     1      34.126 -24.174 -14.069  0.00  0.00    +0.037 C 
ATOM     28  C   UNL     1      31.755 -23.818 -14.404  0.00  0.00    +0.014 C 
ATOM     29  C   UNL     1      32.812 -24.250 -13.598  0.00  0.00    +0.004 C 
ATOM     30  C   UNL     1      30.369 -23.883 -13.947  0.00  0.00    +0.006 C 
ATOM     31  C   UNL     1      29.638 -22.923 -16.096  0.00  0.00    +0.250 C 
ATOM     32  C   UNL     1      29.372 -23.464 -14.736  0.00  0.00    +0.058 C 
ATOM     33  H   UNL     1      31.169 -22.524 -17.386  0.00  0.00    +0.155 HD
ENDBRANCH  21  24
ENDBRANCH  20  21
ENDBRANCH  19  20
ENDBRANCH  18  19
ENDBRANCH   1  18
TORSDOF 7
ENDMDL
MODEL 6
REMARK VINA RESULT:     -11.0      2.152      3.660
REMARK  Name = 11978813
REMARK  7 active torsions:
REMARK  status: ('A' for Active; 'I' for Inactive)
REMARK    1  A    between atoms: C_1  and  N_2
REMARK    2  A    between atoms: C_1  and  C_18
REMARK    3  A    between atoms: N_3  and  C_10
REMARK    4  A    between atoms: C_18  and  C_19
REMARK    5  A    between atoms: C_19  and  C_20
REMARK    6  A    between atoms: C_20  and  O_21
REMARK    7  A    between atoms: O_21  and  C_24
REMARK                            x       y       z     vdW  Elec       q    Type
REMARK                         _______ _______ _______ _____ _____    ______ ____
ROOT
ATOM      1  C   UNL     1      33.649 -14.027 -22.952  0.00  0.00    -0.077 C 
ENDROOT
BRANCH   1   2
ATOM      2  N   UNL     1      32.948 -12.767 -23.195  0.00  0.00    +0.389 N 
ATOM      3  N   UNL     1      32.440  -9.970 -22.921  0.00  0.00    -0.312 N 
ATOM      4  C   UNL     1      32.400 -12.232 -21.944  0.00  0.00    -0.055 C 
ATOM      5  C   UNL     1      33.852 -11.785 -23.805  0.00  0.00    -0.055 C 
ATOM      6  C   UNL     1      31.614 -10.943 -22.195  0.00  0.00    +0.068 C 
ATOM      7  C   UNL     1      33.116 -10.479 -24.118  0.00  0.00    +0.068 C 
ATOM      8  H   UNL     1      32.179 -12.951 -23.840  0.00  0.00    -0.080 HD
BRANCH   3  10
ATOM      9  S   UNL     1      31.938  -5.831 -20.056  0.00  0.00    -0.086 S 
ATOM     10  C   UNL     1      32.082  -8.619 -22.848  0.00  0.00    +0.048 C 
ATOM     11  C   UNL     1      32.151  -7.874 -21.626  0.00  0.00    +0.020 C 
ATOM     12  C   UNL     1      31.636  -7.955 -24.011  0.00  0.00    +0.015 C 
ATOM     13  C   UNL     1      31.777  -6.526 -21.625  0.00  0.00    +0.031 C 
ATOM     14  C   UNL     1      32.563  -8.298 -20.319  0.00  0.00    +0.009 C 
ATOM     15  C   UNL     1      31.270  -6.616 -23.986  0.00  0.00    +0.002 C 
ATOM     16  C   UNL     1      31.335  -5.883 -22.798  0.00  0.00    +0.007 C 
ATOM     17  C   UNL     1      32.495  -7.294 -19.384  0.00  0.00    +0.035 C 
ENDBRANCH   3  10
ENDBRANCH   1   2
BRANCH   1  18
ATOM     18  C   UNL     1      33.842 -14.790 -24.262  0.00  0.00    -0.019 C 
BRANCH  18  19
ATOM     19  C   UNL     1      34.079 -16.277 -24.005  0.00  0.00    +0.045 C 
BRANCH  19  20
ATOM     20  C   UNL     1      35.010 -16.501 -22.821  0.00  0.00    +0.205 C 
BRANCH  20  21
ATOM     21  O   UNL     1      35.794 -17.667 -23.038  0.00  0.00    -0.475 OA
BRANCH  21  24
ATOM     22  O   UNL     1      32.636 -22.346 -18.707  0.00  0.00    -0.270 OA
ATOM     23  N   UNL     1      33.641 -20.827 -20.115  0.00  0.00    -0.280 N 
ATOM     24  C   UNL     1      35.863 -18.566 -22.005  0.00  0.00    +0.140 C 
ATOM     25  C   UNL     1      34.714 -19.230 -21.595  0.00  0.00    +0.052 C 
ATOM     26  C   UNL     1      34.796 -20.146 -20.543  0.00  0.00    +0.054 C 
ATOM     27  C   UNL     1      37.084 -18.802 -21.382  0.00  0.00    +0.037 C 
ATOM     28  C   UNL     1      36.016 -20.394 -19.905  0.00  0.00    +0.014 C 
ATOM     29  C   UNL     1      37.164 -19.718 -20.330  0.00  0.00    +0.004 C 
ATOM     30  C   UNL     1      36.058 -21.359 -18.809  0.00  0.00    +0.006 C 
ATOM     31  C   UNL     1      33.640 -21.746 -19.084  0.00  0.00    +0.250 C 
ATOM     32  C   UNL     1      34.947 -21.996 -18.419  0.00  0.00    +0.058 C 
ATOM     33  H   UNL     1      32.790 -20.639 -20.575  0.00  0.00    +0.155 HD
ENDBRANCH  21  24
ENDBRANCH  20  21
ENDBRANCH  19  20
ENDBRANCH  18  19
ENDBRANCH   1  18
TORSDOF 7
ENDMDL
MODEL 7
REMARK VINA RESULT:     -10.7      4.491     11.345
REMARK  Name = 11978813
REMARK  7 active torsions:
REMARK  status: ('A' for Active; 'I' for Inactive)
REMARK    1  A    between atoms: C_1  and  N_2
REMARK    2  A    between atoms: C_1  and  C_18
REMARK    3  A    between atoms: N_3  and  C_10
REMARK    4  A    between atoms: C_18  and  C_19
REMARK    5  A    between atoms: C_19  and  C_20
REMARK    6  A    between atoms: C_20  and  O_21
REMARK    7  A    between atoms: O_21  and  C_24
REMARK                            x       y       z     vdW  Elec       q    Type
REMARK                         _______ _______ _______ _____ _____    ______ ____
ROOT
ATOM      1  C   UNL     1      34.377 -16.222 -24.333  0.00  0.00    -0.077 C 
ENDROOT
BRANCH   1   2
ATOM      2  N   UNL     1      35.024 -17.249 -23.518  0.00  0.00    +0.389 N 
ATOM      3  N   UNL     1      35.238 -19.130 -21.379  0.00  0.00    -0.312 N 
ATOM      4  C   UNL     1      35.183 -16.785 -22.135  0.00  0.00    -0.055 C 
ATOM      5  C   UNL     1      34.245 -18.492 -23.542  0.00  0.00    -0.055 C 
ATOM      6  C   UNL     1      35.912 -17.829 -21.286  0.00  0.00    +0.068 C 
ATOM      7  C   UNL     1      34.941 -19.594 -22.738  0.00  0.00    +0.068 C 
ATOM      8  H   UNL     1      35.947 -17.432 -23.912  0.00  0.00    -0.080 HD
BRANCH   3  10
ATOM      9  S   UNL     1      33.266 -22.405 -18.067  0.00  0.00    -0.086 S 
ATOM     10  C   UNL     1      35.466 -20.063 -20.362  0.00  0.00    +0.048 C 
ATOM     11  C   UNL     1      34.397 -20.764 -19.714  0.00  0.00    +0.020 C 
ATOM     12  C   UNL     1      36.789 -20.334 -19.950  0.00  0.00    +0.015 C 
ATOM     13  C   UNL     1      34.697 -21.684 -18.703  0.00  0.00    +0.031 C 
ATOM     14  C   UNL     1      32.982 -20.680 -19.935  0.00  0.00    +0.009 C 
ATOM     15  C   UNL     1      37.062 -21.251 -18.945  0.00  0.00    +0.002 C 
ATOM     16  C   UNL     1      36.025 -21.938 -18.308  0.00  0.00    +0.007 C 
ATOM     17  C   UNL     1      32.261 -21.512 -19.114  0.00  0.00    +0.035 C 
ENDBRANCH   3  10
ENDBRANCH   1   2
BRANCH   1  18
ATOM     18  C   UNL     1      34.594 -14.840 -23.717  0.00  0.00    -0.019 C 
BRANCH  18  19
ATOM     19  C   UNL     1      33.272 -14.090 -23.564  0.00  0.00    +0.045 C 
BRANCH  19  20
ATOM     20  C   UNL     1      33.269 -13.204 -22.326  0.00  0.00    +0.205 C 
BRANCH  20  21
ATOM     21  O   UNL     1      32.022 -12.528 -22.220  0.00  0.00    -0.475 OA
BRANCH  21  24
ATOM     22  O   UNL     1      32.775  -5.457 -22.452  0.00  0.00    -0.270 OA
ATOM     23  N   UNL     1      32.536  -7.746 -22.394  0.00  0.00    -0.280 N 
ATOM     24  C   UNL     1      32.030 -11.312 -21.587  0.00  0.00    +0.140 C 
ATOM     25  C   UNL     1      32.281 -10.158 -22.320  0.00  0.00    +0.052 C 
ATOM     26  C   UNL     1      32.285  -8.924 -21.667  0.00  0.00    +0.054 C 
ATOM     27  C   UNL     1      31.787 -11.249 -20.219  0.00  0.00    +0.037 C 
ATOM     28  C   UNL     1      32.043  -8.843 -20.291  0.00  0.00    +0.014 C 
ATOM     29  C   UNL     1      31.792 -10.013 -19.567  0.00  0.00    +0.004 C 
ATOM     30  C   UNL     1      32.056  -7.533 -19.646  0.00  0.00    +0.006 C 
ATOM     31  C   UNL     1      32.557  -6.490 -21.822  0.00  0.00    +0.250 C 
ATOM     32  C   UNL     1      32.297  -6.425 -20.358  0.00  0.00    +0.058 C 
ATOM     33  H   UNL     1      32.706  -7.822 -23.362  0.00  0.00    +0.155 HD
ENDBRANCH  21  24
ENDBRANCH  20  21
ENDBRANCH  19  20
ENDBRANCH  18  19
ENDBRANCH   1  18
TORSDOF 7
ENDMDL
MODEL 8
REMARK VINA RESULT:     -10.6      4.039      7.379
REMARK  Name = 11978813
REMARK  7 active torsions:
REMARK  status: ('A' for Active; 'I' for Inactive)
REMARK    1  A    between atoms: C_1  and  N_2
REMARK    2  A    between atoms: C_1  and  C_18
REMARK    3  A    between atoms: N_3  and  C_10
REMARK    4  A    between atoms: C_18  and  C_19
REMARK    5  A    between atoms: C_19  and  C_20
REMARK    6  A    between atoms: C_20  and  O_21
REMARK    7  A    between atoms: O_21  and  C_24
REMARK                            x       y       z     vdW  Elec       q    Type
REMARK                         _______ _______ _______ _____ _____    ______ ____
ROOT
ATOM      1  C   UNL     1      31.630  -9.807 -20.369  0.00  0.00    -0.077 C 
ENDROOT
BRANCH   1   2
ATOM      2  N   UNL     1      32.411  -9.087 -21.373  0.00  0.00    +0.389 N 
ATOM      3  N   UNL     1      33.069  -6.902 -23.093  0.00  0.00    -0.312 N 
ATOM      4  C   UNL     1      31.591  -8.801 -22.557  0.00  0.00    -0.055 C 
ATOM      5  C   UNL     1      32.938  -7.835 -20.816  0.00  0.00    -0.055 C 
ATOM      6  C   UNL     1      32.414  -8.097 -23.638  0.00  0.00    +0.068 C 
ATOM      7  C   UNL     1      33.805  -7.098 -21.840  0.00  0.00    +0.068 C 
ATOM      8  H   UNL     1      33.195  -9.679 -21.651  0.00  0.00    -0.080 HD
BRANCH   3  10
ATOM      9  S   UNL     1      32.189  -2.349 -25.113  0.00  0.00    -0.086 S 
ATOM     10  C   UNL     1      33.476  -5.908 -23.989  0.00  0.00    +0.048 C 
ATOM     11  C   UNL     1      32.749  -4.685 -24.158  0.00  0.00    +0.020 C 
ATOM     12  C   UNL     1      34.644  -6.103 -24.759  0.00  0.00    +0.015 C 
ATOM     13  C   UNL     1      33.213  -3.734 -25.073  0.00  0.00    +0.031 C 
ATOM     14  C   UNL     1      31.548  -4.239 -23.511  0.00  0.00    +0.009 C 
ATOM     15  C   UNL     1      35.085  -5.145 -25.661  0.00  0.00    +0.002 C 
ATOM     16  C   UNL     1      34.381  -3.951 -25.831  0.00  0.00    +0.007 C 
ATOM     17  C   UNL     1      31.141  -2.997 -23.936  0.00  0.00    +0.035 C 
ENDBRANCH   3  10
ENDBRANCH   1   2
BRANCH   1  18
ATOM     18  C   UNL     1      30.974 -11.040 -20.990  0.00  0.00    -0.019 C 
BRANCH  18  19
ATOM     19  C   UNL     1      31.944 -12.220 -21.030  0.00  0.00    +0.045 C 
BRANCH  19  20
ATOM     20  C   UNL     1      32.392 -12.531 -22.452  0.00  0.00    +0.205 C 
BRANCH  20  21
ATOM     21  O   UNL     1      33.775 -12.861 -22.460  0.00  0.00    -0.475 OA
BRANCH  21  24
ATOM     22  O   UNL     1      36.273 -19.129 -20.204  0.00  0.00    -0.270 OA
ATOM     23  N   UNL     1      35.469 -17.093 -20.918  0.00  0.00    -0.280 N 
ATOM     24  C   UNL     1      34.097 -14.171 -22.706  0.00  0.00    +0.140 C 
ATOM     25  C   UNL     1      34.618 -14.953 -21.683  0.00  0.00    +0.052 C 
ATOM     26  C   UNL     1      34.941 -16.287 -21.943  0.00  0.00    +0.054 C 
ATOM     27  C   UNL     1      33.897 -14.699 -23.977  0.00  0.00    +0.037 C 
ATOM     28  C   UNL     1      34.747 -16.833 -23.216  0.00  0.00    +0.014 C 
ATOM     29  C   UNL     1      34.221 -16.033 -24.235  0.00  0.00    +0.004 C 
ATOM     30  C   UNL     1      35.097 -18.233 -23.447  0.00  0.00    +0.006 C 
ATOM     31  C   UNL     1      35.812 -18.419 -21.096  0.00  0.00    +0.250 C 
ATOM     32  C   UNL     1      35.598 -18.982 -22.456  0.00  0.00    +0.058 C 
ATOM     33  H   UNL     1      35.600 -16.691 -20.028  0.00  0.00    +0.155 HD
ENDBRANCH  21  24
ENDBRANCH  20  21
ENDBRANCH  19  20
ENDBRANCH  18  19
ENDBRANCH   1  18
TORSDOF 7
ENDMDL
MODEL 9
REMARK VINA RESULT:     -10.5      4.204     11.860
REMARK  Name = 11978813
REMARK  7 active torsions:
REMARK  status: ('A' for Active; 'I' for Inactive)
REMARK    1  A    between atoms: C_1  and  N_2
REMARK    2  A    between atoms: C_1  and  C_18
REMARK    3  A    between atoms: N_3  and  C_10
REMARK    4  A    between atoms: C_18  and  C_19
REMARK    5  A    between atoms: C_19  and  C_20
REMARK    6  A    between atoms: C_20  and  O_21
REMARK    7  A    between atoms: O_21  and  C_24
REMARK                            x       y       z     vdW  Elec       q    Type
REMARK                         _______ _______ _______ _____ _____    ______ ____
ROOT
ATOM      1  C   UNL     1      36.459 -21.562 -18.398  0.00  0.00    -0.077 C 
ENDROOT
BRANCH   1   2
ATOM      2  N   UNL     1      35.644 -22.502 -17.631  0.00  0.00    +0.389 N 
ATOM      3  N   UNL     1      33.542 -23.295 -15.866  0.00  0.00    -0.312 N 
ATOM      4  C   UNL     1      35.728 -22.206 -16.196  0.00  0.00    -0.055 C 
ATOM      5  C   UNL     1      34.244 -22.448 -18.070  0.00  0.00    -0.055 C 
ATOM      6  C   UNL     1      34.925 -23.219 -15.378  0.00  0.00    +0.068 C 
ATOM      7  C   UNL     1      33.390 -23.468 -17.314  0.00  0.00    +0.068 C 
ATOM      8  H   UNL     1      36.004 -23.442 -17.795  0.00  0.00    -0.080 HD
BRANCH   3  10
ATOM      9  S   UNL     1      28.625 -23.716 -14.754  0.00  0.00    -0.086 S 
ATOM     10  C   UNL     1      32.565 -23.799 -15.000  0.00  0.00    +0.048 C 
ATOM     11  C   UNL     1      31.166 -23.574 -15.212  0.00  0.00    +0.020 C 
ATOM     12  C   UNL     1      32.958 -24.556 -13.875  0.00  0.00    +0.015 C 
ATOM     13  C   UNL     1      30.243 -24.107 -14.306  0.00  0.00    +0.031 C 
ATOM     14  C   UNL     1      30.505 -22.851 -16.260  0.00  0.00    +0.009 C 
ATOM     15  C   UNL     1      32.023 -25.075 -12.989  0.00  0.00    +0.002 C 
ATOM     16  C   UNL     1      30.658 -24.860 -13.189  0.00  0.00    +0.007 C 
ATOM     17  C   UNL     1      29.137 -22.851 -16.130  0.00  0.00    +0.035 C 
ENDBRANCH   3  10
ENDBRANCH   1   2
BRANCH   1  18
ATOM     18  C   UNL     1      35.651 -20.980 -19.557  0.00  0.00    -0.019 C 
BRANCH  18  19
ATOM     19  C   UNL     1      36.433 -19.885 -20.280  0.00  0.00    +0.045 C 
BRANCH  19  20
ATOM     20  C   UNL     1      35.563 -19.146 -21.289  0.00  0.00    +0.205 C 
BRANCH  20  21
ATOM     21  O   UNL     1      35.783 -17.746 -21.180  0.00  0.00    -0.475 OA
BRANCH  21  24
ATOM     22  O   UNL     1      33.295 -11.438 -23.335  0.00  0.00    -0.270 OA
ATOM     23  N   UNL     1      34.102 -13.473 -22.621  0.00  0.00    -0.280 N 
ATOM     24  C   UNL     1      35.231 -16.956 -22.155  0.00  0.00    +0.140 C 
ATOM     25  C   UNL     1      34.952 -15.622 -21.881  0.00  0.00    +0.052 C 
ATOM     26  C   UNL     1      34.390 -14.825 -22.882  0.00  0.00    +0.054 C 
ATOM     27  C   UNL     1      34.957 -17.500 -23.406  0.00  0.00    +0.037 C 
ATOM     28  C   UNL     1      34.108 -15.357 -24.144  0.00  0.00    +0.014 C 
ATOM     29  C   UNL     1      34.395 -16.700 -24.405  0.00  0.00    +0.004 C 
ATOM     30  C   UNL     1      33.522 -14.489 -25.163  0.00  0.00    +0.006 C 
ATOM     31  C   UNL     1      33.548 -12.621 -23.556  0.00  0.00    +0.250 C 
ATOM     32  C   UNL     1      33.256 -13.205 -24.893  0.00  0.00    +0.058 C 
ATOM     33  H   UNL     1      34.306 -13.116 -21.726  0.00  0.00    +0.155 HD
ENDBRANCH  21  24
ENDBRANCH  20  21
ENDBRANCH  19  20
ENDBRANCH  18  19
ENDBRANCH   1  18
TORSDOF 7
ENDMDL
