MODEL 1
REMARK VINA RESULT:     -12.3      0.000      0.000
REMARK  Name = 59473233
REMARK  3 active torsions:
REMARK  status: ('A' for Active; 'I' for Inactive)
REMARK    1  A    between atoms: N_1  and  C_25
REMARK    2  A    between atoms: C_7  and  C_14
REMARK    3  A    between atoms: C_22  and  N_29
REMARK                            x       y       z     vdW  Elec       q    Type
REMARK                         _______ _______ _______ _____ _____    ______ ____
ROOT
ATOM      1  N   UNL     1      36.765 -23.018 -15.669  0.00  0.00    -0.286 N 
ATOM      2  N   UNL     1      35.335 -23.836 -12.355  0.00  0.00    -0.260 N 
ATOM      3  N   UNL     1      34.583 -23.514 -15.000  0.00  0.00    -0.387 NA
ATOM      4  N   UNL     1      37.471 -23.390 -12.815  0.00  0.00    -0.224 NA
ATOM      5  C   UNL     1      35.854 -23.346 -14.692  0.00  0.00    +0.216 C 
ATOM      6  C   UNL     1      36.262 -23.514 -13.312  0.00  0.00    +0.180 C 
ATOM      7  C   UNL     1      33.667 -23.848 -14.002  0.00  0.00    +0.131 C 
ATOM      8  C   UNL     1      34.011 -24.004 -12.704  0.00  0.00    +0.156 C 
ATOM      9  C   UNL     1      35.998 -23.923 -11.163  0.00  0.00    +0.088 C 
ATOM     10  C   UNL     1      37.312 -23.644 -11.473  0.00  0.00    +0.117 C 
ATOM     11  H   UNL     1      37.688 -23.333 -15.535  0.00  0.00    +0.155 HD
ENDROOT
BRANCH   7  14
ATOM     12  N   UNL     1      29.594 -22.766 -16.686  0.00  0.00    -0.236 N 
ATOM     13  N   UNL     1      28.337 -23.238 -16.728  0.00  0.00    -0.180 NA
ATOM     14  C   UNL     1      32.254 -24.010 -14.410  0.00  0.00    +0.028 C 
ATOM     15  C   UNL     1      30.395 -23.383 -15.762  0.00  0.00    +0.067 C 
ATOM     16  C   UNL     1      31.733 -23.189 -15.416  0.00  0.00    +0.018 C 
ATOM     17  C   UNL     1      29.586 -24.339 -15.157  0.00  0.00    +0.035 C 
ATOM     18  C   UNL     1      31.463 -24.976 -13.785  0.00  0.00    +0.002 C 
ATOM     19  C   UNL     1      30.123 -25.155 -14.147  0.00  0.00    +0.003 C 
ATOM     20  C   UNL     1      28.336 -24.195 -15.797  0.00  0.00    +0.119 C 
ATOM     21  H   UNL     1      29.911 -22.038 -17.267  0.00  0.00    +0.174 HD
ENDBRANCH   7  14
BRANCH   1  25
ATOM     22  C   UNL     1      36.021 -20.824 -19.151  0.00  0.00    +0.048 C 
ATOM     23  C   UNL     1      37.172 -20.575 -18.402  0.00  0.00    +0.016 C 
ATOM     24  C   UNL     1      35.119 -21.804 -18.737  0.00  0.00    +0.016 C 
ATOM     25  C   UNL     1      36.517 -22.286 -16.827  0.00  0.00    +0.050 C 
ATOM     26  C   UNL     1      37.420 -21.306 -17.239  0.00  0.00    +0.016 C 
ATOM     27  C   UNL     1      35.366 -22.535 -17.576  0.00  0.00    +0.016 C 
BRANCH  22  29
ATOM     28  O   UNL     1      35.221 -18.397 -22.489  0.00  0.00    -0.350 OA
ATOM     29  N   UNL     1      35.773 -20.090 -20.315  0.00  0.00    -0.303 N 
ATOM     30  C   UNL     1      36.682 -18.984 -20.645  0.00  0.00    +0.123 C 
ATOM     31  C   UNL     1      34.398 -19.935 -20.804  0.00  0.00    +0.123 C 
ATOM     32  C   UNL     1      36.578 -18.657 -22.130  0.00  0.00    +0.164 C 
ATOM     33  C   UNL     1      34.416 -19.556 -22.280  0.00  0.00    +0.164 C 
ENDBRANCH  22  29
ENDBRANCH   1  25
TORSDOF 3
ENDMDL
MODEL 2
REMARK VINA RESULT:      -9.9      2.533      7.104
REMARK  Name = 59473233
REMARK  3 active torsions:
REMARK  status: ('A' for Active; 'I' for Inactive)
REMARK    1  A    between atoms: N_1  and  C_25
REMARK    2  A    between atoms: C_7  and  C_14
REMARK    3  A    between atoms: C_22  and  N_29
REMARK                            x       y       z     vdW  Elec       q    Type
REMARK                         _______ _______ _______ _____ _____    ______ ____
ROOT
ATOM      1  N   UNL     1      33.995 -24.055 -12.801  0.00  0.00    -0.286 N 
ATOM      2  N   UNL     1      37.547 -24.745 -13.582  0.00  0.00    -0.260 N 
ATOM      3  N   UNL     1      35.416 -23.205 -14.449  0.00  0.00    -0.387 NA
ATOM      4  N   UNL     1      36.337 -25.658 -11.946  0.00  0.00    -0.224 NA
ATOM      5  C   UNL     1      35.225 -24.001 -13.416  0.00  0.00    +0.216 C 
ATOM      6  C   UNL     1      36.333 -24.812 -12.950  0.00  0.00    +0.180 C 
ATOM      7  C   UNL     1      36.667 -23.157 -15.065  0.00  0.00    +0.131 C 
ATOM      8  C   UNL     1      37.720 -23.904 -14.662  0.00  0.00    +0.156 C 
ATOM      9  C   UNL     1      38.386 -25.610 -12.937  0.00  0.00    +0.088 C 
ATOM     10  C   UNL     1      37.617 -26.160 -11.933  0.00  0.00    +0.117 C 
ATOM     11  H   UNL     1      33.992 -24.265 -11.839  0.00  0.00    +0.155 HD
ENDROOT
BRANCH   7  14
ATOM     12  N   UNL     1      35.500 -21.412 -19.598  0.00  0.00    -0.236 N 
ATOM     13  N   UNL     1      35.968 -20.424 -20.380  0.00  0.00    -0.180 NA
ATOM     14  C   UNL     1      36.814 -22.252 -16.226  0.00  0.00    +0.028 C 
ATOM     15  C   UNL     1      36.147 -21.530 -18.397  0.00  0.00    +0.067 C 
ATOM     16  C   UNL     1      35.966 -22.410 -17.328  0.00  0.00    +0.018 C 
ATOM     17  C   UNL     1      37.114 -20.531 -18.401  0.00  0.00    +0.035 C 
ATOM     18  C   UNL     1      37.795 -21.259 -16.206  0.00  0.00    +0.002 C 
ATOM     19  C   UNL     1      37.959 -20.386 -17.289  0.00  0.00    +0.003 C 
ATOM     20  C   UNL     1      36.949 -19.891 -19.649  0.00  0.00    +0.119 C 
ATOM     21  H   UNL     1      34.759 -22.000 -19.866  0.00  0.00    +0.174 HD
ENDBRANCH   7  14
BRANCH   1  25
ATOM     22  C   UNL     1      30.272 -23.413 -14.594  0.00  0.00    +0.048 C 
ATOM     23  C   UNL     1      30.365 -24.188 -13.438  0.00  0.00    +0.016 C 
ATOM     24  C   UNL     1      31.422 -22.854 -15.153  0.00  0.00    +0.016 C 
ATOM     25  C   UNL     1      32.756 -23.843 -13.399  0.00  0.00    +0.050 C 
ATOM     26  C   UNL     1      31.608 -24.403 -12.840  0.00  0.00    +0.016 C 
ATOM     27  C   UNL     1      32.663 -23.068 -14.556  0.00  0.00    +0.016 C 
BRANCH  22  29
ATOM     28  O   UNL     1      26.644 -22.556 -16.536  0.00  0.00    -0.350 OA
ATOM     29  N   UNL     1      29.027 -23.198 -15.193  0.00  0.00    -0.303 N 
ATOM     30  C   UNL     1      28.904 -23.429 -16.639  0.00  0.00    +0.123 C 
ATOM     31  C   UNL     1      28.113 -22.192 -14.641  0.00  0.00    +0.123 C 
ATOM     32  C   UNL     1      27.440 -23.645 -17.003  0.00  0.00    +0.164 C 
ATOM     33  C   UNL     1      26.691 -22.473 -15.113  0.00  0.00    +0.164 C 
ENDBRANCH  22  29
ENDBRANCH   1  25
TORSDOF 3
ENDMDL
MODEL 3
REMARK VINA RESULT:      -9.6      2.585      7.283
REMARK  Name = 59473233
REMARK  3 active torsions:
REMARK  status: ('A' for Active; 'I' for Inactive)
REMARK    1  A    between atoms: N_1  and  C_25
REMARK    2  A    between atoms: C_7  and  C_14
REMARK    3  A    between atoms: C_22  and  N_29
REMARK                            x       y       z     vdW  Elec       q    Type
REMARK                         _______ _______ _______ _____ _____    ______ ____
ROOT
ATOM      1  N   UNL     1      34.179 -23.501 -13.329  0.00  0.00    -0.286 N 
ATOM      2  N   UNL     1      37.678 -24.134 -14.356  0.00  0.00    -0.260 N 
ATOM      3  N   UNL     1      35.428 -22.727 -15.145  0.00  0.00    -0.387 NA
ATOM      4  N   UNL     1      36.641 -24.964 -12.564  0.00  0.00    -0.224 NA
ATOM      5  C   UNL     1      35.352 -23.453 -14.047  0.00  0.00    +0.216 C 
ATOM      6  C   UNL     1      36.523 -24.193 -13.621  0.00  0.00    +0.180 C 
ATOM      7  C   UNL     1      36.622 -22.684 -15.865  0.00  0.00    +0.131 C 
ATOM      8  C   UNL     1      37.731 -23.367 -15.502  0.00  0.00    +0.156 C 
ATOM      9  C   UNL     1      38.599 -24.923 -13.726  0.00  0.00    +0.088 C 
ATOM     10  C   UNL     1      37.936 -25.423 -12.625  0.00  0.00    +0.117 C 
ATOM     11  H   UNL     1      34.262 -23.642 -12.358  0.00  0.00    +0.155 HD
ENDROOT
BRANCH   7  14
ATOM     12  N   UNL     1      38.119 -18.865 -18.716  0.00  0.00    -0.236 N 
ATOM     13  N   UNL     1      37.828 -18.440 -19.957  0.00  0.00    -0.180 NA
ATOM     14  C   UNL     1      36.639 -21.861 -17.095  0.00  0.00    +0.028 C 
ATOM     15  C   UNL     1      37.445 -19.994 -18.336  0.00  0.00    +0.067 C 
ATOM     16  C   UNL     1      37.467 -20.735 -17.153  0.00  0.00    +0.018 C 
ATOM     17  C   UNL     1      36.650 -20.330 -19.426  0.00  0.00    +0.035 C 
ATOM     18  C   UNL     1      35.830 -22.219 -18.174  0.00  0.00    +0.002 C 
ATOM     19  C   UNL     1      35.823 -21.463 -19.353  0.00  0.00    +0.003 C 
ATOM     20  C   UNL     1      36.934 -19.333 -20.386  0.00  0.00    +0.119 C 
ATOM     21  H   UNL     1      38.761 -18.402 -18.130  0.00  0.00    +0.174 HD
ENDBRANCH   7  14
BRANCH   1  25
ATOM     22  C   UNL     1      30.301 -23.117 -14.844  0.00  0.00    +0.048 C 
ATOM     23  C   UNL     1      31.387 -23.190 -15.717  0.00  0.00    +0.016 C 
ATOM     24  C   UNL     1      30.509 -23.172 -13.466  0.00  0.00    +0.016 C 
ATOM     25  C   UNL     1      32.888 -23.372 -13.833  0.00  0.00    +0.050 C 
ATOM     26  C   UNL     1      32.681 -23.317 -15.211  0.00  0.00    +0.016 C 
ATOM     27  C   UNL     1      31.802 -23.299 -12.960  0.00  0.00    +0.016 C 
BRANCH  22  29
ATOM     28  O   UNL     1      26.488 -22.508 -16.508  0.00  0.00    -0.350 OA
ATOM     29  N   UNL     1      29.003 -22.990 -15.351  0.00  0.00    -0.303 N 
ATOM     30  C   UNL     1      28.802 -23.175 -16.795  0.00  0.00    +0.123 C 
ATOM     31  C   UNL     1      28.047 -22.089 -14.698  0.00  0.00    +0.123 C 
ATOM     32  C   UNL     1      27.340 -23.505 -17.072  0.00  0.00    +0.164 C 
ATOM     33  C   UNL     1      26.626 -22.475 -15.089  0.00  0.00    +0.164 C 
ENDBRANCH  22  29
ENDBRANCH   1  25
TORSDOF 3
ENDMDL
