MODEL 1
REMARK VINA RESULT:     -11.7      0.000      0.000
REMARK  Name = 24878044
REMARK  6 active torsions:
REMARK  status: ('A' for Active; 'I' for Inactive)
REMARK    1  A    between atoms: N_2  and  C_6
REMARK    2  A    between atoms: C_3  and  C_18
REMARK    3  A    between atoms: C_7  and  S_12
REMARK    4  A    between atoms: S_12  and  N_15
REMARK    5  A    between atoms: C_18  and  S_19
REMARK    6  A    between atoms: S_19  and  C_31
REMARK                            x       y       z     vdW  Elec       q    Type
REMARK                         _______ _______ _______ _____ _____    ______ ____
ROOT
ATOM      1  O   UNL     1      34.243 -19.321 -24.058  0.00  0.00    -0.274 OA
ATOM      2  N   UNL     1      34.781 -18.363 -21.981  0.00  0.00    -0.283 N 
ATOM      3  C   UNL     1      34.590 -18.373 -23.358  0.00  0.00    +0.238 C 
ATOM      4  H   UNL     1      35.075 -17.509 -21.589  0.00  0.00    +0.155 HD
ENDROOT
BRANCH   2   6
ATOM      5 CL   UNL     1      37.289 -19.426 -20.615  0.00  0.00    -0.081 Cl
ATOM      6  C   UNL     1      34.600 -19.438 -21.078  0.00  0.00    +0.061 C 
ATOM      7  C   UNL     1      34.174 -21.555 -19.312  0.00  0.00    +0.123 C 
ATOM      8  C   UNL     1      35.677 -20.005 -20.396  0.00  0.00    +0.072 C 
ATOM      9  C   UNL     1      33.310 -19.931 -20.878  0.00  0.00    +0.017 C 
ATOM     10  C   UNL     1      35.463 -21.063 -19.513  0.00  0.00    +0.033 C 
ATOM     11  C   UNL     1      33.097 -20.989 -19.994  0.00  0.00    +0.021 C 
BRANCH   7  12
ATOM     12  S   UNL     1      33.907 -22.880 -18.207  0.00  0.00    +0.057 S 
ATOM     13  O   UNL     1      33.849 -24.115 -18.976  0.00  0.00    -0.153 OA
ATOM     14  O   UNL     1      34.848 -22.759 -17.102  0.00  0.00    -0.153 OA
BRANCH  12  15
ATOM     15  N   UNL     1      32.339 -22.515 -17.634  0.00  0.00    -0.203 NA
ATOM     16  H   UNL     1      32.305 -22.655 -16.624  0.00  0.00    +0.144 HD
ATOM     17  H   UNL     1      31.660 -23.127 -18.086  0.00  0.00    +0.144 HD
ENDBRANCH  12  15
ENDBRANCH   7  12
ENDBRANCH   2   6
BRANCH   3  18
ATOM     18  C   UNL     1      34.885 -17.026 -23.981  0.00  0.00    +0.152 C 
BRANCH  18  19
ATOM     19  S   UNL     1      35.014 -15.792 -22.668  0.00  0.00    -0.047 S 
BRANCH  19  31
ATOM     20  O   UNL     1      33.600 -14.536 -24.460  0.00  0.00    -0.262 OA
ATOM     21  N   UNL     1      33.446 -13.611 -22.304  0.00  0.00    -0.250 N 
ATOM     22  C   UNL     1      32.010 -13.384 -20.284  0.00  0.00    +0.027 C 
ATOM     23  C   UNL     1      32.075 -11.872 -20.350  0.00  0.00    +0.029 C 
ATOM     24  C   UNL     1      33.276 -13.973 -20.881  0.00  0.00    +0.099 C 
ATOM     25  C   UNL     1      32.452 -11.404 -21.730  0.00  0.00    -0.009 C 
ATOM     26  C   UNL     1      33.115 -12.242 -22.657  0.00  0.00    +0.051 C 
ATOM     27  C   UNL     1      32.156 -10.069 -22.064  0.00  0.00    -0.007 C 
ATOM     28  C   UNL     1      33.475 -11.683 -23.897  0.00  0.00    +0.014 C 
ATOM     29  C   UNL     1      32.501  -9.551 -23.306  0.00  0.00    -0.022 C 
ATOM     30  C   UNL     1      33.165 -10.358 -24.220  0.00  0.00    -0.003 C 
ATOM     31  C   UNL     1      33.899 -14.540 -23.270  0.00  0.00    +0.280 C 
ATOM     32  C   UNL     1      32.149  -8.147 -23.660  0.00  0.00    +0.031 C 
ENDBRANCH  19  31
ENDBRANCH  18  19
ENDBRANCH   3  18
TORSDOF 6
ENDMDL
MODEL 2
REMARK VINA RESULT:     -11.5      0.952      2.205
REMARK  Name = 24878044
REMARK  6 active torsions:
REMARK  status: ('A' for Active; 'I' for Inactive)
REMARK    1  A    between atoms: N_2  and  C_6
REMARK    2  A    between atoms: C_3  and  C_18
REMARK    3  A    between atoms: C_7  and  S_12
REMARK    4  A    between atoms: S_12  and  N_15
REMARK    5  A    between atoms: C_18  and  S_19
REMARK    6  A    between atoms: S_19  and  C_31
REMARK                            x       y       z     vdW  Elec       q    Type
REMARK                         _______ _______ _______ _____ _____    ______ ____
ROOT
ATOM      1  O   UNL     1      34.178 -19.034 -23.988  0.00  0.00    -0.274 OA
ATOM      2  N   UNL     1      35.124 -18.303 -21.965  0.00  0.00    -0.283 N 
ATOM      3  C   UNL     1      34.777 -18.205 -23.308  0.00  0.00    +0.238 C 
ATOM      4  H   UNL     1      35.619 -17.540 -21.587  0.00  0.00    +0.155 HD
ENDROOT
BRANCH   2   6
ATOM      5 CL   UNL     1      37.500 -19.465 -20.452  0.00  0.00    -0.081 Cl
ATOM      6  C   UNL     1      34.846 -19.371 -21.079  0.00  0.00    +0.061 C 
ATOM      7  C   UNL     1      34.229 -21.472 -19.351  0.00  0.00    +0.123 C 
ATOM      8  C   UNL     1      35.855 -19.980 -20.334  0.00  0.00    +0.072 C 
ATOM      9  C   UNL     1      33.527 -19.813 -20.960  0.00  0.00    +0.017 C 
ATOM     10  C   UNL     1      35.546 -21.030 -19.470  0.00  0.00    +0.033 C 
ATOM     11  C   UNL     1      33.219 -20.863 -20.095  0.00  0.00    +0.021 C 
BRANCH   7  12
ATOM     12  S   UNL     1      33.842 -22.787 -18.269  0.00  0.00    +0.057 S 
ATOM     13  O   UNL     1      33.765 -24.015 -19.047  0.00  0.00    -0.153 OA
ATOM     14  O   UNL     1      34.729 -22.714 -17.116  0.00  0.00    -0.153 OA
BRANCH  12  15
ATOM     15  N   UNL     1      32.265 -22.348 -17.775  0.00  0.00    -0.203 NA
ATOM     16  H   UNL     1      31.652 -22.312 -18.589  0.00  0.00    +0.144 HD
ATOM     17  H   UNL     1      32.291 -21.432 -17.327  0.00  0.00    +0.144 HD
ENDBRANCH  12  15
ENDBRANCH   7  12
ENDBRANCH   2   6
BRANCH   3  18
ATOM     18  C   UNL     1      35.251 -16.906 -23.923  0.00  0.00    +0.152 C 
BRANCH  18  19
ATOM     19  S   UNL     1      33.815 -15.862 -24.258  0.00  0.00    -0.047 S 
BRANCH  19  31
ATOM     20  O   UNL     1      34.424 -15.026 -21.867  0.00  0.00    -0.262 OA
ATOM     21  N   UNL     1      33.466 -13.375 -23.239  0.00  0.00    -0.250 N 
ATOM     22  C   UNL     1      33.925 -11.348 -24.609  0.00  0.00    +0.027 C 
ATOM     23  C   UNL     1      32.912 -10.535 -23.831  0.00  0.00    +0.029 C 
ATOM     24  C   UNL     1      33.514 -12.811 -24.604  0.00  0.00    +0.099 C 
ATOM     25  C   UNL     1      32.635 -11.154 -22.487  0.00  0.00    -0.009 C 
ATOM     26  C   UNL     1      32.896 -12.517 -22.215  0.00  0.00    +0.051 C 
ATOM     27  C   UNL     1      32.058 -10.331 -21.502  0.00  0.00    -0.007 C 
ATOM     28  C   UNL     1      32.542 -13.006 -20.944  0.00  0.00    +0.014 C 
ATOM     29  C   UNL     1      31.741 -10.835 -20.247  0.00  0.00    -0.022 C 
ATOM     30  C   UNL     1      31.980 -12.174 -19.970  0.00  0.00    -0.003 C 
ATOM     31  C   UNL     1      33.948 -14.671 -22.941  0.00  0.00    +0.280 C 
ATOM     32  C   UNL     1      31.165  -9.943 -19.201  0.00  0.00    +0.031 C 
ENDBRANCH  19  31
ENDBRANCH  18  19
ENDBRANCH   3  18
TORSDOF 6
ENDMDL
MODEL 3
REMARK VINA RESULT:     -10.7      3.161      9.979
REMARK  Name = 24878044
REMARK  6 active torsions:
REMARK  status: ('A' for Active; 'I' for Inactive)
REMARK    1  A    between atoms: N_2  and  C_6
REMARK    2  A    between atoms: C_3  and  C_18
REMARK    3  A    between atoms: C_7  and  S_12
REMARK    4  A    between atoms: S_12  and  N_15
REMARK    5  A    between atoms: C_18  and  S_19
REMARK    6  A    between atoms: S_19  and  C_31
REMARK                            x       y       z     vdW  Elec       q    Type
REMARK                         _______ _______ _______ _____ _____    ______ ____
ROOT
ATOM      1  O   UNL     1      33.428 -14.491 -25.760  0.00  0.00    -0.274 OA
ATOM      2  N   UNL     1      33.715 -14.274 -23.438  0.00  0.00    -0.283 N 
ATOM      3  C   UNL     1      33.725 -14.942 -24.657  0.00  0.00    +0.238 C 
ATOM      4  H   UNL     1      33.973 -14.803 -22.649  0.00  0.00    +0.155 HD
ENDROOT
BRANCH   2   6
ATOM      5 CL   UNL     1      32.265 -13.671 -20.826  0.00  0.00    -0.081 Cl
ATOM      6  C   UNL     1      33.379 -12.919 -23.201  0.00  0.00    +0.061 C 
ATOM      7  C   UNL     1      32.747 -10.233 -22.797  0.00  0.00    +0.123 C 
ATOM      8  C   UNL     1      32.715 -12.527 -22.040  0.00  0.00    +0.072 C 
ATOM      9  C   UNL     1      33.727 -11.968 -24.161  0.00  0.00    +0.017 C 
ATOM     10  C   UNL     1      32.399 -11.183 -21.837  0.00  0.00    +0.033 C 
ATOM     11  C   UNL     1      33.411 -10.625 -23.959  0.00  0.00    +0.021 C 
BRANCH   7  12
ATOM     12  S   UNL     1      32.351  -8.551 -22.544  0.00  0.00    +0.057 S 
ATOM     13  O   UNL     1      33.550  -7.757 -22.770  0.00  0.00    -0.153 OA
ATOM     14  O   UNL     1      31.132  -8.247 -23.281  0.00  0.00    -0.153 OA
BRANCH  12  15
ATOM     15  N   UNL     1      31.996  -8.548 -20.872  0.00  0.00    -0.203 NA
ATOM     16  H   UNL     1      32.740  -9.029 -20.366  0.00  0.00    +0.144 HD
ATOM     17  H   UNL     1      31.110  -9.028 -20.711  0.00  0.00    +0.144 HD
ENDBRANCH  12  15
ENDBRANCH   7  12
ENDBRANCH   2   6
BRANCH   3  18
ATOM     18  C   UNL     1      34.142 -16.389 -24.506  0.00  0.00    +0.152 C 
BRANCH  18  19
ATOM     19  S   UNL     1      35.017 -16.584 -22.938  0.00  0.00    -0.047 S 
BRANCH  19  31
ATOM     20  O   UNL     1      33.771 -18.857 -23.197  0.00  0.00    -0.262 OA
ATOM     21  N   UNL     1      35.366 -18.835 -21.471  0.00  0.00    -0.250 N 
ATOM     22  C   UNL     1      37.640 -19.586 -20.790  0.00  0.00    +0.027 C 
ATOM     23  C   UNL     1      37.095 -20.274 -19.556  0.00  0.00    +0.029 C 
ATOM     24  C   UNL     1      36.747 -18.412 -21.153  0.00  0.00    +0.099 C 
ATOM     25  C   UNL     1      35.625 -20.564 -19.701  0.00  0.00    -0.009 C 
ATOM     26  C   UNL     1      34.803 -19.864 -20.615  0.00  0.00    +0.051 C 
ATOM     27  C   UNL     1      35.072 -21.543 -18.853  0.00  0.00    -0.007 C 
ATOM     28  C   UNL     1      33.430 -20.174 -20.624  0.00  0.00    +0.014 C 
ATOM     29  C   UNL     1      33.716 -21.845 -18.901  0.00  0.00    -0.022 C 
ATOM     30  C   UNL     1      32.896 -21.156 -19.784  0.00  0.00    -0.003 C 
ATOM     31  C   UNL     1      34.635 -18.278 -22.546  0.00  0.00    +0.280 C 
ATOM     32  C   UNL     1      33.152 -22.909 -18.024  0.00  0.00    +0.031 C 
ENDBRANCH  19  31
ENDBRANCH  18  19
ENDBRANCH   3  18
TORSDOF 6
ENDMDL
MODEL 4
REMARK VINA RESULT:     -10.5      5.907     12.014
REMARK  Name = 24878044
REMARK  6 active torsions:
REMARK  status: ('A' for Active; 'I' for Inactive)
REMARK    1  A    between atoms: N_2  and  C_6
REMARK    2  A    between atoms: C_3  and  C_18
REMARK    3  A    between atoms: C_7  and  S_12
REMARK    4  A    between atoms: S_12  and  N_15
REMARK    5  A    between atoms: C_18  and  S_19
REMARK    6  A    between atoms: S_19  and  C_31
REMARK                            x       y       z     vdW  Elec       q    Type
REMARK                         _______ _______ _______ _____ _____    ______ ____
ROOT
ATOM      1  O   UNL     1      31.875 -22.221 -17.666  0.00  0.00    -0.274 OA
ATOM      2  N   UNL     1      34.176 -22.585 -17.980  0.00  0.00    -0.283 N 
ATOM      3  C   UNL     1      32.919 -22.828 -17.438  0.00  0.00    +0.238 C 
ATOM      4  H   UNL     1      34.904 -23.169 -17.668  0.00  0.00    +0.155 HD
ENDROOT
BRANCH   2   6
ATOM      5 CL   UNL     1      37.111 -21.771 -18.068  0.00  0.00    -0.081 Cl
ATOM      6  C   UNL     1      34.528 -21.596 -18.929  0.00  0.00    +0.061 C 
ATOM      7  C   UNL     1      35.153 -19.644 -20.821  0.00  0.00    +0.123 C 
ATOM      8  C   UNL     1      35.841 -21.146 -19.059  0.00  0.00    +0.072 C 
ATOM      9  C   UNL     1      33.526 -21.069 -19.746  0.00  0.00    +0.017 C 
ATOM     10  C   UNL     1      36.154 -20.171 -20.005  0.00  0.00    +0.033 C 
ATOM     11  C   UNL     1      33.839 -20.093 -20.692  0.00  0.00    +0.021 C 
BRANCH   7  12
ATOM     12  S   UNL     1      35.545 -18.422 -22.006  0.00  0.00    +0.057 S 
ATOM     13  O   UNL     1      34.936 -18.799 -23.273  0.00  0.00    -0.153 OA
ATOM     14  O   UNL     1      35.266 -17.114 -21.430  0.00  0.00    -0.153 OA
BRANCH  12  15
ATOM     15  N   UNL     1      37.238 -18.618 -22.128  0.00  0.00    -0.203 NA
ATOM     16  H   UNL     1      37.495 -19.556 -21.818  0.00  0.00    +0.144 HD
ATOM     17  H   UNL     1      37.704 -17.927 -21.542  0.00  0.00    +0.144 HD
ENDBRANCH  12  15
ENDBRANCH   7  12
ENDBRANCH   2   6
BRANCH   3  18
ATOM     18  C   UNL     1      32.939 -23.976 -16.451  0.00  0.00    +0.152 C 
BRANCH  18  19
ATOM     19  S   UNL     1      33.013 -23.303 -14.776  0.00  0.00    -0.047 S 
BRANCH  19  31
ATOM     20  O   UNL     1      35.415 -22.420 -15.262  0.00  0.00    -0.262 OA
ATOM     21  N   UNL     1      35.313 -23.997 -13.521  0.00  0.00    -0.250 N 
ATOM     22  C   UNL     1      35.386 -24.312 -11.053  0.00  0.00    +0.027 C 
ATOM     23  C   UNL     1      36.527 -25.300 -11.165  0.00  0.00    +0.029 C 
ATOM     24  C   UNL     1      34.542 -24.365 -12.315  0.00  0.00    +0.099 C 
ATOM     25  C   UNL     1      37.257 -25.141 -12.473  0.00  0.00    -0.009 C 
ATOM     26  C   UNL     1      36.664 -24.522 -13.598  0.00  0.00    +0.051 C 
ATOM     27  C   UNL     1      38.557 -25.675 -12.557  0.00  0.00    -0.007 C 
ATOM     28  C   UNL     1      37.415 -24.482 -14.788  0.00  0.00    +0.014 C 
ATOM     29  C   UNL     1      39.284 -25.598 -13.739  0.00  0.00    -0.022 C 
ATOM     30  C   UNL     1      38.710 -25.006 -14.855  0.00  0.00    -0.003 C 
ATOM     31  C   UNL     1      34.773 -23.177 -14.540  0.00  0.00    +0.280 C 
ATOM     32  C   UNL     1      40.673 -26.134 -13.802  0.00  0.00    +0.031 C 
ENDBRANCH  19  31
ENDBRANCH  18  19
ENDBRANCH   3  18
TORSDOF 6
ENDMDL
MODEL 5
REMARK VINA RESULT:     -10.2      5.212      8.123
REMARK  Name = 24878044
REMARK  6 active torsions:
REMARK  status: ('A' for Active; 'I' for Inactive)
REMARK    1  A    between atoms: N_2  and  C_6
REMARK    2  A    between atoms: C_3  and  C_18
REMARK    3  A    between atoms: C_7  and  S_12
REMARK    4  A    between atoms: S_12  and  N_15
REMARK    5  A    between atoms: C_18  and  S_19
REMARK    6  A    between atoms: S_19  and  C_31
REMARK                            x       y       z     vdW  Elec       q    Type
REMARK                         _______ _______ _______ _____ _____    ______ ____
ROOT
ATOM      1  O   UNL     1      32.257 -23.376 -15.319  0.00  0.00    -0.274 OA
ATOM      2  N   UNL     1      34.465 -23.235 -16.112  0.00  0.00    -0.283 N 
ATOM      3  C   UNL     1      33.079 -23.183 -16.211  0.00  0.00    +0.238 C 
ATOM      4  H   UNL     1      34.967 -23.064 -16.941  0.00  0.00    +0.155 HD
ENDROOT
BRANCH   2   6
ATOM      5 CL   UNL     1      37.215 -21.931 -15.980  0.00  0.00    -0.081 Cl
ATOM      6  C   UNL     1      35.236 -23.505 -14.956  0.00  0.00    +0.061 C 
ATOM      7  C   UNL     1      36.702 -24.077 -12.653  0.00  0.00    +0.123 C 
ATOM      8  C   UNL     1      36.509 -22.962 -14.788  0.00  0.00    +0.072 C 
ATOM      9  C   UNL     1      34.696 -24.335 -13.973  0.00  0.00    +0.017 C 
ATOM     10  C   UNL     1      37.242 -23.248 -13.636  0.00  0.00    +0.033 C 
ATOM     11  C   UNL     1      35.429 -24.621 -12.821  0.00  0.00    +0.021 C 
BRANCH   7  12
ATOM     12  S   UNL     1      37.620 -24.435 -11.211  0.00  0.00    +0.057 S 
ATOM     13  O   UNL     1      37.971 -25.848 -11.229  0.00  0.00    -0.153 OA
ATOM     14  O   UNL     1      38.665 -23.431 -11.067  0.00  0.00    -0.153 OA
BRANCH  12  15
ATOM     15  N   UNL     1      36.440 -24.176 -10.002  0.00  0.00    -0.203 NA
ATOM     16  H   UNL     1      35.596 -24.700 -10.234  0.00  0.00    +0.144 HD
ATOM     17  H   UNL     1      36.220 -23.182  -9.949  0.00  0.00    +0.144 HD
ENDBRANCH  12  15
ENDBRANCH   7  12
ENDBRANCH   2   6
BRANCH   3  18
ATOM     18  C   UNL     1      32.623 -22.864 -17.619  0.00  0.00    +0.152 C 
BRANCH  18  19
ATOM     19  S   UNL     1      34.070 -22.791 -18.698  0.00  0.00    -0.047 S 
BRANCH  19  31
ATOM     20  O   UNL     1      32.705 -20.735 -19.531  0.00  0.00    -0.262 OA
ATOM     21  N   UNL     1      35.009 -20.594 -19.975  0.00  0.00    -0.250 N 
ATOM     22  C   UNL     1      37.152 -19.528 -19.292  0.00  0.00    +0.027 C 
ATOM     23  C   UNL     1      37.392 -19.002 -20.691  0.00  0.00    +0.029 C 
ATOM     24  C   UNL     1      36.337 -20.808 -19.363  0.00  0.00    +0.099 C 
ATOM     25  C   UNL     1      36.108 -18.942 -21.476  0.00  0.00    -0.009 C 
ATOM     26  C   UNL     1      34.975 -19.714 -21.129  0.00  0.00    +0.051 C 
ATOM     27  C   UNL     1      36.082 -18.110 -22.611  0.00  0.00    -0.007 C 
ATOM     28  C   UNL     1      33.848 -19.626 -21.968  0.00  0.00    +0.014 C 
ATOM     29  C   UNL     1      34.946 -18.025 -23.407  0.00  0.00    -0.022 C 
ATOM     30  C   UNL     1      33.831 -18.787 -23.087  0.00  0.00    -0.003 C 
ATOM     31  C   UNL     1      33.838 -21.203 -19.467  0.00  0.00    +0.280 C 
ATOM     32  C   UNL     1      34.920 -17.112 -24.584  0.00  0.00    +0.031 C 
ENDBRANCH  19  31
ENDBRANCH  18  19
ENDBRANCH   3  18
TORSDOF 6
ENDMDL
MODEL 6
REMARK VINA RESULT:     -10.1      4.492      6.821
REMARK  Name = 24878044
REMARK  6 active torsions:
REMARK  status: ('A' for Active; 'I' for Inactive)
REMARK    1  A    between atoms: N_2  and  C_6
REMARK    2  A    between atoms: C_3  and  C_18
REMARK    3  A    between atoms: C_7  and  S_12
REMARK    4  A    between atoms: S_12  and  N_15
REMARK    5  A    between atoms: C_18  and  S_19
REMARK    6  A    between atoms: S_19  and  C_31
REMARK                            x       y       z     vdW  Elec       q    Type
REMARK                         _______ _______ _______ _____ _____    ______ ____
ROOT
ATOM      1  O   UNL     1      35.071 -22.575 -17.694  0.00  0.00    -0.274 OA
ATOM      2  N   UNL     1      37.076 -22.103 -16.562  0.00  0.00    -0.283 N 
ATOM      3  C   UNL     1      36.172 -22.035 -17.617  0.00  0.00    +0.238 C 
ATOM      4  H   UNL     1      37.922 -21.613 -16.682  0.00  0.00    +0.155 HD
ENDROOT
BRANCH   2   6
ATOM      5 CL   UNL     1      39.433 -23.805 -15.650  0.00  0.00    -0.081 Cl
ATOM      6  C   UNL     1      36.919 -22.793 -15.336  0.00  0.00    +0.061 C 
ATOM      7  C   UNL     1      36.544 -24.124 -12.914  0.00  0.00    +0.123 C 
ATOM      8  C   UNL     1      37.932 -23.601 -14.821  0.00  0.00    +0.072 C 
ATOM      9  C   UNL     1      35.718 -22.651 -14.640  0.00  0.00    +0.017 C 
ATOM     10  C   UNL     1      37.745 -24.266 -13.610  0.00  0.00    +0.033 C 
ATOM     11  C   UNL     1      35.531 -23.316 -13.429  0.00  0.00    +0.021 C 
BRANCH   7  12
ATOM     12  S   UNL     1      36.309 -24.957 -11.398  0.00  0.00    +0.057 S 
ATOM     13  O   UNL     1      37.217 -24.385 -10.413  0.00  0.00    -0.153 OA
ATOM     14  O   UNL     1      34.881 -25.016 -11.118  0.00  0.00    -0.153 OA
BRANCH  12  15
ATOM     15  N   UNL     1      36.854 -26.526 -11.801  0.00  0.00    -0.203 NA
ATOM     16  H   UNL     1      36.343 -27.216 -11.249  0.00  0.00    +0.144 HD
ATOM     17  H   UNL     1      37.851 -26.602 -11.602  0.00  0.00    +0.144 HD
ENDBRANCH  12  15
ENDBRANCH   7  12
ENDBRANCH   2   6
BRANCH   3  18
ATOM     18  C   UNL     1      36.699 -21.197 -18.762  0.00  0.00    +0.152 C 
BRANCH  18  19
ATOM     19  S   UNL     1      35.347 -20.867 -19.913  0.00  0.00    -0.047 S 
BRANCH  19  31
ATOM     20  O   UNL     1      36.705 -18.645 -19.984  0.00  0.00    -0.262 OA
ATOM     21  N   UNL     1      35.170 -18.881 -21.748  0.00  0.00    -0.250 N 
ATOM     22  C   UNL     1      34.916 -19.389 -24.171  0.00  0.00    +0.027 C 
ATOM     23  C   UNL     1      34.186 -18.085 -24.417  0.00  0.00    +0.029 C 
ATOM     24  C   UNL     1      34.668 -19.849 -22.745  0.00  0.00    +0.099 C 
ATOM     25  C   UNL     1      34.473 -17.088 -23.326  0.00  0.00    -0.009 C 
ATOM     26  C   UNL     1      34.937 -17.479 -22.048  0.00  0.00    +0.051 C 
ATOM     27  C   UNL     1      34.222 -15.731 -23.606  0.00  0.00    -0.007 C 
ATOM     28  C   UNL     1      35.114 -16.470 -21.084  0.00  0.00    +0.014 C 
ATOM     29  C   UNL     1      34.430 -14.753 -22.641  0.00  0.00    -0.022 C 
ATOM     30  C   UNL     1      34.871 -15.124 -21.379  0.00  0.00    -0.003 C 
ATOM     31  C   UNL     1      35.842 -19.289 -20.572  0.00  0.00    +0.280 C 
ATOM     32  C   UNL     1      34.195 -13.318 -22.964  0.00  0.00    +0.031 C 
ENDBRANCH  19  31
ENDBRANCH  18  19
ENDBRANCH   3  18
TORSDOF 6
ENDMDL
MODEL 7
REMARK VINA RESULT:     -10.1      5.949     10.770
REMARK  Name = 24878044
REMARK  6 active torsions:
REMARK  status: ('A' for Active; 'I' for Inactive)
REMARK    1  A    between atoms: N_2  and  C_6
REMARK    2  A    between atoms: C_3  and  C_18
REMARK    3  A    between atoms: C_7  and  S_12
REMARK    4  A    between atoms: S_12  and  N_15
REMARK    5  A    between atoms: C_18  and  S_19
REMARK    6  A    between atoms: S_19  and  C_31
REMARK                            x       y       z     vdW  Elec       q    Type
REMARK                         _______ _______ _______ _____ _____    ______ ____
ROOT
ATOM      1  O   UNL     1      37.392 -21.051 -16.199  0.00  0.00    -0.274 OA
ATOM      2  N   UNL     1      36.103 -22.269 -17.742  0.00  0.00    -0.283 N 
ATOM      3  C   UNL     1      36.806 -22.069 -16.559  0.00  0.00    +0.238 C 
ATOM      4  H   UNL     1      35.706 -23.161 -17.867  0.00  0.00    +0.155 HD
ENDROOT
BRANCH   2   6
ATOM      5 CL   UNL     1      33.233 -21.943 -18.711  0.00  0.00    -0.081 Cl
ATOM      6  C   UNL     1      35.892 -21.337 -18.786  0.00  0.00    +0.061 C 
ATOM      7  C   UNL     1      35.546 -19.485 -20.843  0.00  0.00    +0.123 C 
ATOM      8  C   UNL     1      34.621 -21.106 -19.308  0.00  0.00    +0.072 C 
ATOM      9  C   UNL     1      36.992 -20.642 -19.292  0.00  0.00    +0.017 C 
ATOM     10  C   UNL     1      34.447 -20.179 -20.337  0.00  0.00    +0.033 C 
ATOM     11  C   UNL     1      36.819 -19.716 -20.321  0.00  0.00    +0.021 C 
BRANCH   7  12
ATOM     12  S   UNL     1      35.330 -18.326 -22.131  0.00  0.00    +0.057 S 
ATOM     13  O   UNL     1      34.324 -18.841 -23.048  0.00  0.00    -0.153 OA
ATOM     14  O   UNL     1      35.163 -17.005 -21.541  0.00  0.00    -0.153 OA
BRANCH  12  15
ATOM     15  N   UNL     1      36.858 -18.397 -22.893  0.00  0.00    -0.203 NA
ATOM     16  H   UNL     1      37.538 -18.806 -22.251  0.00  0.00    +0.144 HD
ATOM     17  H   UNL     1      37.155 -17.456 -23.150  0.00  0.00    +0.144 HD
ENDBRANCH  12  15
ENDBRANCH   7  12
ENDBRANCH   2   6
BRANCH   3  18
ATOM     18  C   UNL     1      36.812 -23.307 -15.687  0.00  0.00    +0.152 C 
BRANCH  18  19
ATOM     19  S   UNL     1      35.574 -23.110 -14.386  0.00  0.00    -0.047 S 
BRANCH  19  31
ATOM     20  O   UNL     1      34.151 -23.821 -16.449  0.00  0.00    -0.262 OA
ATOM     21  N   UNL     1      32.959 -23.817 -14.423  0.00  0.00    -0.250 N 
ATOM     22  C   UNL     1      31.988 -25.245 -12.629  0.00  0.00    +0.027 C 
ATOM     23  C   UNL     1      30.615 -24.638 -12.823  0.00  0.00    +0.029 C 
ATOM     24  C   UNL     1      33.052 -24.228 -13.006  0.00  0.00    +0.099 C 
ATOM     25  C   UNL     1      30.489 -24.002 -14.182  0.00  0.00    -0.009 C 
ATOM     26  C   UNL     1      31.617 -23.605 -14.937  0.00  0.00    +0.051 C 
ATOM     27  C   UNL     1      29.189 -23.770 -14.670  0.00  0.00    -0.007 C 
ATOM     28  C   UNL     1      31.383 -22.964 -16.168  0.00  0.00    +0.014 C 
ATOM     29  C   UNL     1      28.989 -23.156 -15.901  0.00  0.00    -0.022 C 
ATOM     30  C   UNL     1      30.086 -22.750 -16.646  0.00  0.00    -0.003 C 
ATOM     31  C   UNL     1      34.104 -23.646 -15.235  0.00  0.00    +0.280 C 
ATOM     32  C   UNL     1      27.608 -22.951 -16.421  0.00  0.00    +0.031 C 
ENDBRANCH  19  31
ENDBRANCH  18  19
ENDBRANCH   3  18
TORSDOF 6
ENDMDL
MODEL 8
REMARK VINA RESULT:      -9.8      4.046     11.155
REMARK  Name = 24878044
REMARK  6 active torsions:
REMARK  status: ('A' for Active; 'I' for Inactive)
REMARK    1  A    between atoms: N_2  and  C_6
REMARK    2  A    between atoms: C_3  and  C_18
REMARK    3  A    between atoms: C_7  and  S_12
REMARK    4  A    between atoms: S_12  and  N_15
REMARK    5  A    between atoms: C_18  and  S_19
REMARK    6  A    between atoms: S_19  and  C_31
REMARK                            x       y       z     vdW  Elec       q    Type
REMARK                         _______ _______ _______ _____ _____    ______ ____
ROOT
ATOM      1  O   UNL     1      34.165 -19.945 -20.699  0.00  0.00    -0.274 OA
ATOM      2  N   UNL     1      35.917 -18.378 -20.718  0.00  0.00    -0.283 N 
ATOM      3  C   UNL     1      35.322 -19.609 -20.462  0.00  0.00    +0.238 C 
ATOM      4  H   UNL     1      36.858 -18.285 -20.446  0.00  0.00    +0.155 HD
ENDROOT
BRANCH   2   6
ATOM      5 CL   UNL     1      35.442 -18.544 -23.723  0.00  0.00    -0.081 Cl
ATOM      6  C   UNL     1      35.325 -17.246 -21.326  0.00  0.00    +0.061 C 
ATOM      7  C   UNL     1      34.154 -14.982 -22.461  0.00  0.00    +0.123 C 
ATOM      8  C   UNL     1      35.060 -17.210 -22.695  0.00  0.00    +0.072 C 
ATOM      9  C   UNL     1      35.004 -16.149 -20.525  0.00  0.00    +0.017 C 
ATOM     10  C   UNL     1      34.475 -16.078 -23.262  0.00  0.00    +0.033 C 
ATOM     11  C   UNL     1      34.419 -15.018 -21.092  0.00  0.00    +0.021 C 
BRANCH   7  12
ATOM     12  S   UNL     1      33.422 -13.565 -23.171  0.00  0.00    +0.057 S 
ATOM     13  O   UNL     1      32.213 -13.249 -22.424  0.00  0.00    -0.153 OA
ATOM     14  O   UNL     1      34.452 -12.550 -23.345  0.00  0.00    -0.153 OA
BRANCH  12  15
ATOM     15  N   UNL     1      32.978 -14.165 -24.709  0.00  0.00    -0.203 NA
ATOM     16  H   UNL     1      32.727 -15.151 -24.629  0.00  0.00    +0.144 HD
ATOM     17  H   UNL     1      33.761 -14.064 -25.353  0.00  0.00    +0.144 HD
ENDBRANCH  12  15
ENDBRANCH   7  12
ENDBRANCH   2   6
BRANCH   3  18
ATOM     18  C   UNL     1      36.280 -20.574 -19.796  0.00  0.00    +0.152 C 
BRANCH  18  19
ATOM     19  S   UNL     1      35.332 -21.927 -19.066  0.00  0.00    -0.047 S 
BRANCH  19  31
ATOM     20  O   UNL     1      36.939 -21.222 -17.141  0.00  0.00    -0.262 OA
ATOM     21  N   UNL     1      35.320 -22.802 -16.502  0.00  0.00    -0.250 N 
ATOM     22  C   UNL     1      33.184 -23.143 -15.270  0.00  0.00    +0.027 C 
ATOM     23  C   UNL     1      33.804 -24.214 -14.397  0.00  0.00    +0.029 C 
ATOM     24  C   UNL     1      33.882 -23.122 -16.619  0.00  0.00    +0.099 C 
ATOM     25  C   UNL     1      35.305 -24.098 -14.378  0.00  0.00    -0.009 C 
ATOM     26  C   UNL     1      36.023 -23.426 -15.395  0.00  0.00    +0.051 C 
ATOM     27  C   UNL     1      35.990 -24.726 -13.321  0.00  0.00    -0.007 C 
ATOM     28  C   UNL     1      37.428 -23.431 -15.311  0.00  0.00    +0.014 C 
ATOM     29  C   UNL     1      37.378 -24.694 -13.251  0.00  0.00    -0.022 C 
ATOM     30  C   UNL     1      38.096 -24.050 -14.249  0.00  0.00    -0.003 C 
ATOM     31  C   UNL     1      35.977 -21.935 -17.407  0.00  0.00    +0.280 C 
ATOM     32  C   UNL     1      38.087 -25.331 -12.106  0.00  0.00    +0.031 C 
ENDBRANCH  19  31
ENDBRANCH  18  19
ENDBRANCH   3  18
TORSDOF 6
ENDMDL
MODEL 9
REMARK VINA RESULT:      -9.7      3.534     10.478
REMARK  Name = 24878044
REMARK  6 active torsions:
REMARK  status: ('A' for Active; 'I' for Inactive)
REMARK    1  A    between atoms: N_2  and  C_6
REMARK    2  A    between atoms: C_3  and  C_18
REMARK    3  A    between atoms: C_7  and  S_12
REMARK    4  A    between atoms: S_12  and  N_15
REMARK    5  A    between atoms: C_18  and  S_19
REMARK    6  A    between atoms: S_19  and  C_31
REMARK                            x       y       z     vdW  Elec       q    Type
REMARK                         _______ _______ _______ _____ _____    ______ ____
ROOT
ATOM      1  O   UNL     1      34.084 -19.885 -20.273  0.00  0.00    -0.274 OA
ATOM      2  N   UNL     1      35.822 -18.975 -21.567  0.00  0.00    -0.283 N 
ATOM      3  C   UNL     1      35.215 -19.922 -20.750  0.00  0.00    +0.238 C 
ATOM      4  H   UNL     1      36.747 -19.168 -21.845  0.00  0.00    +0.155 HD
ENDROOT
BRANCH   2   6
ATOM      5 CL   UNL     1      34.637 -19.042 -24.373  0.00  0.00    -0.081 Cl
ATOM      6  C   UNL     1      35.264 -17.765 -22.045  0.00  0.00    +0.061 C 
ATOM      7  C   UNL     1      34.180 -15.350 -22.925  0.00  0.00    +0.123 C 
ATOM      8  C   UNL     1      34.694 -17.679 -23.314  0.00  0.00    +0.072 C 
ATOM      9  C   UNL     1      35.293 -16.644 -21.215  0.00  0.00    +0.017 C 
ATOM     10  C   UNL     1      34.151 -16.471 -23.754  0.00  0.00    +0.033 C 
ATOM     11  C   UNL     1      34.750 -15.436 -21.655  0.00  0.00    +0.021 C 
BRANCH   7  12
ATOM     12  S   UNL     1      33.501 -13.839 -23.475  0.00  0.00    +0.057 S 
ATOM     13  O   UNL     1      32.319 -13.547 -22.677  0.00  0.00    -0.153 OA
ATOM     14  O   UNL     1      34.573 -12.857 -23.567  0.00  0.00    -0.153 OA
BRANCH  12  15
ATOM     15  N   UNL     1      33.007 -14.261 -25.056  0.00  0.00    -0.203 NA
ATOM     16  H   UNL     1      33.825 -14.322 -25.662  0.00  0.00    +0.144 HD
ATOM     17  H   UNL     1      32.370 -13.550 -25.415  0.00  0.00    +0.144 HD
ENDBRANCH  12  15
ENDBRANCH   7  12
ENDBRANCH   2   6
BRANCH   3  18
ATOM     18  C   UNL     1      36.135 -21.087 -20.452  0.00  0.00    +0.152 C 
BRANCH  18  19
ATOM     19  S   UNL     1      36.409 -21.173 -18.669  0.00  0.00    -0.047 S 
BRANCH  19  31
ATOM     20  O   UNL     1      34.487 -22.885 -19.069  0.00  0.00    -0.262 OA
ATOM     21  N   UNL     1      35.107 -22.657 -16.813  0.00  0.00    -0.250 N 
ATOM     22  C   UNL     1      36.332 -23.715 -14.922  0.00  0.00    +0.027 C 
ATOM     23  C   UNL     1      35.105 -23.666 -14.037  0.00  0.00    +0.029 C 
ATOM     24  C   UNL     1      36.283 -22.572 -15.922  0.00  0.00    +0.099 C 
ATOM     25  C   UNL     1      33.849 -23.541 -14.857  0.00  0.00    -0.009 C 
ATOM     26  C   UNL     1      33.859 -23.049 -16.183  0.00  0.00    +0.051 C 
ATOM     27  C   UNL     1      32.634 -23.894 -14.239  0.00  0.00    -0.007 C 
ATOM     28  C   UNL     1      32.619 -22.916 -16.836  0.00  0.00    +0.014 C 
ATOM     29  C   UNL     1      31.428 -23.775 -14.917  0.00  0.00    -0.022 C 
ATOM     30  C   UNL     1      31.421 -23.282 -16.214  0.00  0.00    -0.003 C 
ATOM     31  C   UNL     1      35.188 -22.380 -18.198  0.00  0.00    +0.280 C 
ATOM     32  C   UNL     1      30.154 -24.189 -14.263  0.00  0.00    +0.031 C 
ENDBRANCH  19  31
ENDBRANCH  18  19
ENDBRANCH   3  18
TORSDOF 6
ENDMDL
