MODEL 1
REMARK VINA RESULT:     -14.0      0.000      0.000
REMARK  Name = 89670174
REMARK  4 active torsions:
REMARK  status: ('A' for Active; 'I' for Inactive)
REMARK    1  A    between atoms: C_3  and  C_13
REMARK    2  A    between atoms: C_9  and  O_26
REMARK    3  A    between atoms: C_18  and  C_25
REMARK    4  A    between atoms: O_26  and  C_30
REMARK                            x       y       z     vdW  Elec       q    Type
REMARK                         _______ _______ _______ _____ _____    ______ ____
ROOT
ATOM      1  O   UNL     1      34.610 -19.645 -23.457  0.00  0.00    -0.479 OA
ATOM      2  C   UNL     1      35.597 -18.776 -21.395  0.00  0.00    +0.072 C 
ATOM      3  C   UNL     1      34.574 -19.784 -20.894  0.00  0.00    +0.085 C 
ATOM      4  C   UNL     1      35.290 -20.031 -22.204  0.00  0.00    +0.174 C 
ATOM      5  C   UNL     1      35.189 -17.698 -22.331  0.00  0.00    +0.018 C 
ATOM      6  C   UNL     1      34.643 -18.259 -23.493  0.00  0.00    +0.135 C 
ATOM      7  C   UNL     1      35.273 -16.319 -22.216  0.00  0.00    +0.036 C 
ATOM      8  C   UNL     1      34.171 -17.497 -24.544  0.00  0.00    +0.040 C 
ATOM      9  C   UNL     1      34.804 -15.526 -23.269  0.00  0.00    +0.145 C 
ATOM     10  C   UNL     1      34.258 -16.111 -24.424  0.00  0.00    +0.041 C 
ENDROOT
BRANCH   3  13
ATOM     11  N   UNL     1      36.131 -20.710 -19.107  0.00  0.00    -0.318 N 
ATOM     12  N   UNL     1      34.017 -21.395 -19.070  0.00  0.00    -0.318 N 
ATOM     13  C   UNL     1      34.894 -20.637 -19.686  0.00  0.00    +0.148 C 
ATOM     14  C   UNL     1      36.045 -21.574 -18.045  0.00  0.00    +0.059 C 
ATOM     15  C   UNL     1      34.716 -21.988 -18.042  0.00  0.00    +0.059 C 
ATOM     16  C   UNL     1      36.987 -22.016 -17.115  0.00  0.00    +0.019 C 
ATOM     17  C   UNL     1      34.283 -22.896 -17.062  0.00  0.00    +0.016 C 
ATOM     18  C   UNL     1      36.539 -22.920 -16.146  0.00  0.00    +0.073 C 
ATOM     19  C   UNL     1      35.212 -23.353 -16.118  0.00  0.00    +0.005 C 
ATOM     20  H   UNL     1      36.939 -20.230 -19.400  0.00  0.00    +0.148 HD
ATOM     21  H   UNL     1      33.065 -21.514 -19.293  0.00  0.00    +0.148 HD
BRANCH  18  25
ATOM     22  F   UNL     1      38.804 -23.365 -15.520  0.00  0.00    -0.166 F 
ATOM     23  F   UNL     1      37.453 -22.740 -13.942  0.00  0.00    -0.166 F 
ATOM     24  F   UNL     1      37.276 -24.732 -14.796  0.00  0.00    -0.166 F 
ATOM     25  C   UNL     1      37.499 -23.426 -15.121  0.00  0.00    +0.419 C 
ENDBRANCH  18  25
ENDBRANCH   3  13
BRANCH   9  26
ATOM     26  O   UNL     1      34.878 -14.147 -23.172  0.00  0.00    -0.454 OA
BRANCH  26  30
ATOM     27  O   UNL     1      31.940  -8.554 -23.678  0.00  0.00    -0.275 OA
ATOM     28  N   UNL     1      31.937 -10.424 -22.344  0.00  0.00    -0.270 N 
ATOM     29  N   UNL     1      31.946 -12.289 -20.890  0.00  0.00    -0.229 NA
ATOM     30  C   UNL     1      33.931 -13.514 -22.424  0.00  0.00    +0.146 C 
ATOM     31  C   UNL     1      33.447 -12.255 -22.784  0.00  0.00    +0.045 C 
ATOM     32  C   UNL     1      33.884 -11.580 -24.048  0.00  0.00    +0.042 C 
ATOM     33  C   UNL     1      33.436 -14.148 -21.290  0.00  0.00    +0.058 C 
ATOM     34  C   UNL     1      32.458 -11.681 -21.986  0.00  0.00    +0.133 C 
ATOM     35  C   UNL     1      33.784 -10.068 -23.916  0.00  0.00    +0.090 C 
ATOM     36  C   UNL     1      32.457  -9.618 -23.338  0.00  0.00    +0.227 C 
ATOM     37  C   UNL     1      32.451 -13.500 -20.567  0.00  0.00    +0.103 C 
ATOM     38  H   UNL     1      31.149 -10.095 -21.853  0.00  0.00    +0.156 HD
ENDBRANCH  26  30
ENDBRANCH   9  26
TORSDOF 4
ENDMDL
MODEL 2
REMARK VINA RESULT:     -13.1      1.934      2.509
REMARK  Name = 89670174
REMARK  4 active torsions:
REMARK  status: ('A' for Active; 'I' for Inactive)
REMARK    1  A    between atoms: C_3  and  C_13
REMARK    2  A    between atoms: C_9  and  O_26
REMARK    3  A    between atoms: C_18  and  C_25
REMARK    4  A    between atoms: O_26  and  C_30
REMARK                            x       y       z     vdW  Elec       q    Type
REMARK                         _______ _______ _______ _____ _____    ______ ____
ROOT
ATOM      1  O   UNL     1      34.607 -19.598 -23.517  0.00  0.00    -0.479 OA
ATOM      2  C   UNL     1      34.953 -18.826 -21.223  0.00  0.00    +0.072 C 
ATOM      3  C   UNL     1      33.792 -19.799 -21.091  0.00  0.00    +0.085 C 
ATOM      4  C   UNL     1      34.862 -20.045 -22.133  0.00  0.00    +0.174 C 
ATOM      5  C   UNL     1      34.886 -17.707 -22.198  0.00  0.00    +0.018 C 
ATOM      6  C   UNL     1      34.697 -18.215 -23.490  0.00  0.00    +0.135 C 
ATOM      7  C   UNL     1      34.978 -16.336 -22.011  0.00  0.00    +0.036 C 
ATOM      8  C   UNL     1      34.592 -17.407 -24.605  0.00  0.00    +0.040 C 
ATOM      9  C   UNL     1      34.878 -15.497 -23.126  0.00  0.00    +0.145 C 
ATOM     10  C   UNL     1      34.686 -16.029 -24.413  0.00  0.00    +0.041 C 
ENDROOT
BRANCH   3  13
ATOM     11  N   UNL     1      32.535 -20.995 -19.229  0.00  0.00    -0.318 N 
ATOM     12  N   UNL     1      34.739 -21.276 -19.314  0.00  0.00    -0.318 N 
ATOM     13  C   UNL     1      33.702 -20.695 -19.875  0.00  0.00    +0.148 C 
ATOM     14  C   UNL     1      32.839 -21.826 -18.181  0.00  0.00    +0.059 C 
ATOM     15  C   UNL     1      34.220 -21.987 -18.255  0.00  0.00    +0.059 C 
ATOM     16  C   UNL     1      32.048 -22.432 -17.203  0.00  0.00    +0.019 C 
ATOM     17  C   UNL     1      34.867 -22.797 -17.307  0.00  0.00    +0.016 C 
ATOM     18  C   UNL     1      32.709 -23.235 -16.267  0.00  0.00    +0.073 C 
ATOM     19  C   UNL     1      34.093 -23.415 -16.318  0.00  0.00    +0.005 C 
ATOM     20  H   UNL     1      31.638 -20.672 -19.472  0.00  0.00    +0.148 HD
ATOM     21  H   UNL     1      35.682 -21.218 -19.591  0.00  0.00    +0.148 HD
BRANCH  18  25
ATOM     22  F   UNL     1      32.672 -24.703 -14.381  0.00  0.00    -0.166 F 
ATOM     23  F   UNL     1      31.273 -23.047 -14.364  0.00  0.00    -0.166 F 
ATOM     24  F   UNL     1      30.947 -24.727 -15.705  0.00  0.00    -0.166 F 
ATOM     25  C   UNL     1      31.918 -23.912 -15.199  0.00  0.00    +0.419 C 
ENDBRANCH  18  25
ENDBRANCH   3  13
BRANCH   9  26
ATOM     26  O   UNL     1      34.966 -14.126 -22.961  0.00  0.00    -0.454 OA
BRANCH  26  30
ATOM     27  O   UNL     1      31.947  -8.602 -23.698  0.00  0.00    -0.275 OA
ATOM     28  N   UNL     1      31.907 -10.458 -22.345  0.00  0.00    -0.270 N 
ATOM     29  N   UNL     1      31.871 -12.308 -20.871  0.00  0.00    -0.229 NA
ATOM     30  C   UNL     1      33.966 -13.505 -22.275  0.00  0.00    +0.146 C 
ATOM     31  C   UNL     1      33.477 -12.261 -22.677  0.00  0.00    +0.045 C 
ATOM     32  C   UNL     1      33.972 -11.590 -23.922  0.00  0.00    +0.042 C 
ATOM     33  C   UNL     1      33.419 -14.138 -21.164  0.00  0.00    +0.058 C 
ATOM     34  C   UNL     1      32.433 -11.700 -21.944  0.00  0.00    +0.133 C 
ATOM     35  C   UNL     1      33.833 -10.080 -23.813  0.00  0.00    +0.090 C 
ATOM     36  C   UNL     1      32.466  -9.652 -23.317  0.00  0.00    +0.227 C 
ATOM     37  C   UNL     1      32.381 -13.504 -20.506  0.00  0.00    +0.103 C 
ATOM     38  H   UNL     1      31.086 -10.141 -21.904  0.00  0.00    +0.156 HD
ENDBRANCH  26  30
ENDBRANCH   9  26
TORSDOF 4
ENDMDL
MODEL 3
REMARK VINA RESULT:     -12.8      5.869     11.481
REMARK  Name = 89670174
REMARK  4 active torsions:
REMARK  status: ('A' for Active; 'I' for Inactive)
REMARK    1  A    between atoms: C_3  and  C_13
REMARK    2  A    between atoms: C_9  and  O_26
REMARK    3  A    between atoms: C_18  and  C_25
REMARK    4  A    between atoms: O_26  and  C_30
REMARK                            x       y       z     vdW  Elec       q    Type
REMARK                         _______ _______ _______ _____ _____    ______ ____
ROOT
ATOM      1  O   UNL     1      37.225 -19.457 -20.632  0.00  0.00    -0.479 OA
ATOM      2  C   UNL     1      34.895 -19.078 -21.264  0.00  0.00    +0.072 C 
ATOM      3  C   UNL     1      35.416 -17.674 -20.999  0.00  0.00    +0.085 C 
ATOM      4  C   UNL     1      36.346 -18.725 -21.566  0.00  0.00    +0.174 C 
ATOM      5  C   UNL     1      35.041 -20.139 -20.235  0.00  0.00    +0.018 C 
ATOM      6  C   UNL     1      36.396 -20.314 -19.925  0.00  0.00    +0.135 C 
ATOM      7  C   UNL     1      34.089 -20.916 -19.593  0.00  0.00    +0.036 C 
ATOM      8  C   UNL     1      36.840 -21.233 -18.993  0.00  0.00    +0.040 C 
ATOM      9  C   UNL     1      34.514 -21.856 -18.648  0.00  0.00    +0.145 C 
ATOM     10  C   UNL     1      35.879 -22.012 -18.351  0.00  0.00    +0.041 C 
ENDROOT
BRANCH   3  13
ATOM     11  N   UNL     1      34.879 -15.228 -21.453  0.00  0.00    -0.318 N 
ATOM     12  N   UNL     1      34.571 -16.665 -23.121  0.00  0.00    -0.318 N 
ATOM     13  C   UNL     1      34.952 -16.528 -21.871  0.00  0.00    +0.148 C 
ATOM     14  C   UNL     1      34.420 -14.476 -22.504  0.00  0.00    +0.059 C 
ATOM     15  C   UNL     1      34.236 -15.395 -23.533  0.00  0.00    +0.059 C 
ATOM     16  C   UNL     1      34.158 -13.112 -22.638  0.00  0.00    +0.019 C 
ATOM     17  C   UNL     1      33.763 -14.944 -24.777  0.00  0.00    +0.016 C 
ATOM     18  C   UNL     1      33.688 -12.681 -23.883  0.00  0.00    +0.073 C 
ATOM     19  C   UNL     1      33.493 -13.579 -24.934  0.00  0.00    +0.005 C 
ATOM     20  H   UNL     1      35.113 -14.893 -20.558  0.00  0.00    +0.148 HD
ATOM     21  H   UNL     1      34.534 -17.495 -23.649  0.00  0.00    +0.148 HD
BRANCH  18  25
ATOM     22  F   UNL     1      32.382 -10.764 -23.300  0.00  0.00    -0.166 F 
ATOM     23  F   UNL     1      34.455 -10.415 -23.831  0.00  0.00    -0.166 F 
ATOM     24  F   UNL     1      33.017 -10.953 -25.371  0.00  0.00    -0.166 F 
ATOM     25  C   UNL     1      33.392 -11.232 -24.090  0.00  0.00    +0.419 C 
ENDBRANCH  18  25
ENDBRANCH   3  13
BRANCH   9  26
ATOM     26  O   UNL     1      33.580 -22.640 -17.995  0.00  0.00    -0.454 OA
BRANCH  26  30
ATOM     27  O   UNL     1      29.927 -24.393 -13.121  0.00  0.00    -0.275 OA
ATOM     28  N   UNL     1      32.148 -24.125 -13.643  0.00  0.00    -0.270 N 
ATOM     29  N   UNL     1      34.445 -23.790 -14.098  0.00  0.00    -0.229 NA
ATOM     30  C   UNL     1      33.843 -22.999 -16.708  0.00  0.00    +0.146 C 
ATOM     31  C   UNL     1      32.816 -23.354 -15.831  0.00  0.00    +0.045 C 
ATOM     32  C   UNL     1      31.391 -23.434 -16.285  0.00  0.00    +0.042 C 
ATOM     33  C   UNL     1      35.163 -23.024 -16.274  0.00  0.00    +0.058 C 
ATOM     34  C   UNL     1      33.164 -23.739 -14.537  0.00  0.00    +0.133 C 
ATOM     35  C   UNL     1      30.440 -23.181 -15.125  0.00  0.00    +0.090 C 
ATOM     36  C   UNL     1      30.797 -23.984 -13.890  0.00  0.00    +0.227 C 
ATOM     37  C   UNL     1      35.408 -23.426 -14.973  0.00  0.00    +0.103 C 
ATOM     38  H   UNL     1      32.418 -24.522 -12.783  0.00  0.00    +0.156 HD
ENDBRANCH  26  30
ENDBRANCH   9  26
TORSDOF 4
ENDMDL
MODEL 4
REMARK VINA RESULT:     -12.6      5.780     11.419
REMARK  Name = 89670174
REMARK  4 active torsions:
REMARK  status: ('A' for Active; 'I' for Inactive)
REMARK    1  A    between atoms: C_3  and  C_13
REMARK    2  A    between atoms: C_9  and  O_26
REMARK    3  A    between atoms: C_18  and  C_25
REMARK    4  A    between atoms: O_26  and  C_30
REMARK                            x       y       z     vdW  Elec       q    Type
REMARK                         _______ _______ _______ _____ _____    ______ ____
ROOT
ATOM      1  O   UNL     1      37.507 -19.302 -19.494  0.00  0.00    -0.479 OA
ATOM      2  C   UNL     1      35.503 -19.500 -20.881  0.00  0.00    +0.072 C 
ATOM      3  C   UNL     1      35.528 -18.024 -20.513  0.00  0.00    +0.085 C 
ATOM      4  C   UNL     1      36.830 -18.774 -20.696  0.00  0.00    +0.174 C 
ATOM      5  C   UNL     1      35.568 -20.538 -19.820  0.00  0.00    +0.018 C 
ATOM      6  C   UNL     1      36.740 -20.376 -19.070  0.00  0.00    +0.135 C 
ATOM      7  C   UNL     1      34.690 -21.563 -19.501  0.00  0.00    +0.036 C 
ATOM      8  C   UNL     1      37.070 -21.196 -18.009  0.00  0.00    +0.040 C 
ATOM      9  C   UNL     1      35.004 -22.409 -18.432  0.00  0.00    +0.145 C 
ATOM     10  C   UNL     1      36.185 -22.227 -17.692  0.00  0.00    +0.041 C 
ENDROOT
BRANCH   3  13
ATOM     11  N   UNL     1      34.950 -15.661 -21.261  0.00  0.00    -0.318 N 
ATOM     12  N   UNL     1      34.830 -17.271 -22.789  0.00  0.00    -0.318 N 
ATOM     13  C   UNL     1      35.101 -16.993 -21.534  0.00  0.00    +0.148 C 
ATOM     14  C   UNL     1      34.556 -15.039 -22.418  0.00  0.00    +0.059 C 
ATOM     15  C   UNL     1      34.488 -16.064 -23.357  0.00  0.00    +0.059 C 
ATOM     16  C   UNL     1      34.261 -13.708 -22.715  0.00  0.00    +0.019 C 
ATOM     17  C   UNL     1      34.107 -15.762 -24.675  0.00  0.00    +0.016 C 
ATOM     18  C   UNL     1      33.883 -13.425 -24.031  0.00  0.00    +0.073 C 
ATOM     19  C   UNL     1      33.807 -14.433 -24.995  0.00  0.00    +0.005 C 
ATOM     20  H   UNL     1      35.097 -15.227 -20.390  0.00  0.00    +0.148 HD
ATOM     21  H   UNL     1      34.865 -18.151 -23.229  0.00  0.00    +0.148 HD
BRANCH  18  25
ATOM     22  F   UNL     1      34.649 -11.198 -24.445  0.00  0.00    -0.166 F 
ATOM     23  F   UNL     1      32.987 -11.904 -25.646  0.00  0.00    -0.166 F 
ATOM     24  F   UNL     1      32.683 -11.432 -23.545  0.00  0.00    -0.166 F 
ATOM     25  C   UNL     1      33.558 -12.018 -24.411  0.00  0.00    +0.419 C 
ENDBRANCH  18  25
ENDBRANCH   3  13
BRANCH   9  26
ATOM     26  O   UNL     1      34.141 -23.437 -18.097  0.00  0.00    -0.454 OA
BRANCH  26  30
ATOM     27  O   UNL     1      34.625 -24.380 -11.848  0.00  0.00    -0.275 OA
ATOM     28  N   UNL     1      33.139 -23.544 -13.387  0.00  0.00    -0.270 N 
ATOM     29  N   UNL     1      31.538 -22.745 -14.935  0.00  0.00    -0.229 NA
ATOM     30  C   UNL     1      33.293 -23.236 -17.050  0.00  0.00    +0.146 C 
ATOM     31  C   UNL     1      33.676 -23.534 -15.741  0.00  0.00    +0.045 C 
ATOM     32  C   UNL     1      35.059 -24.011 -15.419  0.00  0.00    +0.042 C 
ATOM     33  C   UNL     1      32.030 -22.712 -17.300  0.00  0.00    +0.058 C 
ATOM     34  C   UNL     1      32.766 -23.275 -14.718  0.00  0.00    +0.133 C 
ATOM     35  C   UNL     1      35.058 -24.860 -14.157  0.00  0.00    +0.090 C 
ATOM     36  C   UNL     1      34.287 -24.219 -13.021  0.00  0.00    +0.227 C 
ATOM     37  C   UNL     1      31.201 -22.484 -16.217  0.00  0.00    +0.103 C 
ATOM     38  H   UNL     1      32.542 -23.231 -12.670  0.00  0.00    +0.156 HD
ENDBRANCH  26  30
ENDBRANCH   9  26
TORSDOF 4
ENDMDL
MODEL 5
REMARK VINA RESULT:     -12.0      5.163      9.092
REMARK  Name = 89670174
REMARK  4 active torsions:
REMARK  status: ('A' for Active; 'I' for Inactive)
REMARK    1  A    between atoms: C_3  and  C_13
REMARK    2  A    between atoms: C_9  and  O_26
REMARK    3  A    between atoms: C_18  and  C_25
REMARK    4  A    between atoms: O_26  and  C_30
REMARK                            x       y       z     vdW  Elec       q    Type
REMARK                         _______ _______ _______ _____ _____    ______ ____
ROOT
ATOM      1  O   UNL     1      31.553  -9.967 -21.300  0.00  0.00    -0.479 OA
ATOM      2  C   UNL     1      33.010 -10.539 -23.178  0.00  0.00    +0.072 C 
ATOM      3  C   UNL     1      33.396 -11.556 -22.116  0.00  0.00    +0.085 C 
ATOM      4  C   UNL     1      31.968 -11.064 -22.198  0.00  0.00    +0.174 C 
ATOM      5  C   UNL     1      33.024  -9.087 -22.866  0.00  0.00    +0.018 C 
ATOM      6  C   UNL     1      32.165  -8.824 -21.791  0.00  0.00    +0.135 C 
ATOM      7  C   UNL     1      33.721  -8.042 -23.453  0.00  0.00    +0.036 C 
ATOM      8  C   UNL     1      31.977  -7.558 -21.274  0.00  0.00    +0.040 C 
ATOM      9  C   UNL     1      33.544  -6.749 -22.948  0.00  0.00    +0.145 C 
ATOM     10  C   UNL     1      32.678  -6.509 -21.867  0.00  0.00    +0.041 C 
ENDROOT
BRANCH   3  13
ATOM     11  N   UNL     1      34.278 -13.905 -21.686  0.00  0.00    -0.318 N 
ATOM     12  N   UNL     1      33.531 -13.455 -23.731  0.00  0.00    -0.318 N 
ATOM     13  C   UNL     1      33.731 -12.974 -22.525  0.00  0.00    +0.148 C 
ATOM     14  C   UNL     1      34.441 -15.065 -22.398  0.00  0.00    +0.059 C 
ATOM     15  C   UNL     1      33.968 -14.760 -23.671  0.00  0.00    +0.059 C 
ATOM     16  C   UNL     1      34.947 -16.318 -22.048  0.00  0.00    +0.019 C 
ATOM     17  C   UNL     1      33.993 -15.750 -24.667  0.00  0.00    +0.016 C 
ATOM     18  C   UNL     1      34.965 -17.292 -23.052  0.00  0.00    +0.073 C 
ATOM     19  C   UNL     1      34.496 -17.015 -24.338  0.00  0.00    +0.005 C 
ATOM     20  H   UNL     1      34.513 -13.766 -20.740  0.00  0.00    +0.148 HD
ATOM     21  H   UNL     1      33.151 -12.987 -24.509  0.00  0.00    +0.148 HD
BRANCH  18  25
ATOM     22  F   UNL     1      35.115 -19.604 -23.644  0.00  0.00    -0.166 F 
ATOM     23  F   UNL     1      36.855 -18.716 -22.701  0.00  0.00    -0.166 F 
ATOM     24  F   UNL     1      35.068 -19.111 -21.526  0.00  0.00    -0.166 F 
ATOM     25  C   UNL     1      35.492 -18.653 -22.739  0.00  0.00    +0.419 C 
ENDBRANCH  18  25
ENDBRANCH   3  13
BRANCH   9  26
ATOM     26  O   UNL     1      34.231  -5.692 -23.519  0.00  0.00    -0.454 OA
BRANCH  26  30
ATOM     27  O   UNL     1      35.474  -3.937 -29.481  0.00  0.00    -0.275 OA
ATOM     28  N   UNL     1      33.829  -3.717 -27.894  0.00  0.00    -0.270 N 
ATOM     29  N   UNL     1      32.138  -3.390 -26.272  0.00  0.00    -0.229 NA
ATOM     30  C   UNL     1      33.569  -4.923 -24.428  0.00  0.00    +0.146 C 
ATOM     31  C   UNL     1      34.087  -4.704 -25.706  0.00  0.00    +0.045 C 
ATOM     32  C   UNL     1      35.349  -5.368 -26.163  0.00  0.00    +0.042 C 
ATOM     33  C   UNL     1      32.349  -4.361 -24.070  0.00  0.00    +0.058 C 
ATOM     34  C   UNL     1      33.339  -3.930 -26.591  0.00  0.00    +0.133 C 
ATOM     35  C   UNL     1      36.042  -4.534 -27.230  0.00  0.00    +0.090 C 
ATOM     36  C   UNL     1      35.094  -4.072 -28.318  0.00  0.00    +0.227 C 
ATOM     37  C   UNL     1      31.679  -3.613 -25.021  0.00  0.00    +0.103 C 
ATOM     38  H   UNL     1      33.230  -3.286 -28.546  0.00  0.00    +0.156 HD
ENDBRANCH  26  30
ENDBRANCH   9  26
TORSDOF 4
ENDMDL
MODEL 6
REMARK VINA RESULT:     -11.8      5.097      8.924
REMARK  Name = 89670174
REMARK  4 active torsions:
REMARK  status: ('A' for Active; 'I' for Inactive)
REMARK    1  A    between atoms: C_3  and  C_13
REMARK    2  A    between atoms: C_9  and  O_26
REMARK    3  A    between atoms: C_18  and  C_25
REMARK    4  A    between atoms: O_26  and  C_30
REMARK                            x       y       z     vdW  Elec       q    Type
REMARK                         _______ _______ _______ _____ _____    ______ ____
ROOT
ATOM      1  O   UNL     1      31.501 -10.107 -21.582  0.00  0.00    -0.479 OA
ATOM      2  C   UNL     1      33.160 -10.694 -23.279  0.00  0.00    +0.072 C 
ATOM      3  C   UNL     1      33.390 -11.733 -22.192  0.00  0.00    +0.085 C 
ATOM      4  C   UNL     1      31.995 -11.204 -22.439  0.00  0.00    +0.174 C 
ATOM      5  C   UNL     1      33.172  -9.247 -22.946  0.00  0.00    +0.018 C 
ATOM      6  C   UNL     1      32.195  -8.975 -21.979  0.00  0.00    +0.135 C 
ATOM      7  C   UNL     1      33.960  -8.213 -23.429  0.00  0.00    +0.036 C 
ATOM      8  C   UNL     1      31.976  -7.710 -21.470  0.00  0.00    +0.040 C 
ATOM      9  C   UNL     1      33.754  -6.922 -22.931  0.00  0.00    +0.145 C 
ATOM     10  C   UNL     1      32.770  -6.673 -21.959  0.00  0.00    +0.041 C 
ENDROOT
BRANCH   3  13
ATOM     11  N   UNL     1      34.379 -14.037 -21.755  0.00  0.00    -0.318 N 
ATOM     12  N   UNL     1      33.459 -13.685 -23.748  0.00  0.00    -0.318 N 
ATOM     13  C   UNL     1      33.738 -13.155 -22.579  0.00  0.00    +0.148 C 
ATOM     14  C   UNL     1      34.523 -15.218 -22.438  0.00  0.00    +0.059 C 
ATOM     15  C   UNL     1      33.942 -14.973 -23.679  0.00  0.00    +0.059 C 
ATOM     16  C   UNL     1      35.096 -16.441 -22.088  0.00  0.00    +0.019 C 
ATOM     17  C   UNL     1      33.920 -15.998 -24.639  0.00  0.00    +0.016 C 
ATOM     18  C   UNL     1      35.066 -17.451 -23.056  0.00  0.00    +0.073 C 
ATOM     19  C   UNL     1      34.489 -17.234 -24.310  0.00  0.00    +0.005 C 
ATOM     20  H   UNL     1      34.683 -13.858 -20.836  0.00  0.00    +0.148 HD
ATOM     21  H   UNL     1      33.004 -13.257 -24.508  0.00  0.00    +0.148 HD
BRANCH  18  25
ATOM     22  F   UNL     1      35.369 -19.743 -23.667  0.00  0.00    -0.166 F 
ATOM     23  F   UNL     1      37.023 -18.768 -22.658  0.00  0.00    -0.166 F 
ATOM     24  F   UNL     1      35.225 -19.279 -21.547  0.00  0.00    -0.166 F 
ATOM     25  C   UNL     1      35.660 -18.783 -22.741  0.00  0.00    +0.419 C 
ENDBRANCH  18  25
ENDBRANCH   3  13
BRANCH   9  26
ATOM     26  O   UNL     1      34.531  -5.877 -23.399  0.00  0.00    -0.454 OA
BRANCH  26  30
ATOM     27  O   UNL     1      29.941  -1.786 -24.937  0.00  0.00    -0.275 OA
ATOM     28  N   UNL     1      31.712  -2.882 -25.905  0.00  0.00    -0.270 N 
ATOM     29  N   UNL     1      33.473  -4.045 -26.974  0.00  0.00    -0.229 NA
ATOM     30  C   UNL     1      34.157  -5.283 -24.566  0.00  0.00    +0.146 C 
ATOM     31  C   UNL     1      33.082  -4.393 -24.614  0.00  0.00    +0.045 C 
ATOM     32  C   UNL     1      32.344  -3.989 -23.374  0.00  0.00    +0.042 C 
ATOM     33  C   UNL     1      34.874  -5.565 -25.723  0.00  0.00    +0.058 C 
ATOM     34  C   UNL     1      32.775  -3.802 -25.838  0.00  0.00    +0.133 C 
ATOM     35  C   UNL     1      30.912  -3.597 -23.701  0.00  0.00    +0.090 C 
ATOM     36  C   UNL     1      30.820  -2.645 -24.877  0.00  0.00    +0.227 C 
ATOM     37  C   UNL     1      34.496  -4.923 -26.889  0.00  0.00    +0.103 C 
ATOM     38  H   UNL     1      31.595  -2.374 -26.740  0.00  0.00    +0.156 HD
ENDBRANCH  26  30
ENDBRANCH   9  26
TORSDOF 4
ENDMDL
MODEL 7
REMARK VINA RESULT:     -11.0      6.644     12.439
REMARK  Name = 89670174
REMARK  4 active torsions:
REMARK  status: ('A' for Active; 'I' for Inactive)
REMARK    1  A    between atoms: C_3  and  C_13
REMARK    2  A    between atoms: C_9  and  O_26
REMARK    3  A    between atoms: C_18  and  C_25
REMARK    4  A    between atoms: O_26  and  C_30
REMARK                            x       y       z     vdW  Elec       q    Type
REMARK                         _______ _______ _______ _____ _____    ______ ____
ROOT
ATOM      1  O   UNL     1      31.248 -23.671 -16.100  0.00  0.00    -0.479 OA
ATOM      2  C   UNL     1      33.369 -22.464 -15.946  0.00  0.00    +0.072 C 
ATOM      3  C   UNL     1      33.339 -22.932 -17.393  0.00  0.00    +0.085 C 
ATOM      4  C   UNL     1      32.045 -22.577 -16.692  0.00  0.00    +0.174 C 
ATOM      5  C   UNL     1      33.185 -23.437 -14.840  0.00  0.00    +0.018 C 
ATOM      6  C   UNL     1      31.951 -24.086 -14.979  0.00  0.00    +0.135 C 
ATOM      7  C   UNL     1      34.008 -23.761 -13.772  0.00  0.00    +0.036 C 
ATOM      8  C   UNL     1      31.507 -25.051 -14.096  0.00  0.00    +0.040 C 
ATOM      9  C   UNL     1      33.579 -24.734 -12.863  0.00  0.00    +0.145 C 
ATOM     10  C   UNL     1      32.337 -25.373 -13.024  0.00  0.00    +0.041 C 
ENDROOT
BRANCH   3  13
ATOM     11  N   UNL     1      33.108 -21.460 -19.456  0.00  0.00    -0.318 N 
ATOM     12  N   UNL     1      35.146 -21.705 -18.602  0.00  0.00    -0.318 N 
ATOM     13  C   UNL     1      33.879 -22.031 -18.482  0.00  0.00    +0.148 C 
ATOM     14  C   UNL     1      33.934 -20.716 -20.259  0.00  0.00    +0.059 C 
ATOM     15  C   UNL     1      35.200 -20.884 -19.706  0.00  0.00    +0.059 C 
ATOM     16  C   UNL     1      33.689 -19.933 -21.389  0.00  0.00    +0.019 C 
ATOM     17  C   UNL     1      36.299 -20.242 -20.301  0.00  0.00    +0.016 C 
ATOM     18  C   UNL     1      34.794 -19.301 -21.968  0.00  0.00    +0.073 C 
ATOM     19  C   UNL     1      36.076 -19.451 -21.435  0.00  0.00    +0.005 C 
ATOM     20  H   UNL     1      32.135 -21.565 -19.563  0.00  0.00    +0.148 HD
ATOM     21  H   UNL     1      35.895 -21.986 -18.028  0.00  0.00    +0.148 HD
BRANCH  18  25
ATOM     22  F   UNL     1      33.482 -18.772 -23.896  0.00  0.00    -0.166 F 
ATOM     23  F   UNL     1      34.462 -17.119 -22.892  0.00  0.00    -0.166 F 
ATOM     24  F   UNL     1      35.638 -18.532 -24.053  0.00  0.00    -0.166 F 
ATOM     25  C   UNL     1      34.596 -18.447 -23.177  0.00  0.00    +0.419 C 
ENDBRANCH  18  25
ENDBRANCH   3  13
BRANCH   9  26
ATOM     26  O   UNL     1      34.387 -25.072 -11.792  0.00  0.00    -0.454 OA
BRANCH  26  30
ATOM     27  O   UNL     1      39.710 -26.586 -14.881  0.00  0.00    -0.275 OA
ATOM     28  N   UNL     1      38.939 -25.043 -13.364  0.00  0.00    -0.270 N 
ATOM     29  N   UNL     1      38.222 -23.478 -11.742  0.00  0.00    -0.229 NA
ATOM     30  C   UNL     1      35.655 -24.576 -11.773  0.00  0.00    +0.146 C 
ATOM     31  C   UNL     1      36.655 -25.113 -12.586  0.00  0.00    +0.045 C 
ATOM     32  C   UNL     1      36.362 -26.202 -13.572  0.00  0.00    +0.042 C 
ATOM     33  C   UNL     1      35.945 -23.505 -10.935  0.00  0.00    +0.058 C 
ATOM     34  C   UNL     1      37.922 -24.534 -12.535  0.00  0.00    +0.133 C 
ATOM     35  C   UNL     1      37.602 -27.042 -13.834  0.00  0.00    +0.090 C 
ATOM     36  C   UNL     1      38.831 -26.200 -14.110  0.00  0.00    +0.227 C 
ATOM     37  C   UNL     1      37.231 -22.996 -10.960  0.00  0.00    +0.103 C 
ATOM     38  H   UNL     1      39.784 -24.540 -13.417  0.00  0.00    +0.156 HD
ENDBRANCH  26  30
ENDBRANCH   9  26
TORSDOF 4
ENDMDL
