MODEL 1
REMARK VINA RESULT:     -11.5      0.000      0.000
REMARK  Name = 23650961
REMARK  5 active torsions:
REMARK  status: ('A' for Active; 'I' for Inactive)
REMARK    1  A    between atoms: N_1  and  C_23
REMARK    2  A    between atoms: C_5  and  C_12
REMARK    3  A    between atoms: C_23  and  C_24
REMARK    4  A    between atoms: C_24  and  C_25
REMARK    5  A    between atoms: C_25  and  C_27
REMARK                            x       y       z     vdW  Elec       q    Type
REMARK                         _______ _______ _______ _____ _____    ______ ____
ROOT
ATOM      1  N   UNL     1      34.522 -16.898 -23.468  0.00  0.00    -0.268 N 
ATOM      2  N   UNL     1      33.808 -15.000 -24.648  0.00  0.00    -0.342 NA
ATOM      3  N   UNL     1      34.685 -14.809 -22.412  0.00  0.00    -0.170 NA
ATOM      4  C   UNL     1      34.333 -15.526 -23.510  0.00  0.00    +0.144 C 
ATOM      5  C   UNL     1      33.960 -12.841 -23.594  0.00  0.00    +0.061 C 
ATOM      6  C   UNL     1      33.636 -13.662 -24.655  0.00  0.00    +0.123 C 
ATOM      7  C   UNL     1      34.486 -13.477 -22.487  0.00  0.00    +0.113 C 
ATOM      8  C   UNL     1      33.059 -13.096 -25.912  0.00  0.00    +0.067 C 
ATOM      9  H   UNL     1      34.270 -17.426 -24.259  0.00  0.00    +0.159 HD
ENDROOT
BRANCH   5  12
ATOM     10  N   UNL     1      34.759 -10.556 -24.015  0.00  0.00    -0.314 N 
ATOM     11  N   UNL     1      32.679 -10.771 -23.261  0.00  0.00    -0.315 N 
ATOM     12  C   UNL     1      33.772 -11.415 -23.611  0.00  0.00    +0.171 C 
ATOM     13  C   UNL     1      34.270  -9.278 -23.917  0.00  0.00    +0.059 C 
ATOM     14  C   UNL     1      32.971  -9.439 -23.445  0.00  0.00    +0.055 C 
ATOM     15  C   UNL     1      32.174  -8.302 -23.230  0.00  0.00    -0.008 C 
ATOM     16  C   UNL     1      34.837  -8.032 -24.194  0.00  0.00    +0.011 C 
ATOM     17  C   UNL     1      34.030  -6.911 -23.973  0.00  0.00    -0.021 C 
ATOM     18  C   UNL     1      32.723  -7.040 -23.500  0.00  0.00    -0.007 C 
ATOM     19  C   UNL     1      30.771  -8.388 -22.725  0.00  0.00    +0.032 C 
ATOM     20  C   UNL     1      34.579  -5.550 -24.252  0.00  0.00    +0.031 C 
ATOM     21  H   UNL     1      35.659 -10.810 -24.320  0.00  0.00    +0.149 HD
ATOM     22  H   UNL     1      31.833 -11.159 -22.937  0.00  0.00    +0.149 HD
ENDBRANCH   5  12
BRANCH   1  23
ATOM     23  C   UNL     1      35.069 -17.597 -22.329  0.00  0.00    +0.098 C 
BRANCH  23  24
ATOM     24  C   UNL     1      34.664 -19.068 -22.350  0.00  0.00    +0.022 C 
BRANCH  24  25
ATOM     25  C   UNL     1      35.614 -19.947 -21.537  0.00  0.00    +0.002 C 
BRANCH  25  27
ATOM     26  N   UNL     1      33.591 -22.364 -18.583  0.00  0.00    +0.385 N 
ATOM     27  C   UNL     1      34.983 -20.362 -20.209  0.00  0.00    -0.004 C 
ATOM     28  C   UNL     1      35.697 -21.581 -19.618  0.00  0.00    -0.023 C 
ATOM     29  C   UNL     1      33.491 -20.668 -20.381  0.00  0.00    -0.023 C 
ATOM     30  C   UNL     1      35.009 -22.064 -18.340  0.00  0.00    -0.077 C 
ATOM     31  C   UNL     1      32.876 -21.181 -19.077  0.00  0.00    -0.077 C 
ATOM     32  C   UNL     1      32.959 -22.873 -17.366  0.00  0.00    -0.101 C 
ATOM     33  H   UNL     1      33.542 -23.086 -19.303  0.00  0.00    -0.080 HD
ENDBRANCH  25  27
ENDBRANCH  24  25
ENDBRANCH  23  24
ENDBRANCH   1  23
TORSDOF 5
ENDMDL
MODEL 2
REMARK VINA RESULT:     -11.3      1.001      1.397
REMARK  Name = 23650961
REMARK  5 active torsions:
REMARK  status: ('A' for Active; 'I' for Inactive)
REMARK    1  A    between atoms: N_1  and  C_23
REMARK    2  A    between atoms: C_5  and  C_12
REMARK    3  A    between atoms: C_23  and  C_24
REMARK    4  A    between atoms: C_24  and  C_25
REMARK    5  A    between atoms: C_25  and  C_27
REMARK                            x       y       z     vdW  Elec       q    Type
REMARK                         _______ _______ _______ _____ _____    ______ ____
ROOT
ATOM      1  N   UNL     1      34.096 -17.569 -24.421  0.00  0.00    -0.268 N 
ATOM      2  N   UNL     1      33.769 -15.422 -25.311  0.00  0.00    -0.342 NA
ATOM      3  N   UNL     1      34.194 -15.735 -22.960  0.00  0.00    -0.170 NA
ATOM      4  C   UNL     1      34.018 -16.199 -24.224  0.00  0.00    +0.144 C 
ATOM      5  C   UNL     1      33.862 -13.519 -23.840  0.00  0.00    +0.061 C 
ATOM      6  C   UNL     1      33.698 -14.095 -25.085  0.00  0.00    +0.123 C 
ATOM      7  C   UNL     1      34.110 -14.397 -22.805  0.00  0.00    +0.113 C 
ATOM      8  C   UNL     1      33.425 -13.252 -26.288  0.00  0.00    +0.067 C 
ATOM      9  H   UNL     1      33.970 -17.914 -25.333  0.00  0.00    +0.159 HD
ENDROOT
BRANCH   5  12
ATOM     10  N   UNL     1      34.623 -11.215 -24.229  0.00  0.00    -0.314 N 
ATOM     11  N   UNL     1      32.934 -11.490 -22.811  0.00  0.00    -0.315 N 
ATOM     12  C   UNL     1      33.784 -12.101 -23.609  0.00  0.00    +0.171 C 
ATOM     13  C   UNL     1      34.295  -9.954 -23.802  0.00  0.00    +0.059 C 
ATOM     14  C   UNL     1      33.238 -10.152 -22.918  0.00  0.00    +0.055 C 
ATOM     15  C   UNL     1      32.653  -9.040 -22.289  0.00  0.00    -0.008 C 
ATOM     16  C   UNL     1      34.816  -8.695 -24.104  0.00  0.00    +0.011 C 
ATOM     17  C   UNL     1      34.223  -7.599 -23.469  0.00  0.00    -0.021 C 
ATOM     18  C   UNL     1      33.161  -7.766 -22.577  0.00  0.00    -0.007 C 
ATOM     19  C   UNL     1      31.517  -9.166 -21.328  0.00  0.00    +0.032 C 
ATOM     20  C   UNL     1      34.735  -6.225 -23.752  0.00  0.00    +0.031 C 
ATOM     21  H   UNL     1      35.337 -11.443 -24.867  0.00  0.00    +0.149 HD
ATOM     22  H   UNL     1      32.232 -11.902 -22.256  0.00  0.00    +0.149 HD
ENDBRANCH   5  12
BRANCH   1  23
ATOM     23  C   UNL     1      34.353 -18.516 -23.363  0.00  0.00    +0.098 C 
BRANCH  23  24
ATOM     24  C   UNL     1      35.790 -18.393 -22.863  0.00  0.00    +0.022 C 
BRANCH  24  25
ATOM     25  C   UNL     1      35.897 -18.559 -21.347  0.00  0.00    +0.002 C 
BRANCH  25  27
ATOM     26  N   UNL     1      34.256 -21.619 -18.777  0.00  0.00    +0.385 N 
ATOM     27  C   UNL     1      35.334 -19.905 -20.897  0.00  0.00    -0.004 C 
ATOM     28  C   UNL     1      33.906 -19.753 -20.363  0.00  0.00    -0.023 C 
ATOM     29  C   UNL     1      36.222 -20.544 -19.825  0.00  0.00    -0.023 C 
ATOM     30  C   UNL     1      33.371 -21.078 -19.817  0.00  0.00    -0.077 C 
ATOM     31  C   UNL     1      35.611 -21.844 -19.299  0.00  0.00    -0.077 C 
ATOM     32  C   UNL     1      33.706 -22.859 -18.230  0.00  0.00    -0.101 C 
ATOM     33  H   UNL     1      34.318 -20.930 -18.027  0.00  0.00    -0.080 HD
ENDBRANCH  25  27
ENDBRANCH  24  25
ENDBRANCH  23  24
ENDBRANCH   1  23
TORSDOF 5
ENDMDL
MODEL 3
REMARK VINA RESULT:     -11.3      0.724      1.733
REMARK  Name = 23650961
REMARK  5 active torsions:
REMARK  status: ('A' for Active; 'I' for Inactive)
REMARK    1  A    between atoms: N_1  and  C_23
REMARK    2  A    between atoms: C_5  and  C_12
REMARK    3  A    between atoms: C_23  and  C_24
REMARK    4  A    between atoms: C_24  and  C_25
REMARK    5  A    between atoms: C_25  and  C_27
REMARK                            x       y       z     vdW  Elec       q    Type
REMARK                         _______ _______ _______ _____ _____    ______ ____
ROOT
ATOM      1  N   UNL     1      34.835 -17.093 -23.318  0.00  0.00    -0.268 N 
ATOM      2  N   UNL     1      33.966 -15.206 -24.411  0.00  0.00    -0.342 NA
ATOM      3  N   UNL     1      34.761 -15.064 -22.141  0.00  0.00    -0.170 NA
ATOM      4  C   UNL     1      34.511 -15.745 -23.289  0.00  0.00    +0.144 C 
ATOM      5  C   UNL     1      33.875 -13.110 -23.232  0.00  0.00    +0.061 C 
ATOM      6  C   UNL     1      33.662 -13.894 -24.348  0.00  0.00    +0.123 C 
ATOM      7  C   UNL     1      34.432 -13.755 -22.147  0.00  0.00    +0.113 C 
ATOM      8  C   UNL     1      33.063 -13.313 -25.588  0.00  0.00    +0.067 C 
ATOM      9  H   UNL     1      34.658 -17.594 -24.146  0.00  0.00    +0.159 HD
ENDROOT
BRANCH   5  12
ATOM     10  N   UNL     1      32.419 -11.253 -22.546  0.00  0.00    -0.314 N 
ATOM     11  N   UNL     1      34.249 -10.725 -23.692  0.00  0.00    -0.315 N 
ATOM     12  C   UNL     1      33.546 -11.711 -23.175  0.00  0.00    +0.171 C 
ATOM     13  C   UNL     1      32.395  -9.887 -22.666  0.00  0.00    +0.059 C 
ATOM     14  C   UNL     1      33.547  -9.582 -23.385  0.00  0.00    +0.055 C 
ATOM     15  C   UNL     1      33.831  -8.239 -23.687  0.00  0.00    -0.008 C 
ATOM     16  C   UNL     1      31.491  -8.921 -22.221  0.00  0.00    +0.011 C 
ATOM     17  C   UNL     1      31.788  -7.590 -22.531  0.00  0.00    -0.021 C 
ATOM     18  C   UNL     1      32.936  -7.253 -23.250  0.00  0.00    -0.007 C 
ATOM     19  C   UNL     1      35.045  -7.828 -24.454  0.00  0.00    +0.032 C 
ATOM     20  C   UNL     1      30.860  -6.510 -22.081  0.00  0.00    +0.031 C 
ATOM     21  H   UNL     1      31.746 -11.806 -22.088  0.00  0.00    +0.149 HD
ATOM     22  H   UNL     1      35.095 -10.792 -24.191  0.00  0.00    +0.149 HD
ENDBRANCH   5  12
BRANCH   1  23
ATOM     23  C   UNL     1      35.419 -17.800 -22.204  0.00  0.00    +0.098 C 
BRANCH  23  24
ATOM     24  C   UNL     1      34.722 -19.141 -21.990  0.00  0.00    +0.022 C 
BRANCH  24  25
ATOM     25  C   UNL     1      35.585 -20.128 -21.202  0.00  0.00    +0.002 C 
BRANCH  25  27
ATOM     26  N   UNL     1      33.371 -22.522 -18.370  0.00  0.00    +0.385 N 
ATOM     27  C   UNL     1      34.900 -20.547 -19.903  0.00  0.00    -0.004 C 
ATOM     28  C   UNL     1      35.539 -21.816 -19.329  0.00  0.00    -0.023 C 
ATOM     29  C   UNL     1      33.401 -20.775 -20.120  0.00  0.00    -0.023 C 
ATOM     30  C   UNL     1      34.795 -22.299 -18.083  0.00  0.00    -0.077 C 
ATOM     31  C   UNL     1      32.727 -21.292 -18.848  0.00  0.00    -0.077 C 
ATOM     32  C   UNL     1      32.683 -23.032 -17.184  0.00  0.00    -0.101 C 
ATOM     33  H   UNL     1      33.305 -23.220 -19.111  0.00  0.00    -0.080 HD
ENDBRANCH  25  27
ENDBRANCH  24  25
ENDBRANCH  23  24
ENDBRANCH   1  23
TORSDOF 5
ENDMDL
MODEL 4
REMARK VINA RESULT:     -11.0      3.158     12.151
REMARK  Name = 23650961
REMARK  5 active torsions:
REMARK  status: ('A' for Active; 'I' for Inactive)
REMARK    1  A    between atoms: N_1  and  C_23
REMARK    2  A    between atoms: C_5  and  C_12
REMARK    3  A    between atoms: C_23  and  C_24
REMARK    4  A    between atoms: C_24  and  C_25
REMARK    5  A    between atoms: C_25  and  C_27
REMARK                            x       y       z     vdW  Elec       q    Type
REMARK                         _______ _______ _______ _____ _____    ______ ____
ROOT
ATOM      1  N   UNL     1      35.105 -19.299 -22.491  0.00  0.00    -0.268 N 
ATOM      2  N   UNL     1      35.680 -20.443 -20.524  0.00  0.00    -0.342 NA
ATOM      3  N   UNL     1      33.375 -20.197 -21.184  0.00  0.00    -0.170 NA
ATOM      4  C   UNL     1      34.707 -20.002 -21.364  0.00  0.00    +0.144 C 
ATOM      5  C   UNL     1      33.930 -21.376 -19.159  0.00  0.00    +0.061 C 
ATOM      6  C   UNL     1      35.259 -21.122 -19.438  0.00  0.00    +0.123 C 
ATOM      7  C   UNL     1      33.024 -20.884 -20.076  0.00  0.00    +0.113 C 
ATOM      8  C   UNL     1      36.338 -21.602 -18.523  0.00  0.00    +0.067 C 
ATOM      9  H   UNL     1      36.068 -19.153 -22.631  0.00  0.00    +0.159 HD
ENDROOT
BRANCH   5  12
ATOM     10  N   UNL     1      32.165 -22.303 -17.724  0.00  0.00    -0.314 N 
ATOM     11  N   UNL     1      34.266 -22.645 -17.083  0.00  0.00    -0.315 N 
ATOM     12  C   UNL     1      33.491 -22.101 -17.997  0.00  0.00    +0.171 C 
ATOM     13  C   UNL     1      32.080 -23.022 -16.559  0.00  0.00    +0.059 C 
ATOM     14  C   UNL     1      33.404 -23.223 -16.178  0.00  0.00    +0.055 C 
ATOM     15  C   UNL     1      33.677 -23.941 -15.002  0.00  0.00    -0.008 C 
ATOM     16  C   UNL     1      30.991 -23.499 -15.827  0.00  0.00    +0.011 C 
ATOM     17  C   UNL     1      31.281 -24.211 -14.658  0.00  0.00    -0.021 C 
ATOM     18  C   UNL     1      32.599 -24.429 -14.251  0.00  0.00    -0.007 C 
ATOM     19  C   UNL     1      35.068 -24.200 -14.524  0.00  0.00    +0.032 C 
ATOM     20  C   UNL     1      30.159 -24.748 -13.833  0.00  0.00    +0.031 C 
ATOM     21  H   UNL     1      31.407 -21.988 -18.266  0.00  0.00    +0.149 HD
ATOM     22  H   UNL     1      35.250 -22.640 -17.051  0.00  0.00    +0.149 HD
ENDBRANCH   5  12
BRANCH   1  23
ATOM     23  C   UNL     1      34.186 -18.770 -23.471  0.00  0.00    +0.098 C 
BRANCH  23  24
ATOM     24  C   UNL     1      34.590 -17.358 -23.884  0.00  0.00    +0.022 C 
BRANCH  24  25
ATOM     25  C   UNL     1      35.362 -16.625 -22.786  0.00  0.00    +0.002 C 
BRANCH  25  27
ATOM     26  N   UNL     1      32.634 -13.372 -21.989  0.00  0.00    +0.385 N 
ATOM     27  C   UNL     1      34.841 -15.202 -22.600  0.00  0.00    -0.004 C 
ATOM     28  C   UNL     1      34.320 -14.990 -21.175  0.00  0.00    -0.023 C 
ATOM     29  C   UNL     1      33.734 -14.884 -23.609  0.00  0.00    -0.023 C 
ATOM     30  C   UNL     1      33.704 -13.599 -21.009  0.00  0.00    -0.077 C 
ATOM     31  C   UNL     1      33.139 -13.496 -23.363  0.00  0.00    -0.077 C 
ATOM     32  C   UNL     1      32.021 -12.060 -21.786  0.00  0.00    -0.101 C 
ATOM     33  H   UNL     1      31.922 -14.090 -21.850  0.00  0.00    -0.080 HD
ENDBRANCH  25  27
ENDBRANCH  24  25
ENDBRANCH  23  24
ENDBRANCH   1  23
TORSDOF 5
ENDMDL
MODEL 5
REMARK VINA RESULT:     -11.0      2.102      3.313
REMARK  Name = 23650961
REMARK  5 active torsions:
REMARK  status: ('A' for Active; 'I' for Inactive)
REMARK    1  A    between atoms: N_1  and  C_23
REMARK    2  A    between atoms: C_5  and  C_12
REMARK    3  A    between atoms: C_23  and  C_24
REMARK    4  A    between atoms: C_24  and  C_25
REMARK    5  A    between atoms: C_25  and  C_27
REMARK                            x       y       z     vdW  Elec       q    Type
REMARK                         _______ _______ _______ _____ _____    ______ ____
ROOT
ATOM      1  N   UNL     1      33.285 -14.756 -23.200  0.00  0.00    -0.268 N 
ATOM      2  N   UNL     1      32.213 -12.974 -22.112  0.00  0.00    -0.342 NA
ATOM      3  N   UNL     1      33.776 -12.571 -23.901  0.00  0.00    -0.170 NA
ATOM      4  C   UNL     1      33.085 -13.390 -23.067  0.00  0.00    +0.144 C 
ATOM      5  C   UNL     1      32.695 -10.720 -22.806  0.00  0.00    +0.061 C 
ATOM      6  C   UNL     1      32.043 -11.640 -22.010  0.00  0.00    +0.123 C 
ATOM      7  C   UNL     1      33.559 -11.249 -23.744  0.00  0.00    +0.113 C 
ATOM      8  C   UNL     1      31.081 -11.194 -20.956  0.00  0.00    +0.067 C 
ATOM      9  H   UNL     1      32.788 -15.358 -22.600  0.00  0.00    +0.159 HD
ENDROOT
BRANCH   5  12
ATOM     10  N   UNL     1      32.218  -8.511 -23.770  0.00  0.00    -0.314 N 
ATOM     11  N   UNL     1      32.581  -8.594 -21.579  0.00  0.00    -0.315 N 
ATOM     12  C   UNL     1      32.507  -9.299 -22.689  0.00  0.00    +0.171 C 
ATOM     13  C   UNL     1      32.100  -7.217 -23.330  0.00  0.00    +0.059 C 
ATOM     14  C   UNL     1      32.330  -7.296 -21.959  0.00  0.00    +0.055 C 
ATOM     15  C   UNL     1      32.282  -6.122 -21.188  0.00  0.00    -0.008 C 
ATOM     16  C   UNL     1      31.819  -6.021 -23.992  0.00  0.00    +0.011 C 
ATOM     17  C   UNL     1      31.775  -4.863 -23.210  0.00  0.00    -0.021 C 
ATOM     18  C   UNL     1      32.002  -4.910 -21.833  0.00  0.00    -0.007 C 
ATOM     19  C   UNL     1      32.518  -6.120 -19.713  0.00  0.00    +0.032 C 
ATOM     20  C   UNL     1      31.478  -3.552 -23.861  0.00  0.00    +0.031 C 
ATOM     21  H   UNL     1      32.114  -8.817 -24.699  0.00  0.00    +0.149 HD
ATOM     22  H   UNL     1      32.775  -8.925 -20.672  0.00  0.00    +0.149 HD
ENDBRANCH   5  12
BRANCH   1  23
ATOM     23  C   UNL     1      34.179 -15.344 -24.167  0.00  0.00    +0.098 C 
BRANCH  23  24
ATOM     24  C   UNL     1      35.277 -16.146 -23.474  0.00  0.00    +0.022 C 
BRANCH  24  25
ATOM     25  C   UNL     1      34.970 -17.644 -23.434  0.00  0.00    +0.002 C 
BRANCH  25  27
ATOM     26  N   UNL     1      36.197 -20.407 -20.350  0.00  0.00    +0.385 N 
ATOM     27  C   UNL     1      35.223 -18.223 -22.044  0.00  0.00    -0.004 C 
ATOM     28  C   UNL     1      36.715 -18.488 -21.822  0.00  0.00    -0.023 C 
ATOM     29  C   UNL     1      34.431 -19.518 -21.835  0.00  0.00    -0.023 C 
ATOM     30  C   UNL     1      36.966 -19.161 -20.472  0.00  0.00    -0.077 C 
ATOM     31  C   UNL     1      34.756 -20.157 -20.484  0.00  0.00    -0.077 C 
ATOM     32  C   UNL     1      36.486 -21.066 -19.076  0.00  0.00    -0.101 C 
ATOM     33  H   UNL     1      36.481 -21.027 -21.110  0.00  0.00    -0.080 HD
ENDBRANCH  25  27
ENDBRANCH  24  25
ENDBRANCH  23  24
ENDBRANCH   1  23
TORSDOF 5
ENDMDL
MODEL 6
REMARK VINA RESULT:     -10.8      4.044     13.737
REMARK  Name = 23650961
REMARK  5 active torsions:
REMARK  status: ('A' for Active; 'I' for Inactive)
REMARK    1  A    between atoms: N_1  and  C_23
REMARK    2  A    between atoms: C_5  and  C_12
REMARK    3  A    between atoms: C_23  and  C_24
REMARK    4  A    between atoms: C_24  and  C_25
REMARK    5  A    between atoms: C_25  and  C_27
REMARK                            x       y       z     vdW  Elec       q    Type
REMARK                         _______ _______ _______ _____ _____    ______ ____
ROOT
ATOM      1  N   UNL     1      35.250 -20.590 -20.251  0.00  0.00    -0.268 N 
ATOM      2  N   UNL     1      34.445 -22.011 -18.565  0.00  0.00    -0.342 NA
ATOM      3  N   UNL     1      36.637 -21.023 -18.408  0.00  0.00    -0.170 NA
ATOM      4  C   UNL     1      35.451 -21.228 -19.036  0.00  0.00    +0.144 C 
ATOM      5  C   UNL     1      35.843 -22.477 -16.661  0.00  0.00    +0.061 C 
ATOM      6  C   UNL     1      34.674 -22.617 -17.382  0.00  0.00    +0.123 C 
ATOM      7  C   UNL     1      36.799 -21.659 -17.229  0.00  0.00    +0.113 C 
ATOM      8  C   UNL     1      33.560 -23.474 -16.874  0.00  0.00    +0.067 C 
ATOM      9  H   UNL     1      34.393 -20.732 -20.713  0.00  0.00    +0.159 HD
ENDROOT
BRANCH   5  12
ATOM     10  N   UNL     1      35.372 -22.805 -14.272  0.00  0.00    -0.314 N 
ATOM     11  N   UNL     1      36.956 -24.080 -15.169  0.00  0.00    -0.315 N 
ATOM     12  C   UNL     1      36.077 -23.128 -15.400  0.00  0.00    +0.171 C 
ATOM     13  C   UNL     1      35.827 -23.597 -13.250  0.00  0.00    +0.059 C 
ATOM     14  C   UNL     1      36.814 -24.384 -13.834  0.00  0.00    +0.055 C 
ATOM     15  C   UNL     1      37.497 -25.326 -13.045  0.00  0.00    -0.008 C 
ATOM     16  C   UNL     1      35.469 -23.690 -11.903  0.00  0.00    +0.011 C 
ATOM     17  C   UNL     1      36.159 -24.632 -11.132  0.00  0.00    -0.021 C 
ATOM     18  C   UNL     1      37.154 -25.436 -11.690  0.00  0.00    -0.007 C 
ATOM     19  C   UNL     1      38.570 -26.208 -13.595  0.00  0.00    +0.032 C 
ATOM     20  C   UNL     1      35.820 -24.780  -9.685  0.00  0.00    +0.031 C 
ATOM     21  H   UNL     1      34.665 -22.124 -14.206  0.00  0.00    +0.149 HD
ATOM     22  H   UNL     1      37.581 -24.487 -15.812  0.00  0.00    +0.149 HD
ENDBRANCH   5  12
BRANCH   1  23
ATOM     23  C   UNL     1      36.226 -19.730 -20.874  0.00  0.00    +0.098 C 
BRANCH  23  24
ATOM     24  C   UNL     1      35.584 -18.423 -21.330  0.00  0.00    +0.022 C 
BRANCH  24  25
ATOM     25  C   UNL     1      35.521 -18.303 -22.854  0.00  0.00    +0.002 C 
BRANCH  25  27
ATOM     26  N   UNL     1      33.446 -14.578 -23.543  0.00  0.00    +0.385 N 
ATOM     27  C   UNL     1      35.267 -16.861 -23.285  0.00  0.00    -0.004 C 
ATOM     28  C   UNL     1      34.861 -15.993 -22.089  0.00  0.00    -0.023 C 
ATOM     29  C   UNL     1      34.183 -16.792 -24.365  0.00  0.00    -0.023 C 
ATOM     30  C   UNL     1      34.507 -14.571 -22.527  0.00  0.00    -0.077 C 
ATOM     31  C   UNL     1      33.852 -15.343 -24.729  0.00  0.00    -0.077 C 
ATOM     32  C   UNL     1      33.082 -13.211 -23.915  0.00  0.00    -0.101 C 
ATOM     33  H   UNL     1      32.627 -15.036 -23.139  0.00  0.00    -0.080 HD
ENDBRANCH  25  27
ENDBRANCH  24  25
ENDBRANCH  23  24
ENDBRANCH   1  23
TORSDOF 5
ENDMDL
MODEL 7
REMARK VINA RESULT:     -10.7      1.881      3.332
REMARK  Name = 23650961
REMARK  5 active torsions:
REMARK  status: ('A' for Active; 'I' for Inactive)
REMARK    1  A    between atoms: N_1  and  C_23
REMARK    2  A    between atoms: C_5  and  C_12
REMARK    3  A    between atoms: C_23  and  C_24
REMARK    4  A    between atoms: C_24  and  C_25
REMARK    5  A    between atoms: C_25  and  C_27
REMARK                            x       y       z     vdW  Elec       q    Type
REMARK                         _______ _______ _______ _____ _____    ______ ____
ROOT
ATOM      1  N   UNL     1      33.366 -14.973 -23.332  0.00  0.00    -0.268 N 
ATOM      2  N   UNL     1      32.484 -13.103 -22.222  0.00  0.00    -0.342 NA
ATOM      3  N   UNL     1      33.825 -12.844 -24.206  0.00  0.00    -0.170 NA
ATOM      4  C   UNL     1      33.220 -13.596 -23.251  0.00  0.00    +0.144 C 
ATOM      5  C   UNL     1      32.937 -10.904 -23.092  0.00  0.00    +0.061 C 
ATOM      6  C   UNL     1      32.363 -11.760 -22.173  0.00  0.00    +0.123 C 
ATOM      7  C   UNL     1      33.664 -11.509 -24.097  0.00  0.00    +0.113 C 
ATOM      8  C   UNL     1      31.550 -11.230 -21.036  0.00  0.00    +0.067 C 
ATOM      9  H   UNL     1      32.930 -15.526 -22.645  0.00  0.00    +0.159 HD
ENDROOT
BRANCH   5  12
ATOM     10  N   UNL     1      31.762  -8.867 -22.380  0.00  0.00    -0.314 N 
ATOM     11  N   UNL     1      33.624  -8.593 -23.561  0.00  0.00    -0.315 N 
ATOM     12  C   UNL     1      32.803  -9.474 -23.030  0.00  0.00    +0.171 C 
ATOM     13  C   UNL     1      31.922  -7.511 -22.502  0.00  0.00    +0.059 C 
ATOM     14  C   UNL     1      33.091  -7.365 -23.242  0.00  0.00    +0.055 C 
ATOM     15  C   UNL     1      33.550  -6.073 -23.551  0.00  0.00    -0.008 C 
ATOM     16  C   UNL     1      31.166  -6.431 -22.041  0.00  0.00    +0.011 C 
ATOM     17  C   UNL     1      31.637  -5.153 -22.358  0.00  0.00    -0.021 C 
ATOM     18  C   UNL     1      32.806  -4.974 -23.099  0.00  0.00    -0.007 C 
ATOM     19  C   UNL     1      34.794  -5.830 -24.341  0.00  0.00    +0.032 C 
ATOM     20  C   UNL     1      30.873  -3.957 -21.892  0.00  0.00    +0.031 C 
ATOM     21  H   UNL     1      31.028  -9.324 -21.910  0.00  0.00    +0.149 HD
ATOM     22  H   UNL     1      34.444  -8.773 -24.077  0.00  0.00    +0.149 HD
ENDBRANCH   5  12
BRANCH   1  23
ATOM     23  C   UNL     1      34.118 -15.639 -24.367  0.00  0.00    +0.098 C 
BRANCH  23  24
ATOM     24  C   UNL     1      35.217 -16.509 -23.764  0.00  0.00    +0.022 C 
BRANCH  24  25
ATOM     25  C   UNL     1      34.752 -17.943 -23.507  0.00  0.00    +0.002 C 
BRANCH  25  27
ATOM     26  N   UNL     1      36.221 -20.412 -20.281  0.00  0.00    +0.385 N 
ATOM     27  C   UNL     1      35.107 -18.394 -22.092  0.00  0.00    -0.004 C 
ATOM     28  C   UNL     1      36.614 -18.630 -21.951  0.00  0.00    -0.023 C 
ATOM     29  C   UNL     1      34.346 -19.668 -21.713  0.00  0.00    -0.023 C 
ATOM     30  C   UNL     1      36.965 -19.178 -20.567  0.00  0.00    -0.077 C 
ATOM     31  C   UNL     1      34.771 -20.181 -20.336  0.00  0.00    -0.077 C 
ATOM     32  C   UNL     1      36.604 -20.952 -18.977  0.00  0.00    -0.101 C 
ATOM     33  H   UNL     1      36.458 -21.096 -21.001  0.00  0.00    -0.080 HD
ENDBRANCH  25  27
ENDBRANCH  24  25
ENDBRANCH  23  24
ENDBRANCH   1  23
TORSDOF 5
ENDMDL
MODEL 8
REMARK VINA RESULT:     -10.7      1.847      3.212
REMARK  Name = 23650961
REMARK  5 active torsions:
REMARK  status: ('A' for Active; 'I' for Inactive)
REMARK    1  A    between atoms: N_1  and  C_23
REMARK    2  A    between atoms: C_5  and  C_12
REMARK    3  A    between atoms: C_23  and  C_24
REMARK    4  A    between atoms: C_24  and  C_25
REMARK    5  A    between atoms: C_25  and  C_27
REMARK                            x       y       z     vdW  Elec       q    Type
REMARK                         _______ _______ _______ _____ _____    ______ ____
ROOT
ATOM      1  N   UNL     1      35.722 -18.887 -21.715  0.00  0.00    -0.268 N 
ATOM      2  N   UNL     1      34.893 -17.278 -23.209  0.00  0.00    -0.342 NA
ATOM      3  N   UNL     1      35.287 -16.732 -20.895  0.00  0.00    -0.170 NA
ATOM      4  C   UNL     1      35.287 -17.591 -21.947  0.00  0.00    +0.144 C 
ATOM      5  C   UNL     1      34.435 -15.057 -22.401  0.00  0.00    +0.061 C 
ATOM      6  C   UNL     1      34.475 -16.010 -23.399  0.00  0.00    +0.123 C 
ATOM      7  C   UNL     1      34.857 -15.480 -21.156  0.00  0.00    +0.113 C 
ATOM      8  C   UNL     1      34.045 -15.677 -24.791  0.00  0.00    +0.067 C 
ATOM      9  H   UNL     1      35.726 -19.517 -22.471  0.00  0.00    +0.159 HD
ENDROOT
BRANCH   5  12
ATOM     10  N   UNL     1      32.937 -13.171 -21.918  0.00  0.00    -0.314 N 
ATOM     11  N   UNL     1      34.501 -12.843 -23.463  0.00  0.00    -0.315 N 
ATOM     12  C   UNL     1      33.987 -13.707 -22.614  0.00  0.00    +0.171 C 
ATOM     13  C   UNL     1      32.763 -11.880 -22.348  0.00  0.00    +0.059 C 
ATOM     14  C   UNL     1      33.751 -11.699 -23.311  0.00  0.00    +0.055 C 
ATOM     15  C   UNL     1      33.853 -10.459 -23.964  0.00  0.00    -0.008 C 
ATOM     16  C   UNL     1      31.853 -10.885 -21.987  0.00  0.00    +0.011 C 
ATOM     17  C   UNL     1      31.968  -9.657 -22.647  0.00  0.00    -0.021 C 
ATOM     18  C   UNL     1      32.949  -9.445 -23.618  0.00  0.00    -0.007 C 
ATOM     19  C   UNL     1      34.884 -10.184 -25.009  0.00  0.00    +0.032 C 
ATOM     20  C   UNL     1      31.024  -8.552 -22.304  0.00  0.00    +0.031 C 
ATOM     21  H   UNL     1      32.401 -13.630 -21.233  0.00  0.00    +0.149 HD
ATOM     22  H   UNL     1      35.259 -12.984 -24.076  0.00  0.00    +0.149 HD
ENDBRANCH   5  12
BRANCH   1  23
ATOM     23  C   UNL     1      36.169 -19.364 -20.429  0.00  0.00    +0.098 C 
BRANCH  23  24
ATOM     24  C   UNL     1      35.361 -20.582 -19.991  0.00  0.00    +0.022 C 
BRANCH  24  25
ATOM     25  C   UNL     1      36.126 -21.469 -19.008  0.00  0.00    +0.002 C 
BRANCH  25  27
ATOM     26  N   UNL     1      33.151 -22.796 -16.172  0.00  0.00    +0.385 N 
ATOM     27  C   UNL     1      35.180 -22.396 -18.249  0.00  0.00    -0.004 C 
ATOM     28  C   UNL     1      33.721 -21.962 -18.429  0.00  0.00    -0.023 C 
ATOM     29  C   UNL     1      35.527 -22.437 -16.758  0.00  0.00    -0.023 C 
ATOM     30  C   UNL     1      32.776 -22.824 -17.592  0.00  0.00    -0.077 C 
ATOM     31  C   UNL     1      34.522 -23.285 -15.976  0.00  0.00    -0.077 C 
ATOM     32  C   UNL     1      32.209 -23.584 -15.377  0.00  0.00    -0.101 C 
ATOM     33  H   UNL     1      33.114 -21.827 -15.856  0.00  0.00    -0.080 HD
ENDBRANCH  25  27
ENDBRANCH  24  25
ENDBRANCH  23  24
ENDBRANCH   1  23
TORSDOF 5
ENDMDL
MODEL 9
REMARK VINA RESULT:     -10.5      2.528     12.429
REMARK  Name = 23650961
REMARK  5 active torsions:
REMARK  status: ('A' for Active; 'I' for Inactive)
REMARK    1  A    between atoms: N_1  and  C_23
REMARK    2  A    between atoms: C_5  and  C_12
REMARK    3  A    between atoms: C_23  and  C_24
REMARK    4  A    between atoms: C_24  and  C_25
REMARK    5  A    between atoms: C_25  and  C_27
REMARK                            x       y       z     vdW  Elec       q    Type
REMARK                         _______ _______ _______ _____ _____    ______ ____
ROOT
ATOM      1  N   UNL     1      35.541 -19.707 -21.783  0.00  0.00    -0.268 N 
ATOM      2  N   UNL     1      35.658 -20.863 -19.744  0.00  0.00    -0.342 NA
ATOM      3  N   UNL     1      33.535 -20.414 -20.792  0.00  0.00    -0.170 NA
ATOM      4  C   UNL     1      34.891 -20.349 -20.740  0.00  0.00    +0.144 C 
ATOM      5  C   UNL     1      33.619 -21.602 -18.700  0.00  0.00    +0.061 C 
ATOM      6  C   UNL     1      34.993 -21.479 -18.745  0.00  0.00    +0.123 C 
ATOM      7  C   UNL     1      32.935 -21.045 -19.761  0.00  0.00    +0.113 C 
ATOM      8  C   UNL     1      35.848 -22.041 -17.656  0.00  0.00    +0.067 C 
ATOM      9  H   UNL     1      36.523 -19.655 -21.755  0.00  0.00    +0.159 HD
ENDROOT
BRANCH   5  12
ATOM     10  N   UNL     1      33.579 -22.922 -16.628  0.00  0.00    -0.314 N 
ATOM     11  N   UNL     1      31.614 -22.314 -17.471  0.00  0.00    -0.315 N 
ATOM     12  C   UNL     1      32.920 -22.261 -17.629  0.00  0.00    +0.171 C 
ATOM     13  C   UNL     1      32.638 -23.435 -15.772  0.00  0.00    +0.059 C 
ATOM     14  C   UNL     1      31.420 -23.041 -16.319  0.00  0.00    +0.055 C 
ATOM     15  C   UNL     1      30.227 -23.410 -15.674  0.00  0.00    -0.008 C 
ATOM     16  C   UNL     1      32.745 -24.186 -14.600  0.00  0.00    +0.011 C 
ATOM     17  C   UNL     1      31.548 -24.545 -13.971  0.00  0.00    -0.021 C 
ATOM     18  C   UNL     1      30.311 -24.165 -14.495  0.00  0.00    -0.007 C 
ATOM     19  C   UNL     1      28.881 -23.029 -16.195  0.00  0.00    +0.032 C 
ATOM     20  C   UNL     1      31.597 -25.347 -12.712  0.00  0.00    +0.031 C 
ATOM     21  H   UNL     1      34.554 -23.014 -16.538  0.00  0.00    +0.149 HD
ATOM     22  H   UNL     1      30.924 -21.919 -18.052  0.00  0.00    +0.149 HD
ENDBRANCH   5  12
BRANCH   1  23
ATOM     23  C   UNL     1      34.860 -19.113 -22.908  0.00  0.00    +0.098 C 
BRANCH  23  24
ATOM     24  C   UNL     1      35.288 -17.661 -23.096  0.00  0.00    +0.022 C 
BRANCH  24  25
ATOM     25  C   UNL     1      34.574 -16.988 -24.269  0.00  0.00    +0.002 C 
BRANCH  25  27
ATOM     26  N   UNL     1      34.068 -12.781 -23.430  0.00  0.00    +0.385 N 
ATOM     27  C   UNL     1      33.915 -15.680 -23.838  0.00  0.00    -0.004 C 
ATOM     28  C   UNL     1      33.863 -14.682 -25.000  0.00  0.00    -0.023 C 
ATOM     29  C   UNL     1      34.655 -15.055 -22.652  0.00  0.00    -0.023 C 
ATOM     30  C   UNL     1      33.296 -13.334 -24.551  0.00  0.00    -0.077 C 
ATOM     31  C   UNL     1      34.061 -13.695 -22.280  0.00  0.00    -0.077 C 
ATOM     32  C   UNL     1      33.546 -11.470 -23.046  0.00  0.00    -0.101 C 
ATOM     33  H   UNL     1      35.035 -12.671 -23.738  0.00  0.00    -0.080 HD
ENDBRANCH  25  27
ENDBRANCH  24  25
ENDBRANCH  23  24
ENDBRANCH   1  23
TORSDOF 5
ENDMDL
