MODEL 1
REMARK VINA RESULT:     -12.3      0.000      0.000
REMARK  Name = 3815
REMARK  0 active torsions:
REMARK  status: ('A' for Active; 'I' for Inactive)
REMARK                            x       y       z     vdW  Elec       q    Type
REMARK                         _______ _______ _______ _____ _____    ______ ____
ROOT
ATOM      1  O   UNL     1      37.456 -22.745 -16.108  0.00  0.00    -0.270 OA
ATOM      2  N   UNL     1      30.949 -23.128 -16.824  0.00  0.00    -0.352 N 
ATOM      3  N   UNL     1      32.660 -21.837 -18.607  0.00  0.00    -0.352 N 
ATOM      4  N   UNL     1      36.396 -23.921 -14.375  0.00  0.00    -0.297 N 
ATOM      5  C   UNL     1      34.254 -23.728 -15.142  0.00  0.00    +0.003 A 
ATOM      6  C   UNL     1      32.898 -23.702 -15.468  0.00  0.00    +0.016 A 
ATOM      7  C   UNL     1      34.537 -22.469 -17.170  0.00  0.00    +0.022 A 
ATOM      8  C   UNL     1      32.284 -23.091 -16.607  0.00  0.00    +0.072 A 
ATOM      9  C   UNL     1      35.098 -23.077 -16.047  0.00  0.00    +0.053 A 
ATOM     10  C   UNL     1      33.142 -22.445 -17.500  0.00  0.00    +0.073 A 
ATOM     11  C   UNL     1      35.044 -24.307 -14.017  0.00  0.00    +0.117 C 
ATOM     12  C   UNL     1      31.645 -24.204 -14.895  0.00  0.00    +0.017 A 
ATOM     13  C   UNL     1      34.960 -21.701 -18.352  0.00  0.00    +0.017 A 
ATOM     14  C   UNL     1      30.524 -23.849 -15.716  0.00  0.00    +0.057 A 
ATOM     15  C   UNL     1      33.831 -21.350 -19.168  0.00  0.00    +0.057 A 
ATOM     16  C   UNL     1      36.468 -23.196 -15.563  0.00  0.00    +0.246 C 
ATOM     17  C   UNL     1      31.388 -24.946 -13.717  0.00  0.00    +0.001 C 
ATOM     18  C   UNL     1      36.234 -21.272 -18.798  0.00  0.00    +0.001 C 
ATOM     19  C   UNL     1      29.216 -24.220 -15.373  0.00  0.00    +0.017 C 
ATOM     20  C   UNL     1      33.976 -20.615 -20.353  0.00  0.00    +0.017 C 
ATOM     21  C   UNL     1      30.079 -25.311 -13.385  0.00  0.00    +0.000 C 
ATOM     22  C   UNL     1      36.367 -20.539 -19.981  0.00  0.00    +0.000 C 
ATOM     23  C   UNL     1      29.013 -24.952 -14.201  0.00  0.00    +0.001 C 
ATOM     24  C   UNL     1      35.254 -20.216 -20.746  0.00  0.00    +0.001 C 
ATOM     25  H   UNL     1      30.422 -22.748 -17.564  0.00  0.00    +0.166 HD
ATOM     26  H   UNL     1      31.733 -21.761 -18.928  0.00  0.00    +0.166 HD
ATOM     27  H   UNL     1      37.185 -24.150 -13.833  0.00  0.00    +0.150 HD
ENDROOT
TORSDOF 0
ENDMDL
MODEL 2
REMARK VINA RESULT:     -12.2      0.933      5.961
REMARK  Name = 3815
REMARK  0 active torsions:
REMARK  status: ('A' for Active; 'I' for Inactive)
REMARK                            x       y       z     vdW  Elec       q    Type
REMARK                         _______ _______ _______ _____ _____    ______ ____
ROOT
ATOM      1  O   UNL     1      34.657 -24.850 -13.218  0.00  0.00    -0.270 OA
ATOM      2  N   UNL     1      32.568 -21.809 -18.639  0.00  0.00    -0.352 N 
ATOM      3  N   UNL     1      30.905 -23.108 -16.818  0.00  0.00    -0.352 N 
ATOM      4  N   UNL     1      36.391 -23.888 -14.473  0.00  0.00    -0.297 N 
ATOM      5  C   UNL     1      35.108 -23.020 -16.150  0.00  0.00    +0.003 A 
ATOM      6  C   UNL     1      34.475 -22.430 -17.244  0.00  0.00    +0.016 A 
ATOM      7  C   UNL     1      32.888 -23.674 -15.501  0.00  0.00    +0.022 A 
ATOM      8  C   UNL     1      33.075 -22.415 -17.541  0.00  0.00    +0.072 A 
ATOM      9  C   UNL     1      34.259 -23.667 -15.247  0.00  0.00    +0.053 A 
ATOM     10  C   UNL     1      32.242 -23.066 -16.628  0.00  0.00    +0.073 A 
ATOM     11  C   UNL     1      36.526 -23.127 -15.701  0.00  0.00    +0.117 C 
ATOM     12  C   UNL     1      34.870 -21.665 -18.431  0.00  0.00    +0.017 A 
ATOM     13  C   UNL     1      31.644 -24.184 -14.902  0.00  0.00    +0.017 A 
ATOM     14  C   UNL     1      33.727 -21.318 -19.225  0.00  0.00    +0.057 A 
ATOM     15  C   UNL     1      30.506 -23.832 -15.704  0.00  0.00    +0.057 A 
ATOM     16  C   UNL     1      35.073 -24.223 -14.173  0.00  0.00    +0.246 C 
ATOM     17  C   UNL     1      36.141 -21.240 -18.888  0.00  0.00    +0.001 C 
ATOM     18  C   UNL     1      31.396 -24.928 -13.723  0.00  0.00    +0.001 C 
ATOM     19  C   UNL     1      33.854 -20.583 -20.412  0.00  0.00    +0.017 C 
ATOM     20  C   UNL     1      29.203 -24.206 -15.342  0.00  0.00    +0.017 C 
ATOM     21  C   UNL     1      36.255 -20.507 -20.073  0.00  0.00    +0.000 C 
ATOM     22  C   UNL     1      30.092 -25.297 -13.372  0.00  0.00    +0.000 C 
ATOM     23  C   UNL     1      35.129 -20.186 -20.821  0.00  0.00    +0.001 C 
ATOM     24  C   UNL     1      29.014 -24.939 -14.171  0.00  0.00    +0.001 C 
ATOM     25  H   UNL     1      31.634 -21.735 -18.941  0.00  0.00    +0.166 HD
ATOM     26  H   UNL     1      30.362 -22.729 -17.546  0.00  0.00    +0.166 HD
ATOM     27  H   UNL     1      37.155 -24.141 -13.906  0.00  0.00    +0.150 HD
ENDROOT
TORSDOF 0
ENDMDL
MODEL 3
REMARK VINA RESULT:     -12.0      2.169      4.712
REMARK  Name = 3815
REMARK  0 active torsions:
REMARK  status: ('A' for Active; 'I' for Inactive)
REMARK                            x       y       z     vdW  Elec       q    Type
REMARK                         _______ _______ _______ _____ _____    ______ ____
ROOT
ATOM      1  O   UNL     1      31.011 -22.666 -16.894  0.00  0.00    -0.270 OA
ATOM      2  N   UNL     1      37.399 -23.385 -15.594  0.00  0.00    -0.352 N 
ATOM      3  N   UNL     1      36.381 -22.035 -17.811  0.00  0.00    -0.352 N 
ATOM      4  N   UNL     1      31.431 -23.873 -14.925  0.00  0.00    -0.297 N 
ATOM      5  C   UNL     1      33.712 -23.797 -15.001  0.00  0.00    +0.003 A 
ATOM      6  C   UNL     1      35.101 -23.842 -14.897  0.00  0.00    +0.016 A 
ATOM      7  C   UNL     1      34.125 -22.552 -17.016  0.00  0.00    +0.022 A 
ATOM      8  C   UNL     1      36.065 -23.279 -15.794  0.00  0.00    +0.072 A 
ATOM      9  C   UNL     1      33.219 -23.115 -16.118  0.00  0.00    +0.053 A 
ATOM     10  C   UNL     1      35.554 -22.603 -16.905  0.00  0.00    +0.073 A 
ATOM     11  C   UNL     1      32.588 -24.321 -14.173  0.00  0.00    +0.117 C 
ATOM     12  C   UNL     1      36.093 -24.400 -13.972  0.00  0.00    +0.017 A 
ATOM     13  C   UNL     1      34.123 -21.782 -18.270  0.00  0.00    +0.017 A 
ATOM     14  C   UNL     1      37.427 -24.113 -14.412  0.00  0.00    +0.057 A 
ATOM     15  C   UNL     1      35.463 -21.500 -18.702  0.00  0.00    +0.057 A 
ATOM     16  C   UNL     1      31.762 -23.161 -16.076  0.00  0.00    +0.246 C 
ATOM     17  C   UNL     1      35.940 -25.139 -12.774  0.00  0.00    +0.001 C 
ATOM     18  C   UNL     1      33.069 -21.297 -19.082  0.00  0.00    +0.001 C 
ATOM     19  C   UNL     1      38.547 -24.545 -13.687  0.00  0.00    +0.017 C 
ATOM     20  C   UNL     1      35.725 -20.777 -19.875  0.00  0.00    +0.017 C 
ATOM     21  C   UNL     1      37.065 -25.564 -12.060  0.00  0.00    +0.000 C 
ATOM     22  C   UNL     1      33.341 -20.577 -20.251  0.00  0.00    +0.000 C 
ATOM     23  C   UNL     1      38.346 -25.271 -12.511  0.00  0.00    +0.001 C 
ATOM     24  C   UNL     1      34.650 -20.322 -20.639  0.00  0.00    +0.001 C 
ATOM     25  H   UNL     1      38.145 -23.043 -16.137  0.00  0.00    +0.166 HD
ATOM     26  H   UNL     1      37.365 -22.009 -17.833  0.00  0.00    +0.166 HD
ATOM     27  H   UNL     1      30.503 -24.054 -14.650  0.00  0.00    +0.150 HD
ENDROOT
TORSDOF 0
ENDMDL
MODEL 4
REMARK VINA RESULT:     -11.7      2.211      6.295
REMARK  Name = 3815
REMARK  0 active torsions:
REMARK  status: ('A' for Active; 'I' for Inactive)
REMARK                            x       y       z     vdW  Elec       q    Type
REMARK                         _______ _______ _______ _____ _____    ______ ____
ROOT
ATOM      1  O   UNL     1      32.642 -25.032 -12.798  0.00  0.00    -0.270 OA
ATOM      2  N   UNL     1      36.242 -22.270 -17.534  0.00  0.00    -0.352 N 
ATOM      3  N   UNL     1      37.296 -23.571 -15.305  0.00  0.00    -0.352 N 
ATOM      4  N   UNL     1      31.353 -24.041 -14.491  0.00  0.00    -0.297 N 
ATOM      5  C   UNL     1      33.076 -23.288 -15.786  0.00  0.00    +0.003 A 
ATOM      6  C   UNL     1      34.005 -22.765 -16.685  0.00  0.00    +0.016 A 
ATOM      7  C   UNL     1      35.009 -24.009 -14.552  0.00  0.00    +0.022 A 
ATOM      8  C   UNL     1      35.433 -22.817 -16.597  0.00  0.00    +0.072 A 
ATOM      9  C   UNL     1      33.622 -23.937 -14.674  0.00  0.00    +0.053 A 
ATOM     10  C   UNL     1      35.960 -23.469 -15.480  0.00  0.00    +0.073 A 
ATOM     11  C   UNL     1      31.586 -23.319 -15.728  0.00  0.00    +0.117 C 
ATOM     12  C   UNL     1      33.977 -22.025 -17.951  0.00  0.00    +0.017 A 
ATOM     13  C   UNL     1      36.023 -24.547 -13.631  0.00  0.00    +0.017 A 
ATOM     14  C   UNL     1      35.305 -21.752 -18.418  0.00  0.00    +0.057 A 
ATOM     15  C   UNL     1      37.349 -24.269 -14.107  0.00  0.00    +0.057 A 
ATOM     16  C   UNL     1      32.526 -24.421 -13.843  0.00  0.00    +0.246 C 
ATOM     17  C   UNL     1      32.895 -21.563 -18.739  0.00  0.00    +0.001 C 
ATOM     18  C   UNL     1      35.913 -25.258 -12.411  0.00  0.00    +0.001 C 
ATOM     19  C   UNL     1      35.534 -21.055 -19.613  0.00  0.00    +0.017 C 
ATOM     20  C   UNL     1      38.489 -24.680 -13.401  0.00  0.00    +0.017 C 
ATOM     21  C   UNL     1      33.136 -20.869 -19.929  0.00  0.00    +0.000 C 
ATOM     22  C   UNL     1      37.056 -25.663 -11.715  0.00  0.00    +0.000 C 
ATOM     23  C   UNL     1      34.434 -20.620 -20.356  0.00  0.00    +0.001 C 
ATOM     24  C   UNL     1      38.325 -25.378 -12.204  0.00  0.00    +0.001 C 
ATOM     25  H   UNL     1      37.225 -22.245 -17.577  0.00  0.00    +0.166 HD
ATOM     26  H   UNL     1      38.031 -23.242 -15.871  0.00  0.00    +0.166 HD
ATOM     27  H   UNL     1      30.454 -24.243 -14.143  0.00  0.00    +0.150 HD
ENDROOT
TORSDOF 0
ENDMDL
MODEL 5
REMARK VINA RESULT:     -10.9      2.125      6.022
REMARK  Name = 3815
REMARK  0 active torsions:
REMARK  status: ('A' for Active; 'I' for Inactive)
REMARK                            x       y       z     vdW  Elec       q    Type
REMARK                         _______ _______ _______ _____ _____    ______ ____
ROOT
ATOM      1  O   UNL     1      32.396 -21.829 -18.573  0.00  0.00    -0.270 OA
ATOM      2  N   UNL     1      34.520 -24.910 -13.188  0.00  0.00    -0.352 N 
ATOM      3  N   UNL     1      31.835 -24.526 -13.831  0.00  0.00    -0.352 N 
ATOM      4  N   UNL     1      34.736 -21.931 -18.420  0.00  0.00    -0.297 N 
ATOM      5  C   UNL     1      34.863 -23.060 -16.440  0.00  0.00    +0.003 A 
ATOM      6  C   UNL     1      35.116 -23.741 -15.249  0.00  0.00    +0.016 A 
ATOM      7  C   UNL     1      32.549 -23.371 -15.867  0.00  0.00    +0.022 A 
ATOM      8  C   UNL     1      34.160 -24.263 -14.321  0.00  0.00    +0.072 A 
ATOM      9  C   UNL     1      33.511 -22.877 -16.747  0.00  0.00    +0.053 A 
ATOM     10  C   UNL     1      32.814 -24.070 -14.643  0.00  0.00    +0.073 A 
ATOM     11  C   UNL     1      35.724 -22.461 -17.500  0.00  0.00    +0.117 C 
ATOM     12  C   UNL     1      36.291 -24.180 -14.490  0.00  0.00    +0.017 A 
ATOM     13  C   UNL     1      31.085 -23.435 -15.735  0.00  0.00    +0.017 A 
ATOM     14  C   UNL     1      35.904 -24.861 -13.289  0.00  0.00    +0.057 A 
ATOM     15  C   UNL     1      30.708 -24.119 -14.529  0.00  0.00    +0.057 A 
ATOM     16  C   UNL     1      33.423 -22.155 -18.011  0.00  0.00    +0.246 C 
ATOM     17  C   UNL     1      37.675 -24.040 -14.750  0.00  0.00    +0.001 C 
ATOM     18  C   UNL     1      30.037 -22.959 -16.559  0.00  0.00    +0.001 C 
ATOM     19  C   UNL     1      36.857 -25.375 -12.398  0.00  0.00    +0.017 C 
ATOM     20  C   UNL     1      29.363 -24.309 -14.178  0.00  0.00    +0.017 C 
ATOM     21  C   UNL     1      38.617 -24.557 -13.854  0.00  0.00    +0.000 C 
ATOM     22  C   UNL     1      28.699 -23.153 -16.199  0.00  0.00    +0.000 C 
ATOM     23  C   UNL     1      38.211 -25.213 -12.698  0.00  0.00    +0.001 C 
ATOM     24  C   UNL     1      28.369 -23.819 -15.025  0.00  0.00    +0.001 C 
ATOM     25  H   UNL     1      33.957 -25.307 -12.485  0.00  0.00    +0.166 HD
ATOM     26  H   UNL     1      31.902 -25.013 -12.979  0.00  0.00    +0.166 HD
ATOM     27  H   UNL     1      34.969 -21.458 -19.252  0.00  0.00    +0.150 HD
ENDROOT
TORSDOF 0
ENDMDL
MODEL 6
REMARK VINA RESULT:     -10.7      1.771      4.606
REMARK  Name = 3815
REMARK  0 active torsions:
REMARK  status: ('A' for Active; 'I' for Inactive)
REMARK                            x       y       z     vdW  Elec       q    Type
REMARK                         _______ _______ _______ _____ _____    ______ ____
ROOT
ATOM      1  O   UNL     1      36.676 -22.310 -17.649  0.00  0.00    -0.270 OA
ATOM      2  N   UNL     1      31.775 -24.500 -13.882  0.00  0.00    -0.352 N 
ATOM      3  N   UNL     1      34.481 -24.806 -13.287  0.00  0.00    -0.352 N 
ATOM      4  N   UNL     1      34.548 -21.842 -18.523  0.00  0.00    -0.297 N 
ATOM      5  C   UNL     1      33.316 -22.799 -16.856  0.00  0.00    +0.003 A 
ATOM      6  C   UNL     1      32.422 -23.333 -15.929  0.00  0.00    +0.016 A 
ATOM      7  C   UNL     1      35.010 -23.624 -15.363  0.00  0.00    +0.022 A 
ATOM      8  C   UNL     1      32.730 -24.020 -14.711  0.00  0.00    +0.072 A 
ATOM      9  C   UNL     1      34.669 -22.960 -16.542  0.00  0.00    +0.053 A 
ATOM     10  C   UNL     1      34.086 -24.173 -14.414  0.00  0.00    +0.073 A 
ATOM     11  C   UNL     1      33.165 -22.070 -18.149  0.00  0.00    +0.117 C 
ATOM     12  C   UNL     1      30.967 -23.438 -15.776  0.00  0.00    +0.017 A 
ATOM     13  C   UNL     1      36.213 -24.032 -14.620  0.00  0.00    +0.017 A 
ATOM     14  C   UNL     1      30.625 -24.127 -14.566  0.00  0.00    +0.057 A 
ATOM     15  C   UNL     1      35.860 -24.722 -13.411  0.00  0.00    +0.057 A 
ATOM     16  C   UNL     1      35.462 -22.351 -17.603  0.00  0.00    +0.246 C 
ATOM     17  C   UNL     1      29.907 -22.986 -16.597  0.00  0.00    +0.001 C 
ATOM     18  C   UNL     1      37.594 -23.866 -14.886  0.00  0.00    +0.001 C 
ATOM     19  C   UNL     1      29.289 -24.349 -14.201  0.00  0.00    +0.017 C 
ATOM     20  C   UNL     1      36.834 -25.212 -12.528  0.00  0.00    +0.017 C 
ATOM     21  C   UNL     1      28.579 -23.213 -16.223  0.00  0.00    +0.000 C 
ATOM     22  C   UNL     1      38.557 -24.359 -14.000  0.00  0.00    +0.000 C 
ATOM     23  C   UNL     1      28.278 -23.885 -15.044  0.00  0.00    +0.001 C 
ATOM     24  C   UNL     1      38.180 -25.022 -12.838  0.00  0.00    +0.001 C 
ATOM     25  H   UNL     1      31.868 -24.982 -13.029  0.00  0.00    +0.166 HD
ATOM     26  H   UNL     1      33.939 -25.215 -12.574  0.00  0.00    +0.166 HD
ATOM     27  H   UNL     1      34.816 -21.372 -19.346  0.00  0.00    +0.150 HD
ENDROOT
TORSDOF 0
ENDMDL
MODEL 7
REMARK VINA RESULT:     -10.2      2.120      6.660
REMARK  Name = 3815
REMARK  0 active torsions:
REMARK  status: ('A' for Active; 'I' for Inactive)
REMARK                            x       y       z     vdW  Elec       q    Type
REMARK                         _______ _______ _______ _____ _____    ______ ____
ROOT
ATOM      1  O   UNL     1      32.194 -24.210 -14.967  0.00  0.00    -0.270 OA
ATOM      2  N   UNL     1      36.907 -21.297 -18.475  0.00  0.00    -0.352 N 
ATOM      3  N   UNL     1      37.354 -22.795 -16.167  0.00  0.00    -0.352 N 
ATOM      4  N   UNL     1      31.380 -23.047 -16.837  0.00  0.00    -0.297 N 
ATOM      5  C   UNL     1      33.385 -22.286 -17.619  0.00  0.00    +0.003 A 
ATOM      6  C   UNL     1      34.518 -21.746 -18.227  0.00  0.00    +0.016 A 
ATOM      7  C   UNL     1      34.942 -23.179 -16.020  0.00  0.00    +0.022 A 
ATOM      8  C   UNL     1      35.880 -21.869 -17.805  0.00  0.00    +0.072 A 
ATOM      9  C   UNL     1      33.628 -23.035 -16.464  0.00  0.00    +0.053 A 
ATOM     10  C   UNL     1      36.104 -22.619 -16.648  0.00  0.00    +0.073 A 
ATOM     11  C   UNL     1      31.925 -22.254 -17.923  0.00  0.00    +0.117 C 
ATOM     12  C   UNL     1      34.818 -20.920 -19.402  0.00  0.00    +0.017 A 
ATOM     13  C   UNL     1      35.687 -23.824 -14.927  0.00  0.00    +0.017 A 
ATOM     14  C   UNL     1      36.227 -20.677 -19.515  0.00  0.00    +0.057 A 
ATOM     15  C   UNL     1      37.096 -23.575 -15.050  0.00  0.00    +0.057 A 
ATOM     16  C   UNL     1      32.350 -23.524 -15.959  0.00  0.00    +0.246 C 
ATOM     17  C   UNL     1      33.972 -20.356 -20.387  0.00  0.00    +0.001 C 
ATOM     18  C   UNL     1      35.266 -24.611 -13.828  0.00  0.00    +0.001 C 
ATOM     19  C   UNL     1      36.757 -19.911 -20.563  0.00  0.00    +0.017 C 
ATOM     20  C   UNL     1      38.020 -24.086 -14.125  0.00  0.00    +0.017 C 
ATOM     21  C   UNL     1      34.513 -19.594 -21.427  0.00  0.00    +0.000 C 
ATOM     22  C   UNL     1      36.195 -25.115 -12.912  0.00  0.00    +0.000 C 
ATOM     23  C   UNL     1      35.882 -19.376 -21.511  0.00  0.00    +0.001 C 
ATOM     24  C   UNL     1      37.552 -24.855 -13.060  0.00  0.00    +0.001 C 
ATOM     25  H   UNL     1      37.872 -21.314 -18.280  0.00  0.00    +0.166 HD
ATOM     26  H   UNL     1      38.213 -22.462 -16.514  0.00  0.00    +0.166 HD
ATOM     27  H   UNL     1      30.418 -23.232 -16.731  0.00  0.00    +0.150 HD
ENDROOT
TORSDOF 0
ENDMDL
MODEL 8
REMARK VINA RESULT:      -9.7      2.599      4.993
REMARK  Name = 3815
REMARK  0 active torsions:
REMARK  status: ('A' for Active; 'I' for Inactive)
REMARK                            x       y       z     vdW  Elec       q    Type
REMARK                         _______ _______ _______ _____ _____    ______ ____
ROOT
ATOM      1  O   UNL     1      32.146 -21.425 -19.772  0.00  0.00    -0.270 OA
ATOM      2  N   UNL     1      37.814 -22.173 -16.561  0.00  0.00    -0.352 N 
ATOM      3  N   UNL     1      37.488 -20.604 -18.843  0.00  0.00    -0.352 N 
ATOM      4  N   UNL     1      31.978 -22.834 -17.903  0.00  0.00    -0.297 N 
ATOM      5  C   UNL     1      34.157 -22.711 -17.232  0.00  0.00    +0.003 A 
ATOM      6  C   UNL     1      35.442 -22.743 -16.691  0.00  0.00    +0.016 A 
ATOM      7  C   UNL     1      35.126 -21.245 -18.872  0.00  0.00    +0.022 A 
ATOM      8  C   UNL     1      36.610 -22.068 -17.169  0.00  0.00    +0.072 A 
ATOM      9  C   UNL     1      34.011 -21.919 -18.375  0.00  0.00    +0.053 A 
ATOM     10  C   UNL     1      36.446 -21.282 -18.312  0.00  0.00    +0.073 A 
ATOM     11  C   UNL     1      32.856 -23.343 -16.866  0.00  0.00    +0.117 C 
ATOM     12  C   UNL     1      36.114 -23.382 -15.555  0.00  0.00    +0.017 A 
ATOM     13  C   UNL     1      35.483 -20.341 -19.978  0.00  0.00    +0.017 A 
ATOM     14  C   UNL     1      37.503 -23.026 -15.511  0.00  0.00    +0.057 A 
ATOM     15  C   UNL     1      36.875 -19.990 -19.925  0.00  0.00    +0.057 A 
ATOM     16  C   UNL     1      32.621 -21.994 -18.809  0.00  0.00    +0.246 C 
ATOM     17  C   UNL     1      35.627 -24.252 -14.550  0.00  0.00    +0.001 C 
ATOM     18  C   UNL     1      34.719 -19.787 -21.034  0.00  0.00    +0.001 C 
ATOM     19  C   UNL     1      38.354 -23.515 -14.510  0.00  0.00    +0.017 C 
ATOM     20  C   UNL     1      37.458 -19.137 -20.874  0.00  0.00    +0.017 C 
ATOM     21  C   UNL     1      36.485 -24.733 -13.557  0.00  0.00    +0.000 C 
ATOM     22  C   UNL     1      35.312 -18.939 -21.975  0.00  0.00    +0.000 C 
ATOM     23  C   UNL     1      37.826 -24.370 -13.540  0.00  0.00    +0.001 C 
ATOM     24  C   UNL     1      36.661 -18.620 -21.894  0.00  0.00    +0.001 C 
ATOM     25  H   UNL     1      38.676 -21.759 -16.798  0.00  0.00    +0.166 HD
ATOM     26  H   UNL     1      38.424 -20.558 -18.544  0.00  0.00    +0.166 HD
ATOM     27  H   UNL     1      31.022 -23.060 -17.961  0.00  0.00    +0.150 HD
ENDROOT
TORSDOF 0
ENDMDL
