MODEL 1
REMARK VINA RESULT:     -11.5      0.000      0.000
REMARK  Name = 9804992
REMARK  10 active torsions:
REMARK  status: ('A' for Active; 'I' for Inactive)
REMARK    1  A    between atoms: C_1  and  C_9
REMARK    2  A    between atoms: C_1  and  O_19
REMARK    3  A    between atoms: C_2  and  C_12
REMARK    4  A    between atoms: C_12  and  N_13
REMARK    5  A    between atoms: N_13  and  C_15
REMARK    6  A    between atoms: N_13  and  C_17
REMARK    7  A    between atoms: O_19  and  C_22
REMARK    8  A    between atoms: N_21  and  C_24
REMARK    9  A    between atoms: C_27  and  C_32
REMARK   10  A    between atoms: N_31  and  O_34
REMARK                            x       y       z     vdW  Elec       q    Type
REMARK                         _______ _______ _______ _____ _____    ______ ____
ROOT
ATOM      1  C   UNL     1      34.872 -17.726 -23.251  0.00  0.00    +0.237 C 
ENDROOT
BRANCH   1   9
ATOM      2  C   UNL     1      33.378 -11.482 -24.371  0.00  0.00    -0.043 C 
ATOM      3  C   UNL     1      34.048 -13.505 -23.200  0.00  0.00    -0.000 C 
ATOM      4  C   UNL     1      33.917 -14.237 -24.405  0.00  0.00    -0.000 C 
ATOM      5  C   UNL     1      33.775 -12.128 -23.201  0.00  0.00    -0.006 C 
ATOM      6  C   UNL     1      33.251 -12.201 -25.556  0.00  0.00    -0.006 C 
ATOM      7  C   UNL     1      33.518 -13.570 -25.574  0.00  0.00    -0.000 C 
ATOM      8  C   UNL     1      34.190 -15.615 -24.404  0.00  0.00    -0.001 C 
ATOM      9  C   UNL     1      34.586 -16.262 -23.233  0.00  0.00    +0.021 C 
ATOM     10  C   UNL     1      34.447 -14.173 -22.031  0.00  0.00    -0.000 C 
ATOM     11  C   UNL     1      34.715 -15.543 -22.049  0.00  0.00    -0.001 C 
BRANCH   2  12
ATOM     12  C   UNL     1      33.092 -10.018 -24.354  0.00  0.00    -0.050 C 
BRANCH  12  13
ATOM     13  N   UNL     1      33.699  -9.345 -23.205  0.00  0.00    +0.390 N 
ATOM     14  H   UNL     1      34.016 -10.054 -22.543  0.00  0.00    -0.079 HD
BRANCH  13  15
ATOM     15  C   UNL     1      34.857  -8.559 -23.629  0.00  0.00    -0.077 C 
ATOM     16  C   UNL     1      34.873  -7.198 -22.955  0.00  0.00    -0.025 C 
ENDBRANCH  13  15
BRANCH  13  17
ATOM     17  C   UNL     1      32.718  -8.493 -22.536  0.00  0.00    -0.077 C 
ATOM     18  C   UNL     1      31.936  -9.270 -21.491  0.00  0.00    -0.025 C 
ENDBRANCH  13  17
ENDBRANCH  12  13
ENDBRANCH   2  12
ENDBRANCH   1   9
BRANCH   1  19
ATOM     19  O   UNL     1      36.049 -17.987 -22.498  0.00  0.00    -0.429 OA
BRANCH  19  22
ATOM     20  O   UNL     1      36.396 -18.081 -20.240  0.00  0.00    -0.226 OA
ATOM     21  N   UNL     1      35.026 -19.622 -21.350  0.00  0.00    -0.250 N 
ATOM     22  C   UNL     1      35.869 -18.532 -21.250  0.00  0.00    +0.406 C 
ATOM     23  H   UNL     1      34.699 -19.833 -22.255  0.00  0.00    +0.158 HD
BRANCH  21  24
ATOM     24  C   UNL     1      34.575 -20.471 -20.314  0.00  0.00    +0.053 C 
ATOM     25  C   UNL     1      33.213 -20.552 -20.022  0.00  0.00    +0.015 C 
ATOM     26  C   UNL     1      35.491 -21.228 -19.583  0.00  0.00    +0.015 C 
ATOM     27  C   UNL     1      33.685 -22.146 -18.268  0.00  0.00    +0.055 C 
ATOM     28  C   UNL     1      32.768 -21.389 -18.999  0.00  0.00    +0.006 C 
ATOM     29  C   UNL     1      35.046 -22.065 -18.560  0.00  0.00    +0.006 C 
BRANCH  27  32
ATOM     30  O   UNL     1      33.999 -23.811 -16.642  0.00  0.00    -0.268 OA
ATOM     31  N   UNL     1      31.879 -22.934 -16.854  0.00  0.00    -0.193 N 
ATOM     32  C   UNL     1      33.220 -23.018 -17.202  0.00  0.00    +0.268 C 
ATOM     33  H   UNL     1      31.269 -22.303 -17.302  0.00  0.00    +0.183 HD
BRANCH  31  34
ATOM     34  O   UNL     1      31.434 -23.787 -15.834  0.00  0.00    -0.295 OA
ATOM     35  H   UNL     1      30.469 -23.729 -15.761  0.00  0.00    +0.241 HD
ENDBRANCH  31  34
ENDBRANCH  27  32
ENDBRANCH  21  24
ENDBRANCH  19  22
ENDBRANCH   1  19
TORSDOF 10
ENDMDL
MODEL 2
REMARK VINA RESULT:     -11.2      3.327     11.540
REMARK  Name = 9804992
REMARK  10 active torsions:
REMARK  status: ('A' for Active; 'I' for Inactive)
REMARK    1  A    between atoms: C_1  and  C_9
REMARK    2  A    between atoms: C_1  and  O_19
REMARK    3  A    between atoms: C_2  and  C_12
REMARK    4  A    between atoms: C_12  and  N_13
REMARK    5  A    between atoms: N_13  and  C_15
REMARK    6  A    between atoms: N_13  and  C_17
REMARK    7  A    between atoms: O_19  and  C_22
REMARK    8  A    between atoms: N_21  and  C_24
REMARK    9  A    between atoms: C_27  and  C_32
REMARK   10  A    between atoms: N_31  and  O_34
REMARK                            x       y       z     vdW  Elec       q    Type
REMARK                         _______ _______ _______ _____ _____    ______ ____
ROOT
ATOM      1  C   UNL     1      36.669 -21.020 -19.920  0.00  0.00    +0.237 C 
ENDROOT
BRANCH   1   9
ATOM      2  C   UNL     1      32.423 -23.418 -15.595  0.00  0.00    -0.043 C 
ATOM      3  C   UNL     1      33.305 -22.379 -17.609  0.00  0.00    -0.000 C 
ATOM      4  C   UNL     1      34.619 -22.531 -17.104  0.00  0.00    -0.000 C 
ATOM      5  C   UNL     1      32.218 -22.828 -16.842  0.00  0.00    -0.006 C 
ATOM      6  C   UNL     1      33.714 -23.569 -15.099  0.00  0.00    -0.006 C 
ATOM      7  C   UNL     1      34.806 -23.129 -15.847  0.00  0.00    -0.000 C 
ATOM      8  C   UNL     1      35.706 -22.083 -17.871  0.00  0.00    -0.001 C 
ATOM      9  C   UNL     1      35.502 -21.491 -19.119  0.00  0.00    +0.021 C 
ATOM     10  C   UNL     1      33.118 -21.782 -18.867  0.00  0.00    -0.000 C 
ATOM     11  C   UNL     1      34.211 -21.341 -19.616  0.00  0.00    -0.001 C 
BRANCH   2  12
ATOM     12  C   UNL     1      31.256 -23.889 -14.794  0.00  0.00    -0.050 C 
BRANCH  12  13
ATOM     13  N   UNL     1      29.987 -23.719 -15.503  0.00  0.00    +0.390 N 
ATOM     14  H   UNL     1      30.186 -23.405 -16.453  0.00  0.00    -0.079 HD
BRANCH  13  15
ATOM     15  C   UNL     1      29.271 -24.991 -15.577  0.00  0.00    -0.077 C 
ATOM     16  C   UNL     1      29.235 -25.681 -14.224  0.00  0.00    -0.025 C 
ENDBRANCH  13  15
BRANCH  13  17
ATOM     17  C   UNL     1      29.167 -22.706 -14.843  0.00  0.00    -0.077 C 
ATOM     18  C   UNL     1      27.848 -22.507 -15.572  0.00  0.00    -0.025 C 
ENDBRANCH  13  17
ENDBRANCH  12  13
ENDBRANCH   2  12
ENDBRANCH   1   9
BRANCH   1  19
ATOM     19  O   UNL     1      36.947 -19.663 -19.596  0.00  0.00    -0.429 OA
BRANCH  19  22
ATOM     20  O   UNL     1      37.896 -18.570 -21.367  0.00  0.00    -0.226 OA
ATOM     21  N   UNL     1      35.684 -18.177 -20.707  0.00  0.00    -0.250 N 
ATOM     22  C   UNL     1      36.930 -18.770 -20.639  0.00  0.00    +0.406 C 
ATOM     23  H   UNL     1      35.030 -18.470 -20.031  0.00  0.00    +0.158 HD
BRANCH  21  24
ATOM     24  C   UNL     1      35.232 -17.203 -21.626  0.00  0.00    +0.053 C 
ATOM     25  C   UNL     1      34.902 -15.923 -21.179  0.00  0.00    +0.015 C 
ATOM     26  C   UNL     1      35.113 -17.522 -22.979  0.00  0.00    +0.015 C 
ATOM     27  C   UNL     1      34.336 -15.281 -23.439  0.00  0.00    +0.055 C 
ATOM     28  C   UNL     1      34.455 -14.962 -22.086  0.00  0.00    +0.006 C 
ATOM     29  C   UNL     1      34.666 -16.561 -23.885  0.00  0.00    +0.006 C 
BRANCH  27  32
ATOM     30  O   UNL     1      33.535 -14.599 -25.539  0.00  0.00    -0.268 OA
ATOM     31  N   UNL     1      33.827 -12.964 -23.942  0.00  0.00    -0.193 N 
ATOM     32  C   UNL     1      33.870 -14.279 -24.383  0.00  0.00    +0.268 C 
ATOM     33  H   UNL     1      34.093 -12.719 -23.025  0.00  0.00    +0.183 HD
BRANCH  31  34
ATOM     34  O   UNL     1      33.388 -12.001 -24.861  0.00  0.00    -0.295 OA
ATOM     35  H   UNL     1      33.593 -12.296 -25.762  0.00  0.00    +0.241 HD
ENDBRANCH  31  34
ENDBRANCH  27  32
ENDBRANCH  21  24
ENDBRANCH  19  22
ENDBRANCH   1  19
TORSDOF 10
ENDMDL
MODEL 3
REMARK VINA RESULT:     -11.1      3.016     11.085
REMARK  Name = 9804992
REMARK  10 active torsions:
REMARK  status: ('A' for Active; 'I' for Inactive)
REMARK    1  A    between atoms: C_1  and  C_9
REMARK    2  A    between atoms: C_1  and  O_19
REMARK    3  A    between atoms: C_2  and  C_12
REMARK    4  A    between atoms: C_12  and  N_13
REMARK    5  A    between atoms: N_13  and  C_15
REMARK    6  A    between atoms: N_13  and  C_17
REMARK    7  A    between atoms: O_19  and  C_22
REMARK    8  A    between atoms: N_21  and  C_24
REMARK    9  A    between atoms: C_27  and  C_32
REMARK   10  A    between atoms: N_31  and  O_34
REMARK                            x       y       z     vdW  Elec       q    Type
REMARK                         _______ _______ _______ _____ _____    ______ ____
ROOT
ATOM      1  C   UNL     1      36.122 -17.710 -22.202  0.00  0.00    +0.237 C 
ENDROOT
BRANCH   1   9
ATOM      2  C   UNL     1      33.809 -22.437 -18.357  0.00  0.00    -0.043 C 
ATOM      3  C   UNL     1      35.378 -20.959 -19.484  0.00  0.00    -0.000 C 
ATOM      4  C   UNL     1      34.296 -20.315 -20.131  0.00  0.00    -0.000 C 
ATOM      5  C   UNL     1      35.118 -22.019 -18.600  0.00  0.00    -0.006 C 
ATOM      6  C   UNL     1      32.746 -21.803 -18.992  0.00  0.00    -0.006 C 
ATOM      7  C   UNL     1      32.985 -20.750 -19.873  0.00  0.00    -0.000 C 
ATOM      8  C   UNL     1      34.556 -19.256 -21.015  0.00  0.00    -0.001 C 
ATOM      9  C   UNL     1      35.865 -18.837 -21.259  0.00  0.00    +0.021 C 
ATOM     10  C   UNL     1      36.688 -20.525 -19.742  0.00  0.00    -0.000 C 
ATOM     11  C   UNL     1      36.928 -19.470 -20.624  0.00  0.00    -0.001 C 
BRANCH   2  12
ATOM     12  C   UNL     1      33.551 -23.565 -17.414  0.00  0.00    -0.050 C 
BRANCH  12  13
ATOM     13  N   UNL     1      33.267 -23.101 -16.056  0.00  0.00    +0.390 N 
ATOM     14  H   UNL     1      33.369 -22.087 -16.030  0.00  0.00    -0.079 HD
BRANCH  13  15
ATOM     15  C   UNL     1      31.895 -23.437 -15.680  0.00  0.00    -0.077 C 
ATOM     16  C   UNL     1      31.536 -22.845 -14.328  0.00  0.00    -0.025 C 
ENDBRANCH  13  15
BRANCH  13  17
ATOM     17  C   UNL     1      34.215 -23.686 -15.109  0.00  0.00    -0.077 C 
ATOM     18  C   UNL     1      35.438 -22.800 -14.939  0.00  0.00    -0.025 C 
ENDBRANCH  13  17
ENDBRANCH  12  13
ENDBRANCH   2  12
ENDBRANCH   1   9
BRANCH   1  19
ATOM     19  O   UNL     1      35.289 -17.851 -23.346  0.00  0.00    -0.429 OA
BRANCH  19  22
ATOM     20  O   UNL     1      33.895 -16.689 -24.737  0.00  0.00    -0.226 OA
ATOM     21  N   UNL     1      34.665 -15.789 -22.718  0.00  0.00    -0.250 N 
ATOM     22  C   UNL     1      34.546 -16.752 -23.700  0.00  0.00    +0.406 C 
ATOM     23  H   UNL     1      35.236 -16.024 -21.950  0.00  0.00    +0.158 HD
BRANCH  21  24
ATOM     24  C   UNL     1      34.068 -14.509 -22.676  0.00  0.00    +0.053 C 
ATOM     25  C   UNL     1      33.411 -14.083 -21.521  0.00  0.00    +0.015 C 
ATOM     26  C   UNL     1      34.134 -13.672 -23.790  0.00  0.00    +0.015 C 
ATOM     27  C   UNL     1      32.888 -11.982 -22.594  0.00  0.00    +0.055 C 
ATOM     28  C   UNL     1      32.821 -12.819 -21.480  0.00  0.00    +0.006 C 
ATOM     29  C   UNL     1      33.544 -12.408 -23.749  0.00  0.00    +0.006 C 
BRANCH  27  32
ATOM     30  O   UNL     1      31.321 -10.432 -21.783  0.00  0.00    -0.268 OA
ATOM     31  N   UNL     1      32.782  -9.700 -23.406  0.00  0.00    -0.193 N 
ATOM     32  C   UNL     1      32.272 -10.666 -22.551  0.00  0.00    +0.268 C 
ATOM     33  H   UNL     1      33.536  -9.893 -24.011  0.00  0.00    +0.183 HD
BRANCH  31  34
ATOM     34  O   UNL     1      32.176  -8.436 -23.369  0.00  0.00    -0.295 OA
ATOM     35  H   UNL     1      31.225  -8.537 -23.206  0.00  0.00    +0.241 HD
ENDBRANCH  31  34
ENDBRANCH  27  32
ENDBRANCH  21  24
ENDBRANCH  19  22
ENDBRANCH   1  19
TORSDOF 10
ENDMDL
MODEL 4
REMARK VINA RESULT:     -10.8      3.892     12.367
REMARK  Name = 9804992
REMARK  10 active torsions:
REMARK  status: ('A' for Active; 'I' for Inactive)
REMARK    1  A    between atoms: C_1  and  C_9
REMARK    2  A    between atoms: C_1  and  O_19
REMARK    3  A    between atoms: C_2  and  C_12
REMARK    4  A    between atoms: C_12  and  N_13
REMARK    5  A    between atoms: N_13  and  C_15
REMARK    6  A    between atoms: N_13  and  C_17
REMARK    7  A    between atoms: O_19  and  C_22
REMARK    8  A    between atoms: N_21  and  C_24
REMARK    9  A    between atoms: C_27  and  C_32
REMARK   10  A    between atoms: N_31  and  O_34
REMARK                            x       y       z     vdW  Elec       q    Type
REMARK                         _______ _______ _______ _____ _____    ______ ____
ROOT
ATOM      1  C   UNL     1      35.580 -20.661 -20.274  0.00  0.00    +0.237 C 
ENDROOT
BRANCH   1   9
ATOM      2  C   UNL     1      36.264 -23.570 -14.481  0.00  0.00    -0.043 C 
ATOM      3  C   UNL     1      35.255 -22.796 -16.555  0.00  0.00    -0.000 C 
ATOM      4  C   UNL     1      36.476 -22.176 -16.910  0.00  0.00    -0.000 C 
ATOM      5  C   UNL     1      35.165 -23.489 -15.337  0.00  0.00    -0.006 C 
ATOM      6  C   UNL     1      37.465 -22.961 -14.831  0.00  0.00    -0.006 C 
ATOM      7  C   UNL     1      37.572 -22.268 -16.037  0.00  0.00    -0.000 C 
ATOM      8  C   UNL     1      36.566 -21.484 -18.128  0.00  0.00    -0.001 C 
ATOM      9  C   UNL     1      35.467 -21.402 -18.984  0.00  0.00    +0.021 C 
ATOM     10  C   UNL     1      34.159 -22.705 -17.428  0.00  0.00    -0.000 C 
ATOM     11  C   UNL     1      34.266 -22.012 -18.635  0.00  0.00    -0.001 C 
BRANCH   2  12
ATOM     12  C   UNL     1      36.150 -24.310 -13.191  0.00  0.00    -0.050 C 
BRANCH  12  13
ATOM     13  N   UNL     1      37.435 -24.847 -12.742  0.00  0.00    +0.390 N 
ATOM     14  H   UNL     1      38.177 -24.419 -13.295  0.00  0.00    -0.079 HD
BRANCH  13  15
ATOM     15  C   UNL     1      37.660 -24.521 -11.335  0.00  0.00    -0.077 C 
ATOM     16  C   UNL     1      37.351 -23.061 -11.053  0.00  0.00    -0.025 C 
ENDBRANCH  13  15
BRANCH  13  17
ATOM     17  C   UNL     1      37.482 -26.293 -12.947  0.00  0.00    -0.077 C 
ATOM     18  C   UNL     1      38.327 -26.650 -14.159  0.00  0.00    -0.025 C 
ENDBRANCH  13  17
ENDBRANCH  12  13
ENDBRANCH   2  12
ENDBRANCH   1   9
BRANCH   1  19
ATOM     19  O   UNL     1      36.822 -19.969 -20.313  0.00  0.00    -0.429 OA
BRANCH  19  22
ATOM     20  O   UNL     1      37.887 -18.360 -21.541  0.00  0.00    -0.226 OA
ATOM     21  N   UNL     1      35.577 -18.305 -21.163  0.00  0.00    -0.250 N 
ATOM     22  C   UNL     1      36.856 -18.817 -21.061  0.00  0.00    +0.406 C 
ATOM     23  H   UNL     1      34.870 -18.818 -20.707  0.00  0.00    +0.158 HD
BRANCH  21  24
ATOM     24  C   UNL     1      35.157 -17.138 -21.841  0.00  0.00    +0.053 C 
ATOM     25  C   UNL     1      34.898 -15.971 -21.123  0.00  0.00    +0.015 C 
ATOM     26  C   UNL     1      35.002 -17.154 -23.227  0.00  0.00    +0.015 C 
ATOM     27  C   UNL     1      34.327 -14.835 -23.178  0.00  0.00    +0.055 C 
ATOM     28  C   UNL     1      34.483 -14.819 -21.791  0.00  0.00    +0.006 C 
ATOM     29  C   UNL     1      34.586 -16.003 -23.895  0.00  0.00    +0.006 C 
BRANCH  27  32
ATOM     30  O   UNL     1      33.304 -13.710 -24.968  0.00  0.00    -0.268 OA
ATOM     31  N   UNL     1      34.177 -12.417 -23.273  0.00  0.00    -0.193 N 
ATOM     32  C   UNL     1      33.894 -13.634 -23.874  0.00  0.00    +0.268 C 
ATOM     33  H   UNL     1      34.645 -12.366 -22.407  0.00  0.00    +0.183 HD
BRANCH  31  34
ATOM     34  O   UNL     1      33.768 -11.262 -23.955  0.00  0.00    -0.295 OA
ATOM     35  H   UNL     1      33.814 -11.417 -24.912  0.00  0.00    +0.241 HD
ENDBRANCH  31  34
ENDBRANCH  27  32
ENDBRANCH  21  24
ENDBRANCH  19  22
ENDBRANCH   1  19
TORSDOF 10
ENDMDL
MODEL 5
REMARK VINA RESULT:     -10.8      1.016      2.208
REMARK  Name = 9804992
REMARK  10 active torsions:
REMARK  status: ('A' for Active; 'I' for Inactive)
REMARK    1  A    between atoms: C_1  and  C_9
REMARK    2  A    between atoms: C_1  and  O_19
REMARK    3  A    between atoms: C_2  and  C_12
REMARK    4  A    between atoms: C_12  and  N_13
REMARK    5  A    between atoms: N_13  and  C_15
REMARK    6  A    between atoms: N_13  and  C_17
REMARK    7  A    between atoms: O_19  and  C_22
REMARK    8  A    between atoms: N_21  and  C_24
REMARK    9  A    between atoms: C_27  and  C_32
REMARK   10  A    between atoms: N_31  and  O_34
REMARK                            x       y       z     vdW  Elec       q    Type
REMARK                         _______ _______ _______ _____ _____    ______ ____
ROOT
ATOM      1  C   UNL     1      35.674 -18.334 -23.180  0.00  0.00    +0.237 C 
ENDROOT
BRANCH   1   9
ATOM      2  C   UNL     1      32.976 -12.448 -22.435  0.00  0.00    -0.043 C 
ATOM      3  C   UNL     1      33.739 -14.505 -23.484  0.00  0.00    -0.000 C 
ATOM      4  C   UNL     1      34.239 -14.948 -22.236  0.00  0.00    -0.000 C 
ATOM      5  C   UNL     1      33.110 -13.253 -23.566  0.00  0.00    -0.006 C 
ATOM      6  C   UNL     1      33.468 -12.884 -21.208  0.00  0.00    -0.006 C 
ATOM      7  C   UNL     1      34.095 -14.125 -21.108  0.00  0.00    -0.000 C 
ATOM      8  C   UNL     1      34.868 -16.201 -22.154  0.00  0.00    -0.001 C 
ATOM      9  C   UNL     1      35.003 -17.006 -23.286  0.00  0.00    +0.021 C 
ATOM     10  C   UNL     1      33.883 -15.329 -24.613  0.00  0.00    -0.000 C 
ATOM     11  C   UNL     1      34.510 -16.571 -24.513  0.00  0.00    -0.001 C 
BRANCH   2  12
ATOM     12  C   UNL     1      32.306 -11.119 -22.540  0.00  0.00    -0.050 C 
BRANCH  12  13
ATOM     13  N   UNL     1      32.855 -10.302 -23.623  0.00  0.00    +0.390 N 
ATOM     14  H   UNL     1      32.477 -10.639 -24.508  0.00  0.00    -0.079 HD
BRANCH  13  15
ATOM     15  C   UNL     1      32.463  -8.904 -23.455  0.00  0.00    -0.077 C 
ATOM     16  C   UNL     1      31.802  -8.677 -22.106  0.00  0.00    -0.025 C 
ENDBRANCH  13  15
BRANCH  13  17
ATOM     17  C   UNL     1      34.311 -10.425 -23.665  0.00  0.00    -0.077 C 
ATOM     18  C   UNL     1      34.955  -9.148 -24.180  0.00  0.00    -0.025 C 
ENDBRANCH  13  17
ENDBRANCH  12  13
ENDBRANCH   2  12
ENDBRANCH   1   9
BRANCH   1  19
ATOM     19  O   UNL     1      36.712 -18.263 -22.211  0.00  0.00    -0.429 OA
BRANCH  19  22
ATOM     20  O   UNL     1      37.026 -18.502 -19.959  0.00  0.00    -0.226 OA
ATOM     21  N   UNL     1      35.457 -19.780 -21.135  0.00  0.00    -0.250 N 
ATOM     22  C   UNL     1      36.447 -18.829 -20.988  0.00  0.00    +0.406 C 
ATOM     23  H   UNL     1      35.108 -19.903 -22.048  0.00  0.00    +0.158 HD
BRANCH  21  24
ATOM     24  C   UNL     1      34.881 -20.599 -20.137  0.00  0.00    +0.053 C 
ATOM     25  C   UNL     1      35.696 -21.409 -19.345  0.00  0.00    +0.015 C 
ATOM     26  C   UNL     1      33.500 -20.599 -19.946  0.00  0.00    +0.015 C 
ATOM     27  C   UNL     1      33.746 -22.218 -18.169  0.00  0.00    +0.055 C 
ATOM     28  C   UNL     1      35.128 -22.219 -18.361  0.00  0.00    +0.006 C 
ATOM     29  C   UNL     1      32.932 -21.409 -18.962  0.00  0.00    +0.006 C 
BRANCH  27  32
ATOM     30  O   UNL     1      33.833 -23.931 -16.565  0.00  0.00    -0.268 OA
ATOM     31  N   UNL     1      31.812 -22.863 -16.855  0.00  0.00    -0.193 N 
ATOM     32  C   UNL     1      33.154 -23.063 -17.144  0.00  0.00    +0.268 C 
ATOM     33  H   UNL     1      31.283 -22.172 -17.318  0.00  0.00    +0.183 HD
BRANCH  31  34
ATOM     34  O   UNL     1      31.245 -23.689 -15.875  0.00  0.00    -0.295 OA
ATOM     35  H   UNL     1      31.561 -23.416 -14.999  0.00  0.00    +0.241 HD
ENDBRANCH  31  34
ENDBRANCH  27  32
ENDBRANCH  21  24
ENDBRANCH  19  22
ENDBRANCH   1  19
TORSDOF 10
ENDMDL
MODEL 6
REMARK VINA RESULT:     -10.7      2.114      3.618
REMARK  Name = 9804992
REMARK  10 active torsions:
REMARK  status: ('A' for Active; 'I' for Inactive)
REMARK    1  A    between atoms: C_1  and  C_9
REMARK    2  A    between atoms: C_1  and  O_19
REMARK    3  A    between atoms: C_2  and  C_12
REMARK    4  A    between atoms: C_12  and  N_13
REMARK    5  A    between atoms: N_13  and  C_15
REMARK    6  A    between atoms: N_13  and  C_17
REMARK    7  A    between atoms: O_19  and  C_22
REMARK    8  A    between atoms: N_21  and  C_24
REMARK    9  A    between atoms: C_27  and  C_32
REMARK   10  A    between atoms: N_31  and  O_34
REMARK                            x       y       z     vdW  Elec       q    Type
REMARK                         _______ _______ _______ _____ _____    ______ ____
ROOT
ATOM      1  C   UNL     1      33.688 -15.225 -24.200  0.00  0.00    +0.237 C 
ENDROOT
BRANCH   1   9
ATOM      2  C   UNL     1      32.042  -9.418 -21.741  0.00  0.00    -0.043 C 
ATOM      3  C   UNL     1      32.974 -11.095 -23.235  0.00  0.00    -0.000 C 
ATOM      4  C   UNL     1      32.508 -12.114 -22.371  0.00  0.00    -0.000 C 
ATOM      5  C   UNL     1      32.733  -9.752 -22.906  0.00  0.00    -0.006 C 
ATOM      6  C   UNL     1      31.583 -10.420 -20.891  0.00  0.00    -0.006 C 
ATOM      7  C   UNL     1      31.814 -11.760 -21.203  0.00  0.00    -0.000 C 
ATOM      8  C   UNL     1      32.749 -13.458 -22.701  0.00  0.00    -0.001 C 
ATOM      9  C   UNL     1      33.441 -13.792 -23.866  0.00  0.00    +0.021 C 
ATOM     10  C   UNL     1      33.668 -11.450 -24.404  0.00  0.00    -0.000 C 
ATOM     11  C   UNL     1      33.898 -12.790 -24.716  0.00  0.00    -0.001 C 
BRANCH   2  12
ATOM     12  C   UNL     1      31.795  -7.985 -21.406  0.00  0.00    -0.050 C 
BRANCH  12  13
ATOM     13  N   UNL     1      32.216  -7.082 -22.477  0.00  0.00    +0.390 N 
ATOM     14  H   UNL     1      32.409  -7.635 -23.312  0.00  0.00    -0.079 HD
BRANCH  13  15
ATOM     15  C   UNL     1      31.150  -6.131 -22.790  0.00  0.00    -0.077 C 
ATOM     16  C   UNL     1      30.735  -5.347 -21.557  0.00  0.00    -0.025 C 
ENDBRANCH  13  15
BRANCH  13  17
ATOM     17  C   UNL     1      33.438  -6.376 -22.098  0.00  0.00    -0.077 C 
ATOM     18  C   UNL     1      34.642  -6.919 -22.849  0.00  0.00    -0.025 C 
ENDBRANCH  13  17
ENDBRANCH  12  13
ENDBRANCH   2  12
ENDBRANCH   1   9
BRANCH   1  19
ATOM     19  O   UNL     1      34.984 -15.598 -23.748  0.00  0.00    -0.429 OA
BRANCH  19  22
ATOM     20  O   UNL     1      34.917 -15.649 -21.463  0.00  0.00    -0.226 OA
ATOM     21  N   UNL     1      35.272 -17.581 -22.737  0.00  0.00    -0.250 N 
ATOM     22  C   UNL     1      35.048 -16.234 -22.532  0.00  0.00    +0.406 C 
ATOM     23  H   UNL     1      35.349 -17.868 -23.676  0.00  0.00    +0.158 HD
BRANCH  21  24
ATOM     24  C   UNL     1      35.405 -18.599 -21.766  0.00  0.00    +0.053 C 
ATOM     25  C   UNL     1      36.623 -18.783 -21.111  0.00  0.00    +0.015 C 
ATOM     26  C   UNL     1      34.319 -19.421 -21.463  0.00  0.00    +0.015 C 
ATOM     27  C   UNL     1      35.668 -20.611 -19.850  0.00  0.00    +0.055 C 
ATOM     28  C   UNL     1      36.755 -19.789 -20.153  0.00  0.00    +0.006 C 
ATOM     29  C   UNL     1      34.451 -20.427 -20.505  0.00  0.00    +0.006 C 
BRANCH  27  32
ATOM     30  O   UNL     1      35.107 -22.688 -18.908  0.00  0.00    -0.268 OA
ATOM     31  N   UNL     1      36.735 -21.453 -17.842  0.00  0.00    -0.193 N 
ATOM     32  C   UNL     1      35.806 -21.659 -18.852  0.00  0.00    +0.268 C 
ATOM     33  H   UNL     1      37.285 -20.636 -17.806  0.00  0.00    +0.183 HD
BRANCH  31  34
ATOM     34  O   UNL     1      36.854 -22.462 -16.876  0.00  0.00    -0.295 OA
ATOM     35  H   UNL     1      36.235 -23.180 -17.079  0.00  0.00    +0.241 HD
ENDBRANCH  31  34
ENDBRANCH  27  32
ENDBRANCH  21  24
ENDBRANCH  19  22
ENDBRANCH   1  19
TORSDOF 10
ENDMDL
MODEL 7
REMARK VINA RESULT:     -10.7      4.859     12.185
REMARK  Name = 9804992
REMARK  10 active torsions:
REMARK  status: ('A' for Active; 'I' for Inactive)
REMARK    1  A    between atoms: C_1  and  C_9
REMARK    2  A    between atoms: C_1  and  O_19
REMARK    3  A    between atoms: C_2  and  C_12
REMARK    4  A    between atoms: C_12  and  N_13
REMARK    5  A    between atoms: N_13  and  C_15
REMARK    6  A    between atoms: N_13  and  C_17
REMARK    7  A    between atoms: O_19  and  C_22
REMARK    8  A    between atoms: N_21  and  C_24
REMARK    9  A    between atoms: C_27  and  C_32
REMARK   10  A    between atoms: N_31  and  O_34
REMARK                            x       y       z     vdW  Elec       q    Type
REMARK                         _______ _______ _______ _____ _____    ______ ____
ROOT
ATOM      1  C   UNL     1      33.592 -12.893 -23.659  0.00  0.00    +0.237 C 
ENDROOT
BRANCH   1   9
ATOM      2  C   UNL     1      35.764 -18.562 -21.288  0.00  0.00    -0.043 C 
ATOM      3  C   UNL     1      34.962 -16.267 -21.372  0.00  0.00    -0.000 C 
ATOM      4  C   UNL     1      34.869 -16.359 -22.781  0.00  0.00    -0.000 C 
ATOM      5  C   UNL     1      35.412 -17.378 -20.640  0.00  0.00    -0.006 C 
ATOM      6  C   UNL     1      35.672 -18.652 -22.674  0.00  0.00    -0.006 C 
ATOM      7  C   UNL     1      35.227 -17.559 -23.417  0.00  0.00    -0.000 C 
ATOM      8  C   UNL     1      34.419 -15.248 -23.513  0.00  0.00    -0.001 C 
ATOM      9  C   UNL     1      34.067 -14.063 -22.866  0.00  0.00    +0.021 C 
ATOM     10  C   UNL     1      34.604 -15.067 -20.737  0.00  0.00    -0.000 C 
ATOM     11  C   UNL     1      34.158 -13.973 -21.480  0.00  0.00    -0.001 C 
BRANCH   2  12
ATOM     12  C   UNL     1      36.240 -19.733 -20.495  0.00  0.00    -0.050 C 
BRANCH  12  13
ATOM     13  N   UNL     1      35.172 -20.335 -19.696  0.00  0.00    +0.390 N 
ATOM     14  H   UNL     1      34.993 -19.737 -18.889  0.00  0.00    -0.079 HD
BRANCH  13  15
ATOM     15  C   UNL     1      33.943 -20.433 -20.481  0.00  0.00    -0.077 C 
ATOM     16  C   UNL     1      32.775 -20.879 -19.618  0.00  0.00    -0.025 C 
ENDBRANCH  13  15
BRANCH  13  17
ATOM     17  C   UNL     1      35.579 -21.653 -19.213  0.00  0.00    -0.077 C 
ATOM     18  C   UNL     1      36.616 -21.539 -18.109  0.00  0.00    -0.025 C 
ENDBRANCH  13  17
ENDBRANCH  12  13
ENDBRANCH   2  12
ENDBRANCH   1   9
BRANCH   1  19
ATOM     19  O   UNL     1      33.012 -11.933 -22.786  0.00  0.00    -0.429 OA
BRANCH  19  22
ATOM     20  O   UNL     1      33.755 -10.247 -24.140  0.00  0.00    -0.226 OA
ATOM     21  N   UNL     1      32.319  -9.846 -22.335  0.00  0.00    -0.250 N 
ATOM     22  C   UNL     1      33.091 -10.620 -23.180  0.00  0.00    +0.406 C 
ATOM     23  H   UNL     1      31.853 -10.329 -21.613  0.00  0.00    +0.158 HD
BRANCH  21  24
ATOM     24  C   UNL     1      32.116  -8.448 -22.377  0.00  0.00    +0.053 C 
ATOM     25  C   UNL     1      32.529  -7.652 -21.308  0.00  0.00    +0.015 C 
ATOM     26  C   UNL     1      31.501  -7.866 -23.485  0.00  0.00    +0.015 C 
ATOM     27  C   UNL     1      31.712  -5.689 -22.458  0.00  0.00    +0.055 C 
ATOM     28  C   UNL     1      32.328  -6.272 -21.349  0.00  0.00    +0.006 C 
ATOM     29  C   UNL     1      31.299  -6.486 -23.525  0.00  0.00    +0.006 C 
BRANCH  27  32
ATOM     30  O   UNL     1      32.155  -3.534 -23.279  0.00  0.00    -0.268 OA
ATOM     31  N   UNL     1      30.559  -3.724 -21.629  0.00  0.00    -0.193 N 
ATOM     32  C   UNL     1      31.502  -4.251 -22.499  0.00  0.00    +0.268 C 
ATOM     33  H   UNL     1      30.046  -4.299 -21.015  0.00  0.00    +0.183 HD
BRANCH  31  34
ATOM     34  O   UNL     1      30.370  -2.335 -21.665  0.00  0.00    -0.295 OA
ATOM     35  H   UNL     1      30.323  -2.038 -22.587  0.00  0.00    +0.241 HD
ENDBRANCH  31  34
ENDBRANCH  27  32
ENDBRANCH  21  24
ENDBRANCH  19  22
ENDBRANCH   1  19
TORSDOF 10
ENDMDL
MODEL 8
REMARK VINA RESULT:     -10.7      2.863     11.613
REMARK  Name = 9804992
REMARK  10 active torsions:
REMARK  status: ('A' for Active; 'I' for Inactive)
REMARK    1  A    between atoms: C_1  and  C_9
REMARK    2  A    between atoms: C_1  and  O_19
REMARK    3  A    between atoms: C_2  and  C_12
REMARK    4  A    between atoms: C_12  and  N_13
REMARK    5  A    between atoms: N_13  and  C_15
REMARK    6  A    between atoms: N_13  and  C_17
REMARK    7  A    between atoms: O_19  and  C_22
REMARK    8  A    between atoms: N_21  and  C_24
REMARK    9  A    between atoms: C_27  and  C_32
REMARK   10  A    between atoms: N_31  and  O_34
REMARK                            x       y       z     vdW  Elec       q    Type
REMARK                         _______ _______ _______ _____ _____    ______ ____
ROOT
ATOM      1  C   UNL     1      36.291 -20.050 -20.609  0.00  0.00    +0.237 C 
ENDROOT
BRANCH   1   9
ATOM      2  C   UNL     1      32.599 -23.346 -16.369  0.00  0.00    -0.043 C 
ATOM      3  C   UNL     1      33.232 -21.934 -18.245  0.00  0.00    -0.000 C 
ATOM      4  C   UNL     1      34.596 -22.116 -17.913  0.00  0.00    -0.000 C 
ATOM      5  C   UNL     1      32.246 -22.555 -17.463  0.00  0.00    -0.006 C 
ATOM      6  C   UNL     1      33.940 -23.526 -16.043  0.00  0.00    -0.006 C 
ATOM      7  C   UNL     1      34.933 -22.916 -16.809  0.00  0.00    -0.000 C 
ATOM      8  C   UNL     1      35.582 -21.495 -18.696  0.00  0.00    -0.001 C 
ATOM      9  C   UNL     1      35.230 -20.703 -19.790  0.00  0.00    +0.021 C 
ATOM     10  C   UNL     1      32.896 -21.134 -19.349  0.00  0.00    -0.000 C 
ATOM     11  C   UNL     1      33.889 -20.524 -20.116  0.00  0.00    -0.001 C 
BRANCH   2  12
ATOM     12  C   UNL     1      31.537 -23.999 -15.548  0.00  0.00    -0.050 C 
BRANCH  12  13
ATOM     13  N   UNL     1      30.971 -23.094 -14.548  0.00  0.00    +0.390 N 
ATOM     14  H   UNL     1      31.491 -22.217 -14.571  0.00  0.00    -0.079 HD
BRANCH  13  15
ATOM     15  C   UNL     1      29.570 -22.809 -14.855  0.00  0.00    -0.077 C 
ATOM     16  C   UNL     1      28.832 -24.068 -15.274  0.00  0.00    -0.025 C 
ENDBRANCH  13  15
BRANCH  13  17
ATOM     17  C   UNL     1      31.096 -23.670 -13.210  0.00  0.00    -0.077 C 
ATOM     18  C   UNL     1      31.801 -25.015 -13.255  0.00  0.00    -0.025 C 
ENDBRANCH  13  17
ENDBRANCH  12  13
ENDBRANCH   2  12
ENDBRANCH   1   9
BRANCH   1  19
ATOM     19  O   UNL     1      35.693 -19.383 -21.713  0.00  0.00    -0.429 OA
BRANCH  19  22
ATOM     20  O   UNL     1      35.630 -17.444 -20.503  0.00  0.00    -0.226 OA
ATOM     21  N   UNL     1      34.975 -17.526 -22.749  0.00  0.00    -0.250 N 
ATOM     22  C   UNL     1      35.445 -18.041 -21.557  0.00  0.00    +0.406 C 
ATOM     23  H   UNL     1      34.893 -18.166 -23.493  0.00  0.00    +0.158 HD
BRANCH  21  24
ATOM     24  C   UNL     1      34.599 -16.194 -23.034  0.00  0.00    +0.053 C 
ATOM     25  C   UNL     1      34.127 -15.859 -24.304  0.00  0.00    +0.015 C 
ATOM     26  C   UNL     1      34.699 -15.214 -22.046  0.00  0.00    +0.015 C 
ATOM     27  C   UNL     1      33.857 -13.564 -23.597  0.00  0.00    +0.055 C 
ATOM     28  C   UNL     1      33.756 -14.544 -24.585  0.00  0.00    +0.006 C 
ATOM     29  C   UNL     1      34.328 -13.899 -22.327  0.00  0.00    +0.006 C 
BRANCH  27  32
ATOM     30  O   UNL     1      33.622 -11.720 -25.032  0.00  0.00    -0.268 OA
ATOM     31  N   UNL     1      32.943 -11.447 -22.848  0.00  0.00    -0.193 N 
ATOM     32  C   UNL     1      33.471 -12.194 -23.891  0.00  0.00    +0.268 C 
ATOM     33  H   UNL     1      32.826 -11.829 -21.947  0.00  0.00    +0.183 HD
BRANCH  31  34
ATOM     34  O   UNL     1      32.584 -10.122 -23.135  0.00  0.00    -0.295 OA
ATOM     35  H   UNL     1      33.021  -9.837 -23.952  0.00  0.00    +0.241 HD
ENDBRANCH  31  34
ENDBRANCH  27  32
ENDBRANCH  21  24
ENDBRANCH  19  22
ENDBRANCH   1  19
TORSDOF 10
ENDMDL
MODEL 9
REMARK VINA RESULT:     -10.6      1.786      2.698
REMARK  Name = 9804992
REMARK  10 active torsions:
REMARK  status: ('A' for Active; 'I' for Inactive)
REMARK    1  A    between atoms: C_1  and  C_9
REMARK    2  A    between atoms: C_1  and  O_19
REMARK    3  A    between atoms: C_2  and  C_12
REMARK    4  A    between atoms: C_12  and  N_13
REMARK    5  A    between atoms: N_13  and  C_15
REMARK    6  A    between atoms: N_13  and  C_17
REMARK    7  A    between atoms: O_19  and  C_22
REMARK    8  A    between atoms: N_21  and  C_24
REMARK    9  A    between atoms: C_27  and  C_32
REMARK   10  A    between atoms: N_31  and  O_34
REMARK                            x       y       z     vdW  Elec       q    Type
REMARK                         _______ _______ _______ _____ _____    ______ ____
ROOT
ATOM      1  C   UNL     1      35.589 -19.116 -22.705  0.00  0.00    +0.237 C 
ENDROOT
BRANCH   1   9
ATOM      2  C   UNL     1      33.634 -12.906 -23.026  0.00  0.00    -0.043 C 
ATOM      3  C   UNL     1      34.100 -15.201 -23.683  0.00  0.00    -0.000 C 
ATOM      4  C   UNL     1      34.605 -15.463 -22.387  0.00  0.00    -0.000 C 
ATOM      5  C   UNL     1      33.618 -13.918 -23.987  0.00  0.00    -0.006 C 
ATOM      6  C   UNL     1      34.130 -13.164 -21.752  0.00  0.00    -0.006 C 
ATOM      7  C   UNL     1      34.613 -14.433 -21.433  0.00  0.00    -0.000 C 
ATOM      8  C   UNL     1      35.087 -16.746 -22.084  0.00  0.00    -0.001 C 
ATOM      9  C   UNL     1      35.072 -17.758 -23.045  0.00  0.00    +0.021 C 
ATOM     10  C   UNL     1      34.093 -16.231 -24.638  0.00  0.00    -0.000 C 
ATOM     11  C   UNL     1      34.576 -17.501 -24.319  0.00  0.00    -0.001 C 
BRANCH   2  12
ATOM     12  C   UNL     1      33.118 -11.548 -23.366  0.00  0.00    -0.050 C 
BRANCH  12  13
ATOM     13  N   UNL     1      34.186 -10.630 -23.764  0.00  0.00    +0.390 N 
ATOM     14  H   UNL     1      35.025 -10.856 -23.231  0.00  0.00    -0.079 HD
BRANCH  13  15
ATOM     15  C   UNL     1      34.487 -10.787 -25.187  0.00  0.00    -0.077 C 
ATOM     16  C   UNL     1      35.656  -9.909 -25.600  0.00  0.00    -0.025 C 
ENDBRANCH  13  15
BRANCH  13  17
ATOM     17  C   UNL     1      33.808  -9.250 -23.470  0.00  0.00    -0.077 C 
ATOM     18  C   UNL     1      32.539  -9.193 -22.635  0.00  0.00    -0.025 C 
ENDBRANCH  13  17
ENDBRANCH  12  13
ENDBRANCH   2  12
ENDBRANCH   1   9
BRANCH   1  19
ATOM     19  O   UNL     1      34.703 -19.742 -21.786  0.00  0.00    -0.429 OA
BRANCH  19  22
ATOM     20  O   UNL     1      36.176 -19.471 -20.057  0.00  0.00    -0.226 OA
ATOM     21  N   UNL     1      34.506 -21.111 -20.018  0.00  0.00    -0.250 N 
ATOM     22  C   UNL     1      35.224 -20.060 -20.555  0.00  0.00    +0.406 C 
ATOM     23  H   UNL     1      33.767 -21.456 -20.571  0.00  0.00    +0.158 HD
BRANCH  21  24
ATOM     24  C   UNL     1      34.700 -21.752 -18.774  0.00  0.00    +0.053 C 
ATOM     25  C   UNL     1      33.632 -22.394 -18.146  0.00  0.00    +0.015 C 
ATOM     26  C   UNL     1      35.959 -21.744 -18.173  0.00  0.00    +0.015 C 
ATOM     27  C   UNL     1      35.082 -23.017 -16.317  0.00  0.00    +0.055 C 
ATOM     28  C   UNL     1      33.823 -23.026 -16.918  0.00  0.00    +0.006 C 
ATOM     29  C   UNL     1      36.150 -22.376 -16.945  0.00  0.00    +0.006 C 
BRANCH  27  32
ATOM     30  O   UNL     1      35.486 -24.903 -14.976  0.00  0.00    -0.268 OA
ATOM     31  N   UNL     1      35.218 -22.883 -13.900  0.00  0.00    -0.193 N 
ATOM     32  C   UNL     1      35.281 -23.676 -15.036  0.00  0.00    +0.268 C 
ATOM     33  H   UNL     1      35.056 -21.913 -13.956  0.00  0.00    +0.183 HD
BRANCH  31  34
ATOM     34  O   UNL     1      35.398 -23.527 -12.667  0.00  0.00    -0.295 OA
ATOM     35  H   UNL     1      35.095 -22.946 -11.951  0.00  0.00    +0.241 HD
ENDBRANCH  31  34
ENDBRANCH  27  32
ENDBRANCH  21  24
ENDBRANCH  19  22
ENDBRANCH   1  19
TORSDOF 10
ENDMDL
