MODEL 1
REMARK VINA RESULT:     -12.7      0.000      0.000
REMARK  Name = 10200813
REMARK  4 active torsions:
REMARK  status: ('A' for Active; 'I' for Inactive)
REMARK    1  A    between atoms: C_3  and  C_24
REMARK    2  A    between atoms: C_8  and  C_11
REMARK    3  A    between atoms: N_10  and  C_16
REMARK    4  A    between atoms: C_24  and  C_26
REMARK                            x       y       z     vdW  Elec       q    Type
REMARK                         _______ _______ _______ _____ _____    ______ ____
ROOT
ATOM      1  O   UNL     1      34.110 -18.534 -24.691  0.00  0.00    -0.265 OA
ATOM      2  N   UNL     1      34.654 -16.518 -23.611  0.00  0.00    -0.272 N 
ATOM      3  C   UNL     1      33.766 -13.831 -22.993  0.00  0.00    +0.008 C 
ATOM      4  C   UNL     1      33.201 -14.615 -24.187  0.00  0.00    +0.022 C 
ATOM      5  C   UNL     1      34.235 -14.799 -21.896  0.00  0.00    +0.022 C 
ATOM      6  C   UNL     1      34.206 -15.647 -24.696  0.00  0.00    +0.094 C 
ATOM      7  C   UNL     1      35.219 -15.829 -22.447  0.00  0.00    +0.094 C 
ATOM      8  C   UNL     1      34.568 -17.895 -23.752  0.00  0.00    +0.303 C 
ENDROOT
BRANCH   8  11
ATOM      9  O   UNL     1      36.304 -18.695 -22.460  0.00  0.00    -0.265 OA
ATOM     10  N   UNL     1      34.094 -19.349 -21.925  0.00  0.00    -0.277 N 
ATOM     11  C   UNL     1      35.092 -18.703 -22.626  0.00  0.00    +0.303 C 
ATOM     12  H   UNL     1      33.173 -19.206 -22.244  0.00  0.00    +0.155 HD
BRANCH  10  16
ATOM     13  O   UNL     1      32.329 -22.145 -18.345  0.00  0.00    -0.407 OA
ATOM     14  O   UNL     1      32.557 -23.532 -16.509  0.00  0.00    -0.223 OA
ATOM     15  N   UNL     1      34.434 -22.647 -17.568  0.00  0.00    -0.287 N 
ATOM     16  C   UNL     1      34.247 -20.195 -20.802  0.00  0.00    +0.054 C 
ATOM     17  C   UNL     1      33.111 -20.710 -20.189  0.00  0.00    +0.054 C 
ATOM     18  C   UNL     1      35.540 -20.487 -20.347  0.00  0.00    +0.016 C 
ATOM     19  C   UNL     1      33.316 -21.529 -19.100  0.00  0.00    +0.167 A 
ATOM     20  C   UNL     1      34.585 -21.819 -18.648  0.00  0.00    +0.096 A 
ATOM     21  C   UNL     1      35.723 -21.320 -19.241  0.00  0.00    +0.022 C 
ATOM     22  C   UNL     1      33.076 -22.847 -17.380  0.00  0.00    +0.419 A 
ATOM     23  H   UNL     1      35.159 -23.031 -17.023  0.00  0.00    +0.172 HD
ENDBRANCH  10  16
ENDBRANCH   8  11
BRANCH   3  24
ATOM     24  C   UNL     1      32.729 -12.852 -22.447  0.00  0.00    +0.026 C 
BRANCH  24  26
ATOM     25  F   UNL     1      33.835  -7.572 -24.026  0.00  0.00    -0.204 F 
ATOM     26  C   UNL     1      33.025 -11.439 -22.869  0.00  0.00    -0.022 C 
ATOM     27  C   UNL     1      32.245 -10.401 -22.379  0.00  0.00    -0.002 C 
ATOM     28  C   UNL     1      34.075 -11.192 -23.744  0.00  0.00    -0.002 C 
ATOM     29  C   UNL     1      32.520  -9.090 -22.771  0.00  0.00    +0.029 C 
ATOM     30  C   UNL     1      34.350  -9.882 -24.135  0.00  0.00    +0.029 C 
ATOM     31  C   UNL     1      33.572  -8.831 -23.649  0.00  0.00    +0.140 C 
ENDBRANCH  24  26
ENDBRANCH   3  24
TORSDOF 4
ENDMDL
MODEL 2
REMARK VINA RESULT:     -12.1      4.156      7.089
REMARK  Name = 10200813
REMARK  4 active torsions:
REMARK  status: ('A' for Active; 'I' for Inactive)
REMARK    1  A    between atoms: C_3  and  C_24
REMARK    2  A    between atoms: C_8  and  C_11
REMARK    3  A    between atoms: N_10  and  C_16
REMARK    4  A    between atoms: C_24  and  C_26
REMARK                            x       y       z     vdW  Elec       q    Type
REMARK                         _______ _______ _______ _____ _____    ______ ____
ROOT
ATOM      1  O   UNL     1      31.944 -22.099 -17.694  0.00  0.00    -0.265 OA
ATOM      2  N   UNL     1      33.798 -21.860 -19.119  0.00  0.00    -0.272 N 
ATOM      3  C   UNL     1      35.316 -20.024 -20.767  0.00  0.00    +0.008 C 
ATOM      4  C   UNL     1      33.846 -19.761 -20.405  0.00  0.00    +0.022 C 
ATOM      5  C   UNL     1      35.987 -20.875 -19.678  0.00  0.00    +0.022 C 
ATOM      6  C   UNL     1      33.103 -21.067 -20.130  0.00  0.00    +0.094 C 
ATOM      7  C   UNL     1      35.203 -22.159 -19.414  0.00  0.00    +0.094 C 
ATOM      8  C   UNL     1      33.111 -22.310 -18.001  0.00  0.00    +0.303 C 
ENDROOT
BRANCH   8  11
ATOM      9  O   UNL     1      33.636 -24.350 -17.060  0.00  0.00    -0.265 OA
ATOM     10  N   UNL     1      34.772 -22.418 -16.297  0.00  0.00    -0.277 N 
ATOM     11  C   UNL     1      33.879 -23.150 -17.053  0.00  0.00    +0.303 C 
ATOM     12  H   UNL     1      34.797 -21.448 -16.467  0.00  0.00    +0.155 HD
BRANCH  10  16
ATOM     13  O   UNL     1      35.799 -23.876 -11.762  0.00  0.00    -0.407 OA
ATOM     14  O   UNL     1      37.223 -24.677 -10.126  0.00  0.00    -0.223 OA
ATOM     15  N   UNL     1      37.994 -24.305 -12.293  0.00  0.00    -0.287 N 
ATOM     16  C   UNL     1      35.654 -22.906 -15.305  0.00  0.00    +0.054 C 
ATOM     17  C   UNL     1      35.169 -23.119 -14.020  0.00  0.00    +0.054 C 
ATOM     18  C   UNL     1      36.988 -23.160 -15.653  0.00  0.00    +0.016 C 
ATOM     19  C   UNL     1      36.069 -23.596 -13.092  0.00  0.00    +0.167 A 
ATOM     20  C   UNL     1      37.381 -23.847 -13.429  0.00  0.00    +0.096 A 
ATOM     21  C   UNL     1      37.883 -23.644 -14.695  0.00  0.00    +0.022 C 
ATOM     22  C   UNL     1      37.044 -24.324 -11.284  0.00  0.00    +0.419 A 
ATOM     23  H   UNL     1      38.938 -24.572 -12.207  0.00  0.00    +0.172 HD
ENDBRANCH  10  16
ENDBRANCH   8  11
BRANCH   3  24
ATOM     24  C   UNL     1      36.068 -18.711 -20.972  0.00  0.00    +0.026 C 
BRANCH  24  26
ATOM     25  F   UNL     1      33.819 -15.665 -25.125  0.00  0.00    -0.204 F 
ATOM     26  C   UNL     1      35.467 -17.896 -22.083  0.00  0.00    -0.022 C 
ATOM     27  C   UNL     1      35.319 -16.525 -21.924  0.00  0.00    -0.002 C 
ATOM     28  C   UNL     1      35.066 -18.526 -23.254  0.00  0.00    -0.002 C 
ATOM     29  C   UNL     1      34.761 -15.769 -22.955  0.00  0.00    +0.029 C 
ATOM     30  C   UNL     1      34.508 -17.770 -24.286  0.00  0.00    +0.029 C 
ATOM     31  C   UNL     1      34.356 -16.391 -24.136  0.00  0.00    +0.140 C 
ENDBRANCH  24  26
ENDBRANCH   3  24
TORSDOF 4
ENDMDL
MODEL 3
REMARK VINA RESULT:     -11.5      2.061      2.898
REMARK  Name = 10200813
REMARK  4 active torsions:
REMARK  status: ('A' for Active; 'I' for Inactive)
REMARK    1  A    between atoms: C_3  and  C_24
REMARK    2  A    between atoms: C_8  and  C_11
REMARK    3  A    between atoms: N_10  and  C_16
REMARK    4  A    between atoms: C_24  and  C_26
REMARK                            x       y       z     vdW  Elec       q    Type
REMARK                         _______ _______ _______ _____ _____    ______ ____
ROOT
ATOM      1  O   UNL     1      34.164 -15.743 -25.397  0.00  0.00    -0.265 OA
ATOM      2  N   UNL     1      34.148 -14.707 -23.287  0.00  0.00    -0.272 N 
ATOM      3  C   UNL     1      32.853 -12.729 -21.614  0.00  0.00    +0.008 C 
ATOM      4  C   UNL     1      32.763 -12.676 -23.147  0.00  0.00    +0.022 C 
ATOM      5  C   UNL     1      33.055 -14.178 -21.143  0.00  0.00    +0.022 C 
ATOM      6  C   UNL     1      33.972 -13.348 -23.794  0.00  0.00    +0.094 C 
ATOM      7  C   UNL     1      34.257 -14.822 -21.829  0.00  0.00    +0.094 C 
ATOM      8  C   UNL     1      34.245 -15.768 -24.175  0.00  0.00    +0.303 C 
ENDROOT
BRANCH   8  11
ATOM      9  O   UNL     1      33.999 -18.062 -24.172  0.00  0.00    -0.265 OA
ATOM     10  N   UNL     1      35.212 -17.046 -22.413  0.00  0.00    -0.277 N 
ATOM     11  C   UNL     1      34.474 -17.104 -23.578  0.00  0.00    +0.303 C 
ATOM     12  H   UNL     1      35.494 -16.150 -22.118  0.00  0.00    +0.155 HD
BRANCH  10  16
ATOM     13  O   UNL     1      34.273 -21.003 -19.728  0.00  0.00    -0.407 OA
ATOM     14  O   UNL     1      34.896 -22.784 -18.391  0.00  0.00    -0.223 OA
ATOM     15  N   UNL     1      36.496 -21.313 -19.232  0.00  0.00    -0.287 N 
ATOM     16  C   UNL     1      35.606 -18.130 -21.595  0.00  0.00    +0.054 C 
ATOM     17  C   UNL     1      34.633 -18.992 -21.106  0.00  0.00    +0.054 C 
ATOM     18  C   UNL     1      36.968 -18.300 -21.307  0.00  0.00    +0.016 C 
ATOM     19  C   UNL     1      35.070 -20.033 -20.315  0.00  0.00    +0.167 A 
ATOM     20  C   UNL     1      36.407 -20.203 -20.029  0.00  0.00    +0.096 A 
ATOM     21  C   UNL     1      37.388 -19.362 -20.503  0.00  0.00    +0.022 C 
ATOM     22  C   UNL     1      35.212 -21.800 -19.047  0.00  0.00    +0.419 A 
ATOM     23  H   UNL     1      37.322 -21.698 -18.859  0.00  0.00    +0.172 HD
ENDBRANCH  10  16
ENDBRANCH   8  11
BRANCH   3  24
ATOM     24  C   UNL     1      31.607 -12.118 -20.975  0.00  0.00    +0.026 C 
BRANCH  24  26
ATOM     25  F   UNL     1      32.385  -6.703 -19.688  0.00  0.00    -0.204 F 
ATOM     26  C   UNL     1      31.815 -10.669 -20.631  0.00  0.00    -0.022 C 
ATOM     27  C   UNL     1      31.933  -9.734 -21.650  0.00  0.00    -0.002 C 
ATOM     28  C   UNL     1      31.887 -10.286 -19.298  0.00  0.00    -0.002 C 
ATOM     29  C   UNL     1      32.126  -8.390 -21.330  0.00  0.00    +0.029 C 
ATOM     30  C   UNL     1      32.079  -8.942 -18.978  0.00  0.00    +0.029 C 
ATOM     31  C   UNL     1      32.199  -7.994 -19.994  0.00  0.00    +0.140 C 
ENDBRANCH  24  26
ENDBRANCH   3  24
TORSDOF 4
ENDMDL
MODEL 4
REMARK VINA RESULT:     -11.3      5.325     10.234
REMARK  Name = 10200813
REMARK  4 active torsions:
REMARK  status: ('A' for Active; 'I' for Inactive)
REMARK    1  A    between atoms: C_3  and  C_24
REMARK    2  A    between atoms: C_8  and  C_11
REMARK    3  A    between atoms: N_10  and  C_16
REMARK    4  A    between atoms: C_24  and  C_26
REMARK                            x       y       z     vdW  Elec       q    Type
REMARK                         _______ _______ _______ _____ _____    ______ ____
ROOT
ATOM      1  O   UNL     1      33.315 -13.281 -25.782  0.00  0.00    -0.265 OA
ATOM      2  N   UNL     1      33.606 -14.635 -23.882  0.00  0.00    -0.272 N 
ATOM      3  C   UNL     1      34.919 -16.983 -22.808  0.00  0.00    +0.008 C 
ATOM      4  C   UNL     1      34.694 -16.801 -24.317  0.00  0.00    +0.022 C 
ATOM      5  C   UNL     1      35.019 -15.614 -22.116  0.00  0.00    +0.022 C 
ATOM      6  C   UNL     1      33.486 -15.907 -24.591  0.00  0.00    +0.094 C 
ATOM      7  C   UNL     1      33.806 -14.742 -22.434  0.00  0.00    +0.094 C 
ATOM      8  C   UNL     1      33.483 -13.442 -24.579  0.00  0.00    +0.303 C 
ENDROOT
BRANCH   8  11
ATOM      9  O   UNL     1      34.514 -11.461 -24.000  0.00  0.00    -0.265 OA
ATOM     10  N   UNL     1      32.525 -12.079 -22.876  0.00  0.00    -0.277 N 
ATOM     11  C   UNL     1      33.566 -12.201 -23.775  0.00  0.00    +0.303 C 
ATOM     12  H   UNL     1      31.864 -12.809 -22.871  0.00  0.00    +0.155 HD
BRANCH  10  16
ATOM     13  O   UNL     1      32.523  -7.368 -21.630  0.00  0.00    -0.407 OA
ATOM     14  O   UNL     1      32.164  -5.626 -20.152  0.00  0.00    -0.223 OA
ATOM     15  N   UNL     1      31.739  -7.828 -19.518  0.00  0.00    -0.287 N 
ATOM     16  C   UNL     1      32.303 -11.023 -21.963  0.00  0.00    +0.054 C 
ATOM     17  C   UNL     1      32.565  -9.719 -22.366  0.00  0.00    +0.054 C 
ATOM     18  C   UNL     1      31.825 -11.327 -20.681  0.00  0.00    +0.016 C 
ATOM     19  C   UNL     1      32.330  -8.727 -21.438  0.00  0.00    +0.167 A 
ATOM     20  C   UNL     1      31.861  -9.022 -20.177  0.00  0.00    +0.096 A 
ATOM     21  C   UNL     1      31.595 -10.306 -19.756  0.00  0.00    +0.022 C 
ATOM     22  C   UNL     1      32.137  -6.827 -20.390  0.00  0.00    +0.419 A 
ATOM     23  H   UNL     1      31.426  -7.702 -18.593  0.00  0.00    +0.172 HD
ENDBRANCH  10  16
ENDBRANCH   8  11
BRANCH   3  24
ATOM     24  C   UNL     1      36.169 -17.818 -22.542  0.00  0.00    +0.026 C 
BRANCH  24  26
ATOM     25  F   UNL     1      35.215 -21.806 -18.698  0.00  0.00    -0.204 F 
ATOM     26  C   UNL     1      35.914 -18.886 -21.514  0.00  0.00    -0.022 C 
ATOM     27  C   UNL     1      34.643 -19.432 -21.395  0.00  0.00    -0.002 C 
ATOM     28  C   UNL     1      36.952 -19.310 -20.696  0.00  0.00    -0.002 C 
ATOM     29  C   UNL     1      34.407 -20.422 -20.441  0.00  0.00    +0.029 C 
ATOM     30  C   UNL     1      36.716 -20.300 -19.742  0.00  0.00    +0.029 C 
ATOM     31  C   UNL     1      35.443 -20.856 -19.615  0.00  0.00    +0.140 C 
ENDBRANCH  24  26
ENDBRANCH   3  24
TORSDOF 4
ENDMDL
MODEL 5
REMARK VINA RESULT:     -11.3      5.368     10.895
REMARK  Name = 10200813
REMARK  4 active torsions:
REMARK  status: ('A' for Active; 'I' for Inactive)
REMARK    1  A    between atoms: C_3  and  C_24
REMARK    2  A    between atoms: C_8  and  C_11
REMARK    3  A    between atoms: N_10  and  C_16
REMARK    4  A    between atoms: C_24  and  C_26
REMARK                            x       y       z     vdW  Elec       q    Type
REMARK                         _______ _______ _______ _____ _____    ______ ____
ROOT
ATOM      1  O   UNL     1      33.555 -13.191 -25.691  0.00  0.00    -0.265 OA
ATOM      2  N   UNL     1      33.706 -14.653 -23.857  0.00  0.00    -0.272 N 
ATOM      3  C   UNL     1      34.961 -17.047 -22.815  0.00  0.00    +0.008 C 
ATOM      4  C   UNL     1      34.861 -16.777 -24.324  0.00  0.00    +0.022 C 
ATOM      5  C   UNL     1      34.981 -15.721 -22.038  0.00  0.00    +0.022 C 
ATOM      6  C   UNL     1      33.666 -15.882 -24.647  0.00  0.00    +0.094 C 
ATOM      7  C   UNL     1      33.786 -14.844 -22.405  0.00  0.00    +0.094 C 
ATOM      8  C   UNL     1      33.624 -13.422 -24.490  0.00  0.00    +0.303 C 
ENDROOT
BRANCH   8  11
ATOM      9  O   UNL     1      33.682 -12.437 -22.405  0.00  0.00    -0.265 OA
ATOM     10  N   UNL     1      33.548 -11.047 -24.316  0.00  0.00    -0.277 N 
ATOM     11  C   UNL     1      33.620 -12.231 -23.610  0.00  0.00    +0.303 C 
ATOM     12  H   UNL     1      33.507 -11.125 -25.297  0.00  0.00    +0.155 HD
BRANCH  10  16
ATOM     13  O   UNL     1      31.289  -7.264 -22.236  0.00  0.00    -0.407 OA
ATOM     14  O   UNL     1      31.229  -5.122 -21.364  0.00  0.00    -0.223 OA
ATOM     15  N   UNL     1      33.210  -6.002 -22.218  0.00  0.00    -0.287 N 
ATOM     16  C   UNL     1      33.524  -9.736 -23.788  0.00  0.00    +0.054 C 
ATOM     17  C   UNL     1      32.329  -9.235 -23.286  0.00  0.00    +0.054 C 
ATOM     18  C   UNL     1      34.708  -8.986 -23.787  0.00  0.00    +0.016 C 
ATOM     19  C   UNL     1      32.361  -7.953 -22.782  0.00  0.00    +0.167 A 
ATOM     20  C   UNL     1      33.522  -7.211 -22.779  0.00  0.00    +0.096 A 
ATOM     21  C   UNL     1      34.717  -7.688 -23.271  0.00  0.00    +0.022 C 
ATOM     22  C   UNL     1      31.865  -6.028 -21.888  0.00  0.00    +0.419 A 
ATOM     23  H   UNL     1      33.830  -5.250 -22.073  0.00  0.00    +0.172 HD
ENDBRANCH  10  16
ENDBRANCH   8  11
BRANCH   3  24
ATOM     24  C   UNL     1      36.197 -17.884 -22.494  0.00  0.00    +0.026 C 
BRANCH  24  26
ATOM     25  F   UNL     1      35.071 -21.867 -18.692  0.00  0.00    -0.204 F 
ATOM     26  C   UNL     1      35.896 -18.951 -21.477  0.00  0.00    -0.022 C 
ATOM     27  C   UNL     1      34.610 -19.466 -21.387  0.00  0.00    -0.002 C 
ATOM     28  C   UNL     1      36.907 -19.404 -20.641  0.00  0.00    -0.002 C 
ATOM     29  C   UNL     1      34.331 -20.455 -20.443  0.00  0.00    +0.029 C 
ATOM     30  C   UNL     1      36.628 -20.393 -19.697  0.00  0.00    +0.029 C 
ATOM     31  C   UNL     1      35.340 -20.919 -19.599  0.00  0.00    +0.140 C 
ENDBRANCH  24  26
ENDBRANCH   3  24
TORSDOF 4
ENDMDL
MODEL 6
REMARK VINA RESULT:     -11.2      3.687      6.559
REMARK  Name = 10200813
REMARK  4 active torsions:
REMARK  status: ('A' for Active; 'I' for Inactive)
REMARK    1  A    between atoms: C_3  and  C_24
REMARK    2  A    between atoms: C_8  and  C_11
REMARK    3  A    between atoms: N_10  and  C_16
REMARK    4  A    between atoms: C_24  and  C_26
REMARK                            x       y       z     vdW  Elec       q    Type
REMARK                         _______ _______ _______ _____ _____    ______ ____
ROOT
ATOM      1  O   UNL     1      31.678 -11.263 -19.936  0.00  0.00    -0.265 OA
ATOM      2  N   UNL     1      32.193 -10.122 -21.926  0.00  0.00    -0.272 N 
ATOM      3  C   UNL     1      33.487  -7.799 -23.074  0.00  0.00    +0.008 C 
ATOM      4  C   UNL     1      33.015  -7.822 -21.613  0.00  0.00    +0.022 C 
ATOM      5  C   UNL     1      33.814  -9.223 -23.549  0.00  0.00    +0.022 C 
ATOM      6  C   UNL     1      31.851  -8.793 -21.424  0.00  0.00    +0.094 C 
ATOM      7  C   UNL     1      32.637 -10.169 -23.323  0.00  0.00    +0.094 C 
ATOM      8  C   UNL     1      32.042 -11.230 -21.105  0.00  0.00    +0.303 C 
ENDROOT
BRANCH   8  11
ATOM      9  O   UNL     1      31.557 -12.989 -22.517  0.00  0.00    -0.265 OA
ATOM     10  N   UNL     1      33.557 -13.063 -21.254  0.00  0.00    -0.277 N 
ATOM     11  C   UNL     1      32.363 -12.543 -21.711  0.00  0.00    +0.303 C 
ATOM     12  H   UNL     1      34.047 -12.519 -20.595  0.00  0.00    +0.155 HD
BRANCH  10  16
ATOM     13  O   UNL     1      35.558 -17.385 -20.224  0.00  0.00    -0.407 OA
ATOM     14  O   UNL     1      36.533 -19.399 -20.810  0.00  0.00    -0.223 OA
ATOM     15  N   UNL     1      35.884 -17.873 -22.447  0.00  0.00    -0.287 N 
ATOM     16  C   UNL     1      34.154 -14.290 -21.626  0.00  0.00    +0.054 C 
ATOM     17  C   UNL     1      34.533 -15.182 -20.630  0.00  0.00    +0.054 C 
ATOM     18  C   UNL     1      34.343 -14.565 -22.987  0.00  0.00    +0.016 C 
ATOM     19  C   UNL     1      35.109 -16.362 -21.045  0.00  0.00    +0.167 A 
ATOM     20  C   UNL     1      35.297 -16.637 -22.382  0.00  0.00    +0.096 A 
ATOM     21  C   UNL     1      34.929 -15.768 -23.385  0.00  0.00    +0.022 C 
ATOM     22  C   UNL     1      36.043 -18.329 -21.148  0.00  0.00    +0.419 A 
ATOM     23  H   UNL     1      36.145 -18.351 -23.267  0.00  0.00    +0.172 HD
ENDBRANCH  10  16
ENDBRANCH   8  11
BRANCH   3  24
ATOM     24  C   UNL     1      34.695  -6.880 -23.240  0.00  0.00    +0.026 C 
BRANCH  24  26
ATOM     25  F   UNL     1      33.576  -2.593 -26.697  0.00  0.00    -0.204 F 
ATOM     26  C   UNL     1      34.396  -5.732 -24.164  0.00  0.00    -0.022 C 
ATOM     27  C   UNL     1      33.264  -4.958 -23.950  0.00  0.00    -0.002 C 
ATOM     28  C   UNL     1      35.255  -5.464 -25.222  0.00  0.00    -0.002 C 
ATOM     29  C   UNL     1      32.987  -3.893 -24.808  0.00  0.00    +0.029 C 
ATOM     30  C   UNL     1      34.978  -4.400 -26.080  0.00  0.00    +0.029 C 
ATOM     31  C   UNL     1      33.844  -3.614 -25.872  0.00  0.00    +0.140 C 
ENDBRANCH  24  26
ENDBRANCH   3  24
TORSDOF 4
ENDMDL
MODEL 7
REMARK VINA RESULT:     -10.9      5.907     11.087
REMARK  Name = 10200813
REMARK  4 active torsions:
REMARK  status: ('A' for Active; 'I' for Inactive)
REMARK    1  A    between atoms: C_3  and  C_24
REMARK    2  A    between atoms: C_8  and  C_11
REMARK    3  A    between atoms: N_10  and  C_16
REMARK    4  A    between atoms: C_24  and  C_26
REMARK                            x       y       z     vdW  Elec       q    Type
REMARK                         _______ _______ _______ _____ _____    ______ ____
ROOT
ATOM      1  O   UNL     1      37.512 -21.539 -16.804  0.00  0.00    -0.265 OA
ATOM      2  N   UNL     1      35.679 -22.963 -16.430  0.00  0.00    -0.272 N 
ATOM      3  C   UNL     1      33.685 -23.827 -14.514  0.00  0.00    +0.008 C 
ATOM      4  C   UNL     1      35.005 -23.177 -14.071  0.00  0.00    +0.022 C 
ATOM      5  C   UNL     1      33.298 -23.339 -15.919  0.00  0.00    +0.022 C 
ATOM      6  C   UNL     1      36.107 -23.405 -15.104  0.00  0.00    +0.094 C 
ATOM      7  C   UNL     1      34.432 -23.561 -16.917  0.00  0.00    +0.094 C 
ATOM      8  C   UNL     1      36.465 -22.074 -17.148  0.00  0.00    +0.303 C 
ENDROOT
BRANCH   8  11
ATOM      9  O   UNL     1      35.240 -22.524 -19.050  0.00  0.00    -0.265 OA
ATOM     10  N   UNL     1      36.464 -20.501 -18.937  0.00  0.00    -0.277 N 
ATOM     11  C   UNL     1      35.983 -21.720 -18.503  0.00  0.00    +0.303 C 
ATOM     12  H   UNL     1      37.057 -20.018 -18.316  0.00  0.00    +0.155 HD
BRANCH  10  16
ATOM     13  O   UNL     1      33.612 -19.495 -22.759  0.00  0.00    -0.407 OA
ATOM     14  O   UNL     1      33.160 -18.469 -24.781  0.00  0.00    -0.223 OA
ATOM     15  N   UNL     1      35.214 -18.160 -23.726  0.00  0.00    -0.287 N 
ATOM     16  C   UNL     1      36.201 -19.869 -20.175  0.00  0.00    +0.054 C 
ATOM     17  C   UNL     1      34.968 -20.071 -20.784  0.00  0.00    +0.054 C 
ATOM     18  C   UNL     1      37.192 -19.060 -20.745  0.00  0.00    +0.016 C 
ATOM     19  C   UNL     1      34.762 -19.432 -21.987  0.00  0.00    +0.167 A 
ATOM     20  C   UNL     1      35.734 -18.635 -22.552  0.00  0.00    +0.096 A 
ATOM     21  C   UNL     1      36.962 -18.422 -21.966  0.00  0.00    +0.022 C 
ATOM     22  C   UNL     1      33.934 -18.675 -23.856  0.00  0.00    +0.419 A 
ATOM     23  H   UNL     1      35.666 -17.560 -24.363  0.00  0.00    +0.172 HD
ENDBRANCH  10  16
ENDBRANCH   8  11
BRANCH   3  24
ATOM     24  C   UNL     1      32.572 -23.535 -13.511  0.00  0.00    +0.026 C 
BRANCH  24  26
ATOM     25  F   UNL     1      27.488 -24.090 -15.842  0.00  0.00    -0.204 F 
ATOM     26  C   UNL     1      31.211 -23.684 -14.134  0.00  0.00    -0.022 C 
ATOM     27  C   UNL     1      30.709 -24.953 -14.386  0.00  0.00    -0.002 C 
ATOM     28  C   UNL     1      30.476 -22.549 -14.451  0.00  0.00    -0.002 C 
ATOM     29  C   UNL     1      29.447 -25.091 -14.964  0.00  0.00    +0.029 C 
ATOM     30  C   UNL     1      29.214 -22.687 -15.029  0.00  0.00    +0.029 C 
ATOM     31  C   UNL     1      28.699 -23.958 -15.285  0.00  0.00    +0.140 C 
ENDBRANCH  24  26
ENDBRANCH   3  24
TORSDOF 4
ENDMDL
MODEL 8
REMARK VINA RESULT:     -10.9      4.219      7.617
REMARK  Name = 10200813
REMARK  4 active torsions:
REMARK  status: ('A' for Active; 'I' for Inactive)
REMARK    1  A    between atoms: C_3  and  C_24
REMARK    2  A    between atoms: C_8  and  C_11
REMARK    3  A    between atoms: N_10  and  C_16
REMARK    4  A    between atoms: C_24  and  C_26
REMARK                            x       y       z     vdW  Elec       q    Type
REMARK                         _______ _______ _______ _____ _____    ______ ____
ROOT
ATOM      1  O   UNL     1      31.818 -10.237 -19.609  0.00  0.00    -0.265 OA
ATOM      2  N   UNL     1      31.990  -9.134 -21.678  0.00  0.00    -0.272 N 
ATOM      3  C   UNL     1      33.256  -6.966 -23.124  0.00  0.00    +0.008 C 
ATOM      4  C   UNL     1      33.137  -6.957 -21.592  0.00  0.00    +0.022 C 
ATOM      5  C   UNL     1      33.287  -8.412 -23.645  0.00  0.00    +0.022 C 
ATOM      6  C   UNL     1      31.939  -7.782 -21.126  0.00  0.00    +0.094 C 
ATOM      7  C   UNL     1      32.088  -9.211 -23.138  0.00  0.00    +0.094 C 
ATOM      8  C   UNL     1      31.901 -10.229 -20.831  0.00  0.00    +0.303 C 
ENDROOT
BRANCH   8  11
ATOM      9  O   UNL     1      30.833 -12.137 -21.568  0.00  0.00    -0.265 OA
ATOM     10  N   UNL     1      33.169 -11.944 -21.892  0.00  0.00    -0.277 N 
ATOM     11  C   UNL     1      31.909 -11.561 -21.479  0.00  0.00    +0.303 C 
ATOM     12  H   UNL     1      33.900 -11.308 -21.714  0.00  0.00    +0.155 HD
BRANCH  10  16
ATOM     13  O   UNL     1      35.130 -16.405 -21.956  0.00  0.00    -0.407 OA
ATOM     14  O   UNL     1      35.722 -18.383 -22.997  0.00  0.00    -0.223 OA
ATOM     15  N   UNL     1      34.649 -16.690 -24.185  0.00  0.00    -0.287 N 
ATOM     16  C   UNL     1      33.527 -13.148 -22.541  0.00  0.00    +0.054 C 
ATOM     17  C   UNL     1      34.167 -14.142 -21.810  0.00  0.00    +0.054 C 
ATOM     18  C   UNL     1      33.224 -13.299 -23.901  0.00  0.00    +0.016 C 
ATOM     19  C   UNL     1      34.493 -15.295 -22.490  0.00  0.00    +0.167 A 
ATOM     20  C   UNL     1      34.197 -15.448 -23.826  0.00  0.00    +0.096 A 
ATOM     21  C   UNL     1      33.564 -14.477 -24.570  0.00  0.00    +0.022 C 
ATOM     22  C   UNL     1      35.213 -17.271 -23.061  0.00  0.00    +0.419 A 
ATOM     23  H   UNL     1      34.585 -17.097 -25.080  0.00  0.00    +0.172 HD
ENDBRANCH  10  16
ENDBRANCH   8  11
BRANCH   3  24
ATOM     24  C   UNL     1      34.495  -6.198 -23.577  0.00  0.00    +0.026 C 
BRANCH  24  26
ATOM     25  F   UNL     1      33.604  -3.514 -28.434  0.00  0.00    -0.204 F 
ATOM     26  C   UNL     1      34.256  -5.479 -24.877  0.00  0.00    -0.022 C 
ATOM     27  C   UNL     1      32.961  -5.139 -25.243  0.00  0.00    -0.002 C 
ATOM     28  C   UNL     1      35.335  -5.167 -25.693  0.00  0.00    -0.002 C 
ATOM     29  C   UNL     1      32.741  -4.472 -26.448  0.00  0.00    +0.029 C 
ATOM     30  C   UNL     1      35.114  -4.500 -26.899  0.00  0.00    +0.029 C 
ATOM     31  C   UNL     1      33.817  -4.153 -27.276  0.00  0.00    +0.140 C 
ENDBRANCH  24  26
ENDBRANCH   3  24
TORSDOF 4
ENDMDL
MODEL 9
REMARK VINA RESULT:     -10.9      6.164     11.364
REMARK  Name = 10200813
REMARK  4 active torsions:
REMARK  status: ('A' for Active; 'I' for Inactive)
REMARK    1  A    between atoms: C_3  and  C_24
REMARK    2  A    between atoms: C_8  and  C_11
REMARK    3  A    between atoms: N_10  and  C_16
REMARK    4  A    between atoms: C_24  and  C_26
REMARK                            x       y       z     vdW  Elec       q    Type
REMARK                         _______ _______ _______ _____ _____    ______ ____
ROOT
ATOM      1  O   UNL     1      34.049 -11.141 -25.867  0.00  0.00    -0.265 OA
ATOM      2  N   UNL     1      33.534 -12.467 -23.996  0.00  0.00    -0.272 N 
ATOM      3  C   UNL     1      34.072 -14.959 -22.620  0.00  0.00    +0.008 C 
ATOM      4  C   UNL     1      34.345 -14.788 -24.122  0.00  0.00    +0.022 C 
ATOM      5  C   UNL     1      34.173 -13.603 -21.904  0.00  0.00    +0.022 C 
ATOM      6  C   UNL     1      33.434 -13.725 -24.732  0.00  0.00    +0.094 C 
ATOM      7  C   UNL     1      33.267 -12.561 -22.557  0.00  0.00    +0.094 C 
ATOM      8  C   UNL     1      33.817 -11.291 -24.674  0.00  0.00    +0.303 C 
ENDROOT
BRANCH   8  11
ATOM      9  O   UNL     1      34.953  -9.606 -23.580  0.00  0.00    -0.265 OA
ATOM     10  N   UNL     1      32.587  -9.598 -23.537  0.00  0.00    -0.277 N 
ATOM     11  C   UNL     1      33.848 -10.055 -23.858  0.00  0.00    +0.303 C 
ATOM     12  H   UNL     1      31.829 -10.129 -23.877  0.00  0.00    +0.155 HD
BRANCH  10  16
ATOM     13  O   UNL     1      30.969  -5.023 -23.083  0.00  0.00    -0.407 OA
ATOM     14  O   UNL     1      30.426  -3.140 -21.856  0.00  0.00    -0.223 OA
ATOM     15  N   UNL     1      31.250  -5.047 -20.802  0.00  0.00    -0.287 N 
ATOM     16  C   UNL     1      32.260  -8.452 -22.775  0.00  0.00    +0.054 C 
ATOM     17  C   UNL     1      31.771  -7.327 -23.429  0.00  0.00    +0.054 C 
ATOM     18  C   UNL     1      32.439  -8.490 -21.386  0.00  0.00    +0.016 C 
ATOM     19  C   UNL     1      31.467  -6.239 -22.640  0.00  0.00    +0.167 A 
ATOM     20  C   UNL     1      31.642  -6.271 -21.274  0.00  0.00    +0.096 A 
ATOM     21  C   UNL     1      32.124  -7.375 -20.606  0.00  0.00    +0.022 C 
ATOM     22  C   UNL     1      30.844  -4.290 -21.889  0.00  0.00    +0.419 A 
ATOM     23  H   UNL     1      31.256  -4.757 -19.861  0.00  0.00    +0.172 HD
ENDBRANCH  10  16
ENDBRANCH   8  11
BRANCH   3  24
ATOM     24  C   UNL     1      35.034 -15.972 -22.004  0.00  0.00    +0.026 C 
BRANCH  24  26
ATOM     25  F   UNL     1      34.802 -20.923 -24.654  0.00  0.00    -0.204 F 
ATOM     26  C   UNL     1      34.972 -17.297 -22.713  0.00  0.00    -0.022 C 
ATOM     27  C   UNL     1      35.680 -18.378 -22.206  0.00  0.00    -0.002 C 
ATOM     28  C   UNL     1      34.208 -17.421 -23.866  0.00  0.00    -0.002 C 
ATOM     29  C   UNL     1      35.621 -19.607 -22.863  0.00  0.00    +0.029 C 
ATOM     30  C   UNL     1      34.150 -18.649 -24.523  0.00  0.00    +0.029 C 
ATOM     31  C   UNL     1      34.856 -19.743 -24.022  0.00  0.00    +0.140 C 
ENDBRANCH  24  26
ENDBRANCH   3  24
TORSDOF 4
ENDMDL
