MODEL 1
REMARK VINA RESULT:     -11.4      0.000      0.000
REMARK  Name = 11610526
REMARK  3 active torsions:
REMARK  status: ('A' for Active; 'I' for Inactive)
REMARK    1  A    between atoms: C_2  and  C_21
REMARK    2  A    between atoms: C_9  and  C_14
REMARK    3  A    between atoms: C_21  and  C_23
REMARK                            x       y       z     vdW  Elec       q    Type
REMARK                         _______ _______ _______ _____ _____    ______ ____
ROOT
ATOM      1  N   UNL     1      34.944 -16.808 -21.987  0.00  0.00    -0.388 NA
ATOM      2  C   UNL     1      35.262 -18.085 -22.218  0.00  0.00    +0.167 C 
ATOM      3  C   UNL     1      35.111 -18.767 -23.393  0.00  0.00    +0.031 C 
ATOM      4  C   UNL     1      34.420 -16.151 -23.044  0.00  0.00    +0.167 C 
ATOM      5  C   UNL     1      34.569 -18.057 -24.459  0.00  0.00    -0.015 C 
ATOM      6  C   UNL     1      34.214 -16.723 -24.289  0.00  0.00    +0.101 C 
ATOM      7  O   UNL     1      33.231 -14.217 -25.003  0.00  0.00    -0.270 OA
ATOM      8  N   UNL     1      34.060 -14.807 -22.884  0.00  0.00    -0.259 N 
ATOM      9  C   UNL     1      33.506 -13.948 -23.838  0.00  0.00    +0.255 C 
ATOM     10  H   UNL     1      34.215 -14.422 -21.992  0.00  0.00    +0.157 HD
ENDROOT
BRANCH   9  14
ATOM     11  F   UNL     1      34.569 -11.716 -25.162  0.00  0.00    -0.204 F 
ATOM     12  F   UNL     1      31.944 -13.391 -21.575  0.00  0.00    -0.204 F 
ATOM     13  F   UNL     1      32.574  -8.731 -22.082  0.00  0.00    -0.204 F 
ATOM     14  C   UNL     1      33.257 -12.559 -23.371  0.00  0.00    +0.109 C 
ATOM     15  C   UNL     1      33.814 -11.511 -24.074  0.00  0.00    +0.149 C 
ATOM     16  C   UNL     1      32.479 -12.364 -22.249  0.00  0.00    +0.149 C 
ATOM     17  C   UNL     1      33.581 -10.208 -23.634  0.00  0.00    +0.060 C 
ATOM     18  C   UNL     1      32.247 -11.060 -21.810  0.00  0.00    +0.060 C 
ATOM     19  C   UNL     1      32.798  -9.982 -22.503  0.00  0.00    +0.145 C 
ENDBRANCH   9  14
BRANCH   2  21
ATOM     20  O   UNL     1      36.757 -18.288 -20.405  0.00  0.00    -0.289 OA
ATOM     21  C   UNL     1      35.838 -18.796 -21.042  0.00  0.00    +0.202 C 
BRANCH  21  23
ATOM     22  N   UNL     1      34.048 -21.780 -18.577  0.00  0.00    +0.386 N 
ATOM     23  C   UNL     1      35.279 -20.130 -20.653  0.00  0.00    +0.060 C 
ATOM     24  C   UNL     1      33.813 -19.974 -20.250  0.00  0.00    -0.015 C 
ATOM     25  C   UNL     1      36.086 -20.725 -19.500  0.00  0.00    -0.015 C 
ATOM     26  C   UNL     1      33.246 -21.285 -19.703  0.00  0.00    -0.077 C 
ATOM     27  C   UNL     1      35.442 -22.011 -18.980  0.00  0.00    -0.077 C 
ATOM     28  C   UNL     1      33.463 -23.005 -18.032  0.00  0.00    -0.101 C 
ATOM     29  H   UNL     1      34.045 -21.065 -17.849  0.00  0.00    -0.080 HD
ENDBRANCH  21  23
ENDBRANCH   2  21
TORSDOF 3
ENDMDL
MODEL 2
REMARK VINA RESULT:     -11.4      0.002      1.592
REMARK  Name = 11610526
REMARK  3 active torsions:
REMARK  status: ('A' for Active; 'I' for Inactive)
REMARK    1  A    between atoms: C_2  and  C_21
REMARK    2  A    between atoms: C_9  and  C_14
REMARK    3  A    between atoms: C_21  and  C_23
REMARK                            x       y       z     vdW  Elec       q    Type
REMARK                         _______ _______ _______ _____ _____    ______ ____
ROOT
ATOM      1  N   UNL     1      34.944 -16.808 -21.985  0.00  0.00    -0.388 NA
ATOM      2  C   UNL     1      35.262 -18.084 -22.217  0.00  0.00    +0.167 C 
ATOM      3  C   UNL     1      35.111 -18.766 -23.393  0.00  0.00    +0.031 C 
ATOM      4  C   UNL     1      34.420 -16.150 -23.043  0.00  0.00    +0.167 C 
ATOM      5  C   UNL     1      34.569 -18.056 -24.458  0.00  0.00    -0.015 C 
ATOM      6  C   UNL     1      34.214 -16.722 -24.288  0.00  0.00    +0.101 C 
ATOM      7  O   UNL     1      33.231 -14.215 -25.000  0.00  0.00    -0.270 OA
ATOM      8  N   UNL     1      34.060 -14.807 -22.882  0.00  0.00    -0.259 N 
ATOM      9  C   UNL     1      33.506 -13.947 -23.835  0.00  0.00    +0.255 C 
ATOM     10  H   UNL     1      34.215 -14.421 -21.990  0.00  0.00    +0.157 HD
ENDROOT
BRANCH   9  14
ATOM     11  F   UNL     1      31.944 -13.392 -21.573  0.00  0.00    -0.204 F 
ATOM     12  F   UNL     1      34.569 -11.714 -25.159  0.00  0.00    -0.204 F 
ATOM     13  F   UNL     1      32.572  -8.730 -22.079  0.00  0.00    -0.204 F 
ATOM     14  C   UNL     1      33.257 -12.559 -23.367  0.00  0.00    +0.109 C 
ATOM     15  C   UNL     1      32.478 -12.363 -22.246  0.00  0.00    +0.149 C 
ATOM     16  C   UNL     1      33.814 -11.510 -24.070  0.00  0.00    +0.149 C 
ATOM     17  C   UNL     1      32.245 -11.059 -21.808  0.00  0.00    +0.060 C 
ATOM     18  C   UNL     1      33.580 -10.207 -23.631  0.00  0.00    +0.060 C 
ATOM     19  C   UNL     1      32.795  -9.981 -22.500  0.00  0.00    +0.145 C 
ENDBRANCH   9  14
BRANCH   2  21
ATOM     20  O   UNL     1      36.757 -18.288 -20.404  0.00  0.00    -0.289 OA
ATOM     21  C   UNL     1      35.837 -18.796 -21.041  0.00  0.00    +0.202 C 
BRANCH  21  23
ATOM     22  N   UNL     1      34.047 -21.781 -18.578  0.00  0.00    +0.386 N 
ATOM     23  C   UNL     1      35.279 -20.130 -20.653  0.00  0.00    +0.060 C 
ATOM     24  C   UNL     1      33.812 -19.974 -20.251  0.00  0.00    -0.015 C 
ATOM     25  C   UNL     1      36.085 -20.726 -19.500  0.00  0.00    -0.015 C 
ATOM     26  C   UNL     1      33.245 -21.286 -19.704  0.00  0.00    -0.077 C 
ATOM     27  C   UNL     1      35.441 -22.012 -18.980  0.00  0.00    -0.077 C 
ATOM     28  C   UNL     1      33.462 -23.006 -18.033  0.00  0.00    -0.101 C 
ATOM     29  H   UNL     1      34.044 -21.066 -17.850  0.00  0.00    -0.080 HD
ENDBRANCH  21  23
ENDBRANCH   2  21
TORSDOF 3
ENDMDL
MODEL 3
REMARK VINA RESULT:     -11.0      3.028      5.464
REMARK  Name = 11610526
REMARK  3 active torsions:
REMARK  status: ('A' for Active; 'I' for Inactive)
REMARK    1  A    between atoms: C_2  and  C_21
REMARK    2  A    between atoms: C_9  and  C_14
REMARK    3  A    between atoms: C_21  and  C_23
REMARK                            x       y       z     vdW  Elec       q    Type
REMARK                         _______ _______ _______ _____ _____    ______ ____
ROOT
ATOM      1  N   UNL     1      34.049 -20.700 -19.558  0.00  0.00    -0.388 NA
ATOM      2  C   UNL     1      34.420 -21.689 -18.741  0.00  0.00    +0.167 C 
ATOM      3  C   UNL     1      35.695 -22.125 -18.509  0.00  0.00    +0.031 C 
ATOM      4  C   UNL     1      35.062 -20.088 -20.210  0.00  0.00    +0.167 C 
ATOM      5  C   UNL     1      36.711 -21.471 -19.197  0.00  0.00    -0.015 C 
ATOM      6  C   UNL     1      36.397 -20.432 -20.066  0.00  0.00    +0.101 C 
ATOM      7  O   UNL     1      36.862 -18.388 -21.901  0.00  0.00    -0.270 OA
ATOM      8  N   UNL     1      34.756 -19.040 -21.086  0.00  0.00    -0.259 N 
ATOM      9  C   UNL     1      35.641 -18.278 -21.854  0.00  0.00    +0.255 C 
ATOM     10  H   UNL     1      33.803 -18.814 -21.173  0.00  0.00    +0.157 HD
ENDROOT
BRANCH   9  14
ATOM     11  F   UNL     1      34.784 -18.724 -24.487  0.00  0.00    -0.204 F 
ATOM     12  F   UNL     1      35.234 -15.685 -20.864  0.00  0.00    -0.204 F 
ATOM     13  F   UNL     1      33.276 -14.261 -24.928  0.00  0.00    -0.204 F 
ATOM     14  C   UNL     1      35.012 -17.209 -22.672  0.00  0.00    +0.109 C 
ATOM     15  C   UNL     1      34.615 -17.503 -23.961  0.00  0.00    +0.149 C 
ATOM     16  C   UNL     1      34.844 -15.958 -22.118  0.00  0.00    +0.149 C 
ATOM     17  C   UNL     1      34.024 -16.499 -24.728  0.00  0.00    +0.060 C 
ATOM     18  C   UNL     1      34.254 -14.954 -22.886  0.00  0.00    +0.060 C 
ATOM     19  C   UNL     1      33.844 -15.225 -24.192  0.00  0.00    +0.145 C 
ENDBRANCH   9  14
BRANCH   2  21
ATOM     20  O   UNL     1      32.136 -22.170 -18.404  0.00  0.00    -0.289 OA
ATOM     21  C   UNL     1      33.292 -22.354 -18.032  0.00  0.00    +0.202 C 
BRANCH  21  23
ATOM     22  N   UNL     1      33.935 -23.489 -13.971  0.00  0.00    +0.386 N 
ATOM     23  C   UNL     1      33.589 -23.245 -16.865  0.00  0.00    +0.060 C 
ATOM     24  C   UNL     1      32.405 -23.235 -15.899  0.00  0.00    -0.015 C 
ATOM     25  C   UNL     1      34.858 -22.778 -16.154  0.00  0.00    -0.015 C 
ATOM     26  C   UNL     1      32.726 -24.013 -14.620  0.00  0.00    -0.077 C 
ATOM     27  C   UNL     1      35.097 -23.571 -14.868  0.00  0.00    -0.077 C 
ATOM     28  C   UNL     1      34.199 -24.207 -12.725  0.00  0.00    -0.101 C 
ATOM     29  H   UNL     1      33.775 -22.505 -13.754  0.00  0.00    -0.080 HD
ENDBRANCH  21  23
ENDBRANCH   2  21
TORSDOF 3
ENDMDL
MODEL 4
REMARK VINA RESULT:     -10.9      3.024      5.528
REMARK  Name = 11610526
REMARK  3 active torsions:
REMARK  status: ('A' for Active; 'I' for Inactive)
REMARK    1  A    between atoms: C_2  and  C_21
REMARK    2  A    between atoms: C_9  and  C_14
REMARK    3  A    between atoms: C_21  and  C_23
REMARK                            x       y       z     vdW  Elec       q    Type
REMARK                         _______ _______ _______ _____ _____    ______ ____
ROOT
ATOM      1  N   UNL     1      34.048 -20.697 -19.561  0.00  0.00    -0.388 NA
ATOM      2  C   UNL     1      34.418 -21.688 -18.745  0.00  0.00    +0.167 C 
ATOM      3  C   UNL     1      35.693 -22.126 -18.515  0.00  0.00    +0.031 C 
ATOM      4  C   UNL     1      35.061 -20.085 -20.212  0.00  0.00    +0.167 C 
ATOM      5  C   UNL     1      36.710 -21.472 -19.203  0.00  0.00    -0.015 C 
ATOM      6  C   UNL     1      36.395 -20.430 -20.070  0.00  0.00    +0.101 C 
ATOM      7  O   UNL     1      36.862 -18.385 -21.902  0.00  0.00    -0.270 OA
ATOM      8  N   UNL     1      34.756 -19.035 -21.086  0.00  0.00    -0.259 N 
ATOM      9  C   UNL     1      35.641 -18.273 -21.854  0.00  0.00    +0.255 C 
ATOM     10  H   UNL     1      33.802 -18.808 -21.172  0.00  0.00    +0.157 HD
ENDROOT
BRANCH   9  14
ATOM     11  F   UNL     1      35.229 -15.684 -20.856  0.00  0.00    -0.204 F 
ATOM     12  F   UNL     1      34.789 -18.711 -24.490  0.00  0.00    -0.204 F 
ATOM     13  F   UNL     1      33.276 -14.250 -24.919  0.00  0.00    -0.204 F 
ATOM     14  C   UNL     1      35.012 -17.202 -22.670  0.00  0.00    +0.109 C 
ATOM     15  C   UNL     1      34.841 -15.952 -22.111  0.00  0.00    +0.149 C 
ATOM     16  C   UNL     1      34.618 -17.492 -23.959  0.00  0.00    +0.149 C 
ATOM     17  C   UNL     1      34.250 -14.947 -22.877  0.00  0.00    +0.060 C 
ATOM     18  C   UNL     1      34.026 -16.487 -24.725  0.00  0.00    +0.060 C 
ATOM     19  C   UNL     1      33.842 -15.214 -24.184  0.00  0.00    +0.145 C 
ENDBRANCH   9  14
BRANCH   2  21
ATOM     20  O   UNL     1      32.134 -22.168 -18.409  0.00  0.00    -0.289 OA
ATOM     21  C   UNL     1      33.290 -22.353 -18.036  0.00  0.00    +0.202 C 
BRANCH  21  23
ATOM     22  N   UNL     1      33.934 -23.487 -13.976  0.00  0.00    +0.386 N 
ATOM     23  C   UNL     1      33.587 -23.243 -16.869  0.00  0.00    +0.060 C 
ATOM     24  C   UNL     1      32.403 -23.233 -15.902  0.00  0.00    -0.015 C 
ATOM     25  C   UNL     1      34.857 -22.777 -16.159  0.00  0.00    -0.015 C 
ATOM     26  C   UNL     1      32.724 -24.010 -14.624  0.00  0.00    -0.077 C 
ATOM     27  C   UNL     1      35.095 -23.570 -14.873  0.00  0.00    -0.077 C 
ATOM     28  C   UNL     1      34.197 -24.205 -12.729  0.00  0.00    -0.101 C 
ATOM     29  H   UNL     1      33.774 -22.503 -13.759  0.00  0.00    -0.080 HD
ENDBRANCH  21  23
ENDBRANCH   2  21
TORSDOF 3
ENDMDL
MODEL 5
REMARK VINA RESULT:     -10.8      3.473      6.193
REMARK  Name = 11610526
REMARK  3 active torsions:
REMARK  status: ('A' for Active; 'I' for Inactive)
REMARK    1  A    between atoms: C_2  and  C_21
REMARK    2  A    between atoms: C_9  and  C_14
REMARK    3  A    between atoms: C_21  and  C_23
REMARK                            x       y       z     vdW  Elec       q    Type
REMARK                         _______ _______ _______ _____ _____    ______ ____
ROOT
ATOM      1  N   UNL     1      33.209 -11.822 -23.786  0.00  0.00    -0.388 NA
ATOM      2  C   UNL     1      32.918 -13.024 -23.283  0.00  0.00    +0.167 C 
ATOM      3  C   UNL     1      32.275 -13.285 -22.104  0.00  0.00    +0.031 C 
ATOM      4  C   UNL     1      32.815 -10.775 -23.027  0.00  0.00    +0.167 C 
ATOM      5  C   UNL     1      31.884 -12.183 -21.351  0.00  0.00    -0.015 C 
ATOM      6  C   UNL     1      32.156 -10.900 -21.815  0.00  0.00    +0.101 C 
ATOM      7  O   UNL     1      32.190  -8.115 -21.793  0.00  0.00    -0.270 OA
ATOM      8  N   UNL     1      33.083  -9.480 -23.486  0.00  0.00    -0.259 N 
ATOM      9  C   UNL     1      32.767  -8.267 -22.865  0.00  0.00    +0.255 C 
ATOM     10  H   UNL     1      33.552  -9.415 -24.349  0.00  0.00    +0.157 HD
ENDROOT
BRANCH   9  14
ATOM     11  F   UNL     1      30.896  -6.695 -24.240  0.00  0.00    -0.204 F 
ATOM     12  F   UNL     1      35.429  -7.392 -23.003  0.00  0.00    -0.204 F 
ATOM     13  F   UNL     1      34.246  -3.688 -25.696  0.00  0.00    -0.204 F 
ATOM     14  C   UNL     1      33.161  -7.048 -23.618  0.00  0.00    +0.109 C 
ATOM     15  C   UNL     1      32.184  -6.325 -24.271  0.00  0.00    +0.149 C 
ATOM     16  C   UNL     1      34.489  -6.680 -23.641  0.00  0.00    +0.149 C 
ATOM     17  C   UNL     1      32.554  -5.181 -24.979  0.00  0.00    +0.060 C 
ATOM     18  C   UNL     1      34.859  -5.536 -24.349  0.00  0.00    +0.060 C 
ATOM     19  C   UNL     1      33.891  -4.787 -25.018  0.00  0.00    +0.145 C 
ENDBRANCH   9  14
BRANCH   2  21
ATOM     20  O   UNL     1      33.421 -14.040 -25.351  0.00  0.00    -0.289 OA
ATOM     21  C   UNL     1      33.359 -14.167 -24.130  0.00  0.00    +0.202 C 
BRANCH  21  23
ATOM     22  N   UNL     1      35.807 -17.423 -22.869  0.00  0.00    +0.386 N 
ATOM     23  C   UNL     1      33.724 -15.462 -23.473  0.00  0.00    +0.060 C 
ATOM     24  C   UNL     1      34.794 -15.213 -22.410  0.00  0.00    -0.015 C 
ATOM     25  C   UNL     1      34.231 -16.459 -24.513  0.00  0.00    -0.015 C 
ATOM     26  C   UNL     1      35.303 -16.529 -21.818  0.00  0.00    -0.077 C 
ATOM     27  C   UNL     1      34.758 -17.732 -23.850  0.00  0.00    -0.077 C 
ATOM     28  C   UNL     1      36.338 -18.653 -22.282  0.00  0.00    -0.101 C 
ATOM     29  H   UNL     1      36.562 -16.940 -23.357  0.00  0.00    -0.080 HD
ENDBRANCH  21  23
ENDBRANCH   2  21
TORSDOF 3
ENDMDL
MODEL 6
REMARK VINA RESULT:     -10.7      6.184     11.681
REMARK  Name = 11610526
REMARK  3 active torsions:
REMARK  status: ('A' for Active; 'I' for Inactive)
REMARK    1  A    between atoms: C_2  and  C_21
REMARK    2  A    between atoms: C_9  and  C_14
REMARK    3  A    between atoms: C_21  and  C_23
REMARK                            x       y       z     vdW  Elec       q    Type
REMARK                         _______ _______ _______ _____ _____    ______ ____
ROOT
ATOM      1  N   UNL     1      35.640 -21.702 -18.305  0.00  0.00    -0.388 NA
ATOM      2  C   UNL     1      34.935 -21.078 -19.253  0.00  0.00    +0.167 C 
ATOM      3  C   UNL     1      33.581 -21.132 -19.436  0.00  0.00    +0.031 C 
ATOM      4  C   UNL     1      34.910 -22.458 -17.456  0.00  0.00    +0.167 C 
ATOM      5  C   UNL     1      32.863 -21.920 -18.542  0.00  0.00    -0.015 C 
ATOM      6  C   UNL     1      33.533 -22.599 -17.530  0.00  0.00    +0.101 C 
ATOM      7  O   UNL     1      33.834 -24.257 -15.312  0.00  0.00    -0.270 OA
ATOM      8  N   UNL     1      35.575 -23.145 -16.433  0.00  0.00    -0.259 N 
ATOM      9  C   UNL     1      35.019 -23.975 -15.456  0.00  0.00    +0.255 C 
ATOM     10  H   UNL     1      36.552 -23.031 -16.400  0.00  0.00    +0.157 HD
ENDROOT
BRANCH   9  14
ATOM     11  F   UNL     1      36.130 -22.442 -13.387  0.00  0.00    -0.204 F 
ATOM     12  F   UNL     1      35.854 -26.651 -15.571  0.00  0.00    -0.204 F 
ATOM     13  F   UNL     1      38.659 -26.112 -11.800  0.00  0.00    -0.204 F 
ATOM     14  C   UNL     1      35.988 -24.544 -14.483  0.00  0.00    +0.109 C 
ATOM     15  C   UNL     1      36.492 -23.728 -13.491  0.00  0.00    +0.149 C 
ATOM     16  C   UNL     1      36.351 -25.869 -14.602  0.00  0.00    +0.149 C 
ATOM     17  C   UNL     1      37.402 -24.263 -12.578  0.00  0.00    +0.060 C 
ATOM     18  C   UNL     1      37.262 -26.402 -13.689  0.00  0.00    +0.060 C 
ATOM     19  C   UNL     1      37.787 -25.599 -12.677  0.00  0.00    +0.145 C 
ENDBRANCH   9  14
BRANCH   2  21
ATOM     20  O   UNL     1      36.974 -20.394 -20.222  0.00  0.00    -0.289 OA
ATOM     21  C   UNL     1      35.754 -20.249 -20.181  0.00  0.00    +0.202 C 
BRANCH  21  23
ATOM     22  N   UNL     1      35.250 -17.444 -23.353  0.00  0.00    +0.386 N 
ATOM     23  C   UNL     1      35.070 -19.245 -21.056  0.00  0.00    +0.060 C 
ATOM     24  C   UNL     1      35.043 -19.756 -22.497  0.00  0.00    -0.015 C 
ATOM     25  C   UNL     1      35.793 -17.901 -20.983  0.00  0.00    -0.015 C 
ATOM     26  C   UNL     1      34.488 -18.696 -23.450  0.00  0.00    -0.077 C 
ATOM     27  C   UNL     1      35.212 -16.904 -21.987  0.00  0.00    -0.077 C 
ATOM     28  C   UNL     1      34.741 -16.459 -24.307  0.00  0.00    -0.101 C 
ATOM     29  H   UNL     1      36.223 -17.649 -23.582  0.00  0.00    -0.080 HD
ENDBRANCH  21  23
ENDBRANCH   2  21
TORSDOF 3
ENDMDL
MODEL 7
REMARK VINA RESULT:     -10.5      7.504     12.458
REMARK  Name = 11610526
REMARK  3 active torsions:
REMARK  status: ('A' for Active; 'I' for Inactive)
REMARK    1  A    between atoms: C_2  and  C_21
REMARK    2  A    between atoms: C_9  and  C_14
REMARK    3  A    between atoms: C_21  and  C_23
REMARK                            x       y       z     vdW  Elec       q    Type
REMARK                         _______ _______ _______ _____ _____    ______ ____
ROOT
ATOM      1  N   UNL     1      34.325 -22.996 -17.285  0.00  0.00    -0.388 NA
ATOM      2  C   UNL     1      33.171 -22.498 -17.737  0.00  0.00    +0.167 C 
ATOM      3  C   UNL     1      31.964 -22.511 -17.094  0.00  0.00    +0.031 C 
ATOM      4  C   UNL     1      34.258 -23.568 -16.062  0.00  0.00    +0.167 C 
ATOM      5  C   UNL     1      31.935 -23.108 -15.839  0.00  0.00    -0.015 C 
ATOM      6  C   UNL     1      33.101 -23.648 -15.305  0.00  0.00    +0.101 C 
ATOM      7  O   UNL     1      34.710 -24.941 -13.435  0.00  0.00    -0.270 OA
ATOM      8  N   UNL     1      35.426 -24.114 -15.516  0.00  0.00    -0.259 N 
ATOM      9  C   UNL     1      35.580 -24.747 -14.279  0.00  0.00    +0.255 C 
ATOM     10  H   UNL     1      36.236 -24.046 -16.071  0.00  0.00    +0.157 HD
ENDROOT
BRANCH   9  14
ATOM     11  F   UNL     1      36.701 -27.034 -15.454  0.00  0.00    -0.204 F 
ATOM     12  F   UNL     1      37.231 -23.371 -12.477  0.00  0.00    -0.204 F 
ATOM     13  F   UNL     1      40.766 -26.451 -13.105  0.00  0.00    -0.204 F 
ATOM     14  C   UNL     1      36.960 -25.201 -13.967  0.00  0.00    +0.109 C 
ATOM     15  C   UNL     1      37.444 -26.336 -14.584  0.00  0.00    +0.149 C 
ATOM     16  C   UNL     1      37.713 -24.473 -13.070  0.00  0.00    +0.149 C 
ATOM     17  C   UNL     1      38.740 -26.761 -14.290  0.00  0.00    +0.060 C 
ATOM     18  C   UNL     1      39.008 -24.899 -12.776  0.00  0.00    +0.060 C 
ATOM     19  C   UNL     1      39.522 -26.043 -13.387  0.00  0.00    +0.145 C 
ENDBRANCH   9  14
BRANCH   2  21
ATOM     20  O   UNL     1      32.510 -22.239 -19.986  0.00  0.00    -0.289 OA
ATOM     21  C   UNL     1      33.261 -21.872 -19.086  0.00  0.00    +0.202 C 
BRANCH  21  23
ATOM     22  N   UNL     1      36.293 -19.658 -21.108  0.00  0.00    +0.386 N 
ATOM     23  C   UNL     1      34.276 -20.797 -19.324  0.00  0.00    +0.060 C 
ATOM     24  C   UNL     1      33.902 -20.008 -20.579  0.00  0.00    -0.015 C 
ATOM     25  C   UNL     1      35.668 -21.408 -19.476  0.00  0.00    -0.015 C 
ATOM     26  C   UNL     1      34.992 -18.998 -20.944  0.00  0.00    -0.077 C 
ATOM     27  C   UNL     1      36.697 -20.349 -19.877  0.00  0.00    -0.077 C 
ATOM     28  C   UNL     1      37.312 -18.687 -21.508  0.00  0.00    -0.101 C 
ATOM     29  H   UNL     1      36.201 -20.357 -21.846  0.00  0.00    -0.080 HD
ENDBRANCH  21  23
ENDBRANCH   2  21
TORSDOF 3
ENDMDL
MODEL 8
REMARK VINA RESULT:     -10.4      6.532      9.909
REMARK  Name = 11610526
REMARK  3 active torsions:
REMARK  status: ('A' for Active; 'I' for Inactive)
REMARK    1  A    between atoms: C_2  and  C_21
REMARK    2  A    between atoms: C_9  and  C_14
REMARK    3  A    between atoms: C_21  and  C_23
REMARK                            x       y       z     vdW  Elec       q    Type
REMARK                         _______ _______ _______ _____ _____    ______ ____
ROOT
ATOM      1  N   UNL     1      34.563 -23.440 -14.817  0.00  0.00    -0.388 NA
ATOM      2  C   UNL     1      34.045 -24.161 -13.819  0.00  0.00    +0.167 C 
ATOM      3  C   UNL     1      32.781 -24.679 -13.752  0.00  0.00    +0.031 C 
ATOM      4  C   UNL     1      33.724 -23.215 -15.852  0.00  0.00    +0.167 C 
ATOM      5  C   UNL     1      31.948 -24.427 -14.836  0.00  0.00    -0.015 C 
ATOM      6  C   UNL     1      32.421 -23.682 -15.911  0.00  0.00    +0.101 C 
ATOM      7  O   UNL     1      32.341 -22.409 -18.387  0.00  0.00    -0.270 OA
ATOM      8  N   UNL     1      34.191 -22.467 -16.939  0.00  0.00    -0.259 N 
ATOM      9  C   UNL     1      33.498 -22.118 -18.102  0.00  0.00    +0.255 C 
ATOM     10  H   UNL     1      35.119 -22.145 -16.876  0.00  0.00    +0.157 HD
ENDROOT
BRANCH   9  14
ATOM     11  F   UNL     1      36.301 -22.181 -18.180  0.00  0.00    -0.204 F 
ATOM     12  F   UNL     1      32.263 -20.481 -20.016  0.00  0.00    -0.204 F 
ATOM     13  F   UNL     1      36.431 -19.172 -21.829  0.00  0.00    -0.204 F 
ATOM     14  C   UNL     1      34.279 -21.334 -19.094  0.00  0.00    +0.109 C 
ATOM     15  C   UNL     1      35.656 -21.415 -19.072  0.00  0.00    +0.149 C 
ATOM     16  C   UNL     1      33.602 -20.551 -20.005  0.00  0.00    +0.149 C 
ATOM     17  C   UNL     1      36.388 -20.678 -20.003  0.00  0.00    +0.060 C 
ATOM     18  C   UNL     1      34.335 -19.814 -20.936  0.00  0.00    +0.060 C 
ATOM     19  C   UNL     1      35.728 -19.878 -20.935  0.00  0.00    +0.145 C 
ENDBRANCH   9  14
BRANCH   2  21
ATOM     20  O   UNL     1      34.732 -23.938 -11.574  0.00  0.00    -0.289 OA
ATOM     21  C   UNL     1      34.981 -24.399 -12.685  0.00  0.00    +0.202 C 
BRANCH  21  23
ATOM     22  N   UNL     1      38.641 -25.600 -14.515  0.00  0.00    +0.386 N 
ATOM     23  C   UNL     1      36.221 -25.205 -12.921  0.00  0.00    +0.060 C 
ATOM     24  C   UNL     1      37.450 -24.308 -12.774  0.00  0.00    -0.015 C 
ATOM     25  C   UNL     1      36.186 -25.832 -14.314  0.00  0.00    -0.015 C 
ATOM     26  C   UNL     1      38.731 -25.054 -13.154  0.00  0.00    -0.077 C 
ATOM     27  C   UNL     1      37.509 -26.528 -14.641  0.00  0.00    -0.077 C 
ATOM     28  C   UNL     1      39.891 -26.264 -14.883  0.00  0.00    -0.101 C 
ATOM     29  H   UNL     1      38.483 -24.822 -15.157  0.00  0.00    -0.080 HD
ENDBRANCH  21  23
ENDBRANCH   2  21
TORSDOF 3
ENDMDL
MODEL 9
REMARK VINA RESULT:     -10.4      6.519      9.883
REMARK  Name = 11610526
REMARK  3 active torsions:
REMARK  status: ('A' for Active; 'I' for Inactive)
REMARK    1  A    between atoms: C_2  and  C_21
REMARK    2  A    between atoms: C_9  and  C_14
REMARK    3  A    between atoms: C_21  and  C_23
REMARK                            x       y       z     vdW  Elec       q    Type
REMARK                         _______ _______ _______ _____ _____    ______ ____
ROOT
ATOM      1  N   UNL     1      34.544 -23.414 -14.844  0.00  0.00    -0.388 NA
ATOM      2  C   UNL     1      34.012 -24.131 -13.851  0.00  0.00    +0.167 C 
ATOM      3  C   UNL     1      32.745 -24.642 -13.797  0.00  0.00    +0.031 C 
ATOM      4  C   UNL     1      33.718 -23.185 -15.888  0.00  0.00    +0.167 C 
ATOM      5  C   UNL     1      31.924 -24.386 -14.891  0.00  0.00    -0.015 C 
ATOM      6  C   UNL     1      32.413 -23.644 -15.961  0.00  0.00    +0.101 C 
ATOM      7  O   UNL     1      32.367 -22.374 -18.439  0.00  0.00    -0.270 OA
ATOM      8  N   UNL     1      34.201 -22.440 -16.971  0.00  0.00    -0.259 N 
ATOM      9  C   UNL     1      33.523 -22.089 -18.142  0.00  0.00    +0.255 C 
ATOM     10  H   UNL     1      35.131 -22.124 -16.898  0.00  0.00    +0.157 HD
ENDROOT
BRANCH   9  14
ATOM     11  F   UNL     1      32.317 -20.479 -20.096  0.00  0.00    -0.204 F 
ATOM     12  F   UNL     1      36.328 -22.137 -18.165  0.00  0.00    -0.204 F 
ATOM     13  F   UNL     1      36.514 -19.165 -21.841  0.00  0.00    -0.204 F 
ATOM     14  C   UNL     1      34.319 -21.311 -19.126  0.00  0.00    +0.109 C 
ATOM     15  C   UNL     1      33.655 -20.540 -20.059  0.00  0.00    +0.149 C 
ATOM     16  C   UNL     1      35.695 -21.384 -19.076  0.00  0.00    +0.149 C 
ATOM     17  C   UNL     1      34.403 -19.810 -20.983  0.00  0.00    +0.060 C 
ATOM     18  C   UNL     1      36.442 -20.654 -20.001  0.00  0.00    +0.060 C 
ATOM     19  C   UNL     1      35.796 -19.867 -20.954  0.00  0.00    +0.145 C 
ENDBRANCH   9  14
BRANCH   2  21
ATOM     20  O   UNL     1      34.667 -23.925 -11.594  0.00  0.00    -0.289 OA
ATOM     21  C   UNL     1      34.935 -24.373 -12.707  0.00  0.00    +0.202 C 
BRANCH  21  23
ATOM     22  N   UNL     1      38.621 -25.535 -14.508  0.00  0.00    +0.386 N 
ATOM     23  C   UNL     1      36.184 -25.166 -12.934  0.00  0.00    +0.060 C 
ATOM     24  C   UNL     1      37.403 -24.258 -12.774  0.00  0.00    -0.015 C 
ATOM     25  C   UNL     1      36.167 -25.791 -14.329  0.00  0.00    -0.015 C 
ATOM     26  C   UNL     1      38.694 -24.992 -13.145  0.00  0.00    -0.077 C 
ATOM     27  C   UNL     1      37.499 -26.473 -14.647  0.00  0.00    -0.077 C 
ATOM     28  C   UNL     1      39.881 -26.187 -14.866  0.00  0.00    -0.101 C 
ATOM     29  H   UNL     1      38.462 -24.757 -15.149  0.00  0.00    -0.080 HD
ENDBRANCH  21  23
ENDBRANCH   2  21
TORSDOF 3
ENDMDL
