MODEL 1
REMARK VINA RESULT:     -12.0      0.000      0.000
REMARK  Name = 11974440
REMARK  4 active torsions:
REMARK  status: ('A' for Active; 'I' for Inactive)
REMARK    1  A    between atoms: C_1  and  C_25
REMARK    2  A    between atoms: C_2  and  N_31
REMARK    3  A    between atoms: C_5  and  C_12
REMARK    4  A    between atoms: C_17  and  C_21
REMARK                            x       y       z     vdW  Elec       q    Type
REMARK                         _______ _______ _______ _____ _____    ______ ____
ROOT
ATOM      1  C   UNL     1      34.597 -20.003 -19.990  0.00  0.00    +0.009 C 
ATOM      2  C   UNL     1      35.652 -21.129 -19.841  0.00  0.00    -0.057 C 
ATOM      3  C   UNL     1      35.484 -21.852 -18.489  0.00  0.00    +0.009 C 
ATOM      4  C   UNL     1      33.166 -20.583 -19.884  0.00  0.00    +0.028 C 
ATOM      5  C   UNL     1      34.053 -22.165 -18.172  0.00  0.00    +0.025 C 
ATOM      6  C   UNL     1      33.009 -21.609 -18.800  0.00  0.00    -0.026 C 
ENDROOT
BRANCH   5  12
ATOM      7  O   UNL     1      32.758 -23.852 -17.239  0.00  0.00    -0.270 OA
ATOM      8  N   UNL     1      34.666 -23.247 -16.056  0.00  0.00    -0.267 N 
ATOM      9  N   UNL     1      36.915 -24.383 -14.939  0.00  0.00    -0.292 N 
ATOM     10  N   UNL     1      35.873 -25.938 -13.819  0.00  0.00    -0.132 NA
ATOM     11  N   UNL     1      37.237 -26.135 -13.692  0.00  0.00    -0.125 NA
ATOM     12  C   UNL     1      33.768 -23.157 -17.116  0.00  0.00    +0.245 C 
ATOM     13  C   UNL     1      35.842 -22.381 -15.837  0.00  0.00    +0.119 C 
ATOM     14  C   UNL     1      34.417 -24.235 -14.994  0.00  0.00    +0.160 C 
ATOM     15  C   UNL     1      37.110 -23.232 -15.793  0.00  0.00    +0.130 C 
ATOM     16  C   UNL     1      35.691 -24.877 -14.576  0.00  0.00    +0.164 A 
ATOM     17  C   UNL     1      37.845 -25.189 -14.374  0.00  0.00    +0.238 A 
BRANCH  17  21
ATOM     18  F   UNL     1      39.925 -26.014 -15.221  0.00  0.00    -0.163 F 
ATOM     19  F   UNL     1      39.649 -23.863 -15.213  0.00  0.00    -0.163 F 
ATOM     20  F   UNL     1      39.970 -24.921 -13.341  0.00  0.00    -0.163 F 
ATOM     21  C   UNL     1      39.297 -25.003 -14.535  0.00  0.00    +0.452 C 
ENDBRANCH  17  21
ENDBRANCH   5  12
BRANCH   1  25
ATOM     22  F   UNL     1      35.790 -17.430 -20.062  0.00  0.00    -0.204 F 
ATOM     23  F   UNL     1      33.939 -19.440 -24.799  0.00  0.00    -0.202 F 
ATOM     24  F   UNL     1      35.112 -16.973 -24.723  0.00  0.00    -0.202 F 
ATOM     25  C   UNL     1      34.738 -19.184 -21.264  0.00  0.00    +0.006 C 
ATOM     26  C   UNL     1      35.336 -17.930 -21.220  0.00  0.00    +0.138 C 
ATOM     27  C   UNL     1      34.265 -19.699 -22.468  0.00  0.00    +0.030 C 
ATOM     28  C   UNL     1      34.392 -18.951 -23.637  0.00  0.00    +0.167 C 
ATOM     29  C   UNL     1      35.464 -17.181 -22.390  0.00  0.00    +0.061 C 
ATOM     30  C   UNL     1      34.992 -17.693 -23.599  0.00  0.00    +0.170 C 
ENDBRANCH   1  25
BRANCH   2  31
ATOM     31  N   UNL     1      37.016 -20.601 -19.942  0.00  0.00    +0.382 N 
ATOM     32  H   UNL     1      37.670 -21.374 -20.072  0.00  0.00    -0.089 HD
ATOM     33  H   UNL     1      37.250 -20.099 -19.086  0.00  0.00    -0.089 HD
ATOM     34  H   UNL     1      37.078 -19.967 -20.738  0.00  0.00    -0.089 HD
ENDBRANCH   2  31
TORSDOF 4
ENDMDL
MODEL 2
REMARK VINA RESULT:     -11.6      3.558      4.361
REMARK  Name = 11974440
REMARK  4 active torsions:
REMARK  status: ('A' for Active; 'I' for Inactive)
REMARK    1  A    between atoms: C_1  and  C_25
REMARK    2  A    between atoms: C_2  and  N_31
REMARK    3  A    between atoms: C_5  and  C_12
REMARK    4  A    between atoms: C_17  and  C_21
REMARK                            x       y       z     vdW  Elec       q    Type
REMARK                         _______ _______ _______ _____ _____    ______ ____
ROOT
ATOM      1  C   UNL     1      35.196 -20.434 -20.664  0.00  0.00    +0.009 C 
ATOM      2  C   UNL     1      34.047 -20.498 -19.624  0.00  0.00    -0.057 C 
ATOM      3  C   UNL     1      34.288 -21.644 -18.622  0.00  0.00    +0.009 C 
ATOM      4  C   UNL     1      36.557 -20.230 -19.956  0.00  0.00    +0.028 C 
ATOM      5  C   UNL     1      35.703 -21.699 -18.130  0.00  0.00    +0.025 C 
ATOM      6  C   UNL     1      36.724 -21.059 -18.717  0.00  0.00    -0.026 C 
ENDROOT
BRANCH   5  12
ATOM      7  O   UNL     1      37.103 -22.349 -16.394  0.00  0.00    -0.270 OA
ATOM      8  N   UNL     1      34.998 -23.335 -16.442  0.00  0.00    -0.267 N 
ATOM      9  N   UNL     1      32.816 -23.750 -14.811  0.00  0.00    -0.292 N 
ATOM     10  N   UNL     1      33.925 -24.573 -13.123  0.00  0.00    -0.132 NA
ATOM     11  N   UNL     1      32.598 -24.428 -12.756  0.00  0.00    -0.125 NA
ATOM     12  C   UNL     1      35.996 -22.490 -16.918  0.00  0.00    +0.245 C 
ATOM     13  C   UNL     1      33.692 -23.586 -17.084  0.00  0.00    +0.119 C 
ATOM     14  C   UNL     1      35.254 -24.127 -15.229  0.00  0.00    +0.160 C 
ATOM     15  C   UNL     1      32.564 -23.206 -16.128  0.00  0.00    +0.130 C 
ATOM     16  C   UNL     1      34.044 -24.157 -14.366  0.00  0.00    +0.164 A 
ATOM     17  C   UNL     1      31.949 -23.931 -13.786  0.00  0.00    +0.238 A 
BRANCH  17  21
ATOM     18  F   UNL     1      30.252 -22.307 -14.239  0.00  0.00    -0.163 F 
ATOM     19  F   UNL     1      29.801 -24.368 -14.741  0.00  0.00    -0.163 F 
ATOM     20  F   UNL     1      29.863 -23.749 -12.658  0.00  0.00    -0.163 F 
ATOM     21  C   UNL     1      30.516 -23.599 -13.856  0.00  0.00    +0.452 C 
ENDBRANCH  17  21
ENDBRANCH   5  12
BRANCH   1  25
ATOM     22  F   UNL     1      36.043 -17.742 -20.373  0.00  0.00    -0.204 F 
ATOM     23  F   UNL     1      33.595 -19.079 -25.077  0.00  0.00    -0.202 F 
ATOM     24  F   UNL     1      34.462 -16.520 -24.662  0.00  0.00    -0.202 F 
ATOM     25  C   UNL     1      35.001 -19.378 -21.741  0.00  0.00    +0.006 C 
ATOM     26  C   UNL     1      35.444 -18.077 -21.524  0.00  0.00    +0.138 C 
ATOM     27  C   UNL     1      34.377 -19.721 -22.936  0.00  0.00    +0.030 C 
ATOM     28  C   UNL     1      34.195 -18.755 -23.924  0.00  0.00    +0.167 C 
ATOM     29  C   UNL     1      35.263 -17.110 -22.513  0.00  0.00    +0.061 C 
ATOM     30  C   UNL     1      34.639 -17.449 -23.713  0.00  0.00    +0.170 C 
ENDBRANCH   1  25
BRANCH   2  31
ATOM     31  N   UNL     1      32.747 -20.687 -20.273  0.00  0.00    +0.382 N 
ATOM     32  H   UNL     1      32.221 -21.406 -19.776  0.00  0.00    -0.089 HD
ATOM     33  H   UNL     1      32.888 -20.977 -21.240  0.00  0.00    -0.089 HD
ATOM     34  H   UNL     1      32.225 -19.810 -20.253  0.00  0.00    -0.089 HD
ENDBRANCH   2  31
TORSDOF 4
ENDMDL
MODEL 3
REMARK VINA RESULT:     -11.5      3.867      4.790
REMARK  Name = 11974440
REMARK  4 active torsions:
REMARK  status: ('A' for Active; 'I' for Inactive)
REMARK    1  A    between atoms: C_1  and  C_25
REMARK    2  A    between atoms: C_2  and  N_31
REMARK    3  A    between atoms: C_5  and  C_12
REMARK    4  A    between atoms: C_17  and  C_21
REMARK                            x       y       z     vdW  Elec       q    Type
REMARK                         _______ _______ _______ _____ _____    ______ ____
ROOT
ATOM      1  C   UNL     1      35.137 -19.925 -21.234  0.00  0.00    +0.009 C 
ATOM      2  C   UNL     1      33.946 -20.065 -20.250  0.00  0.00    -0.057 C 
ATOM      3  C   UNL     1      34.175 -21.250 -19.290  0.00  0.00    +0.009 C 
ATOM      4  C   UNL     1      36.459 -19.719 -20.458  0.00  0.00    +0.028 C 
ATOM      5  C   UNL     1      35.569 -21.291 -18.739  0.00  0.00    +0.025 C 
ATOM      6  C   UNL     1      36.596 -20.599 -19.251  0.00  0.00    -0.026 C 
ENDROOT
BRANCH   5  12
ATOM      7  O   UNL     1      36.919 -21.999 -16.987  0.00  0.00    -0.270 OA
ATOM      8  N   UNL     1      34.828 -23.002 -17.144  0.00  0.00    -0.267 N 
ATOM      9  N   UNL     1      32.599 -23.506 -15.603  0.00  0.00    -0.292 N 
ATOM     10  N   UNL     1      33.662 -24.388 -13.915  0.00  0.00    -0.132 NA
ATOM     11  N   UNL     1      32.322 -24.271 -13.587  0.00  0.00    -0.125 NA
ATOM     12  C   UNL     1      35.832 -22.129 -17.552  0.00  0.00    +0.245 C 
ATOM     13  C   UNL     1      33.546 -23.239 -17.838  0.00  0.00    +0.119 C 
ATOM     14  C   UNL     1      35.053 -23.842 -15.957  0.00  0.00    +0.160 C 
ATOM     15  C   UNL     1      32.383 -22.911 -16.904  0.00  0.00    +0.130 C 
ATOM     16  C   UNL     1      33.816 -23.920 -15.136  0.00  0.00    +0.164 A 
ATOM     17  C   UNL     1      31.702 -23.738 -14.616  0.00  0.00    +0.238 A 
BRANCH  17  21
ATOM     18  F   UNL     1      29.934 -22.163 -14.270  0.00  0.00    -0.163 F 
ATOM     19  F   UNL     1      29.769 -23.464 -15.998  0.00  0.00    -0.163 F 
ATOM     20  F   UNL     1      29.466 -24.269 -14.001  0.00  0.00    -0.163 F 
ATOM     21  C   UNL     1      30.267 -23.417 -14.719  0.00  0.00    +0.452 C 
ENDBRANCH  17  21
ENDBRANCH   5  12
BRANCH   1  25
ATOM     22  F   UNL     1      34.463 -20.434 -23.943  0.00  0.00    -0.204 F 
ATOM     23  F   UNL     1      35.134 -15.204 -22.493  0.00  0.00    -0.202 F 
ATOM     24  F   UNL     1      34.483 -15.839 -25.071  0.00  0.00    -0.202 F 
ATOM     25  C   UNL     1      34.958 -18.826 -22.270  0.00  0.00    +0.006 C 
ATOM     26  C   UNL     1      34.627 -19.154 -23.580  0.00  0.00    +0.138 C 
ATOM     27  C   UNL     1      35.131 -17.496 -21.897  0.00  0.00    +0.030 C 
ATOM     28  C   UNL     1      34.969 -16.486 -22.845  0.00  0.00    +0.167 C 
ATOM     29  C   UNL     1      34.465 -18.144 -24.527  0.00  0.00    +0.061 C 
ATOM     30  C   UNL     1      34.636 -16.809 -24.160  0.00  0.00    +0.170 C 
ENDBRANCH   1  25
BRANCH   2  31
ATOM     31  N   UNL     1      32.680 -20.258 -20.963  0.00  0.00    +0.382 N 
ATOM     32  H   UNL     1      31.903 -20.143 -20.313  0.00  0.00    -0.089 HD
ATOM     33  H   UNL     1      32.654 -21.196 -21.361  0.00  0.00    -0.089 HD
ATOM     34  H   UNL     1      32.603 -19.568 -21.711  0.00  0.00    -0.089 HD
ENDBRANCH   2  31
TORSDOF 4
ENDMDL
MODEL 4
REMARK VINA RESULT:     -11.4     10.804     16.506
REMARK  Name = 11974440
REMARK  4 active torsions:
REMARK  status: ('A' for Active; 'I' for Inactive)
REMARK    1  A    between atoms: C_1  and  C_25
REMARK    2  A    between atoms: C_2  and  N_31
REMARK    3  A    between atoms: C_5  and  C_12
REMARK    4  A    between atoms: C_17  and  C_21
REMARK                            x       y       z     vdW  Elec       q    Type
REMARK                         _______ _______ _______ _____ _____    ______ ____
ROOT
ATOM      1  C   UNL     1      32.907 -11.906 -23.072  0.00  0.00    +0.009 C 
ATOM      2  C   UNL     1      33.970 -10.779 -23.130  0.00  0.00    -0.057 C 
ATOM      3  C   UNL     1      33.303  -9.398 -22.964  0.00  0.00    +0.009 C 
ATOM      4  C   UNL     1      32.137 -11.857 -21.731  0.00  0.00    +0.028 C 
ATOM      5  C   UNL     1      32.289  -9.371 -21.861  0.00  0.00    +0.025 C 
ATOM      6  C   UNL     1      31.770 -10.469 -21.295  0.00  0.00    -0.026 C 
ENDROOT
BRANCH   5  12
ATOM      7  O   UNL     1      31.982  -7.835 -20.145  0.00  0.00    -0.270 OA
ATOM      8  N   UNL     1      31.303  -7.160 -22.263  0.00  0.00    -0.267 N 
ATOM      9  N   UNL     1      31.651  -5.078 -24.036  0.00  0.00    -0.292 N 
ATOM     10  N   UNL     1      31.204  -3.477 -22.624  0.00  0.00    -0.132 NA
ATOM     11  N   UNL     1      31.616  -2.915 -23.820  0.00  0.00    -0.125 NA
ATOM     12  C   UNL     1      31.843  -8.060 -21.349  0.00  0.00    +0.245 C 
ATOM     13  C   UNL     1      31.051  -7.421 -23.695  0.00  0.00    +0.119 C 
ATOM     14  C   UNL     1      30.860  -5.840 -21.787  0.00  0.00    +0.160 C 
ATOM     15  C   UNL     1      31.828  -6.420 -24.548  0.00  0.00    +0.130 C 
ATOM     16  C   UNL     1      31.232  -4.786 -22.767  0.00  0.00    +0.164 A 
ATOM     17  C   UNL     1      31.881  -3.896 -24.655  0.00  0.00    +0.238 A 
BRANCH  17  21
ATOM     18  F   UNL     1      32.377  -4.959 -26.740  0.00  0.00    -0.163 F 
ATOM     19  F   UNL     1      31.617  -2.929 -26.826  0.00  0.00    -0.163 F 
ATOM     20  F   UNL     1      33.645  -3.300 -26.135  0.00  0.00    -0.163 F 
ATOM     21  C   UNL     1      32.361  -3.776 -26.042  0.00  0.00    +0.452 C 
ENDBRANCH  17  21
ENDBRANCH   5  12
BRANCH   1  25
ATOM     22  F   UNL     1      32.820 -13.220 -25.585  0.00  0.00    -0.204 F 
ATOM     23  F   UNL     1      35.139 -15.936 -21.444  0.00  0.00    -0.202 F 
ATOM     24  F   UNL     1      34.988 -17.082 -23.921  0.00  0.00    -0.202 F 
ATOM     25  C   UNL     1      33.468 -13.301 -23.304  0.00  0.00    +0.006 C 
ATOM     26  C   UNL     1      33.389 -13.879 -24.566  0.00  0.00    +0.138 C 
ATOM     27  C   UNL     1      34.057 -13.989 -22.247  0.00  0.00    +0.030 C 
ATOM     28  C   UNL     1      34.572 -15.268 -22.457  0.00  0.00    +0.167 C 
ATOM     29  C   UNL     1      33.904 -15.158 -24.776  0.00  0.00    +0.061 C 
ATOM     30  C   UNL     1      34.496 -15.852 -23.721  0.00  0.00    +0.170 C 
ENDBRANCH   1  25
BRANCH   2  31
ATOM     31  N   UNL     1      34.714 -10.809 -24.392  0.00  0.00    +0.382 N 
ATOM     32  H   UNL     1      35.630 -10.379 -24.257  0.00  0.00    -0.089 HD
ATOM     33  H   UNL     1      34.199 -10.292 -25.103  0.00  0.00    -0.089 HD
ATOM     34  H   UNL     1      34.835 -11.776 -24.693  0.00  0.00    -0.089 HD
ENDBRANCH   2  31
TORSDOF 4
ENDMDL
MODEL 5
REMARK VINA RESULT:     -11.2      1.540      2.090
REMARK  Name = 11974440
REMARK  4 active torsions:
REMARK  status: ('A' for Active; 'I' for Inactive)
REMARK    1  A    between atoms: C_1  and  C_25
REMARK    2  A    between atoms: C_2  and  N_31
REMARK    3  A    between atoms: C_5  and  C_12
REMARK    4  A    between atoms: C_17  and  C_21
REMARK                            x       y       z     vdW  Elec       q    Type
REMARK                         _______ _______ _______ _____ _____    ______ ____
ROOT
ATOM      1  C   UNL     1      35.059 -21.365 -19.524  0.00  0.00    +0.009 C 
ATOM      2  C   UNL     1      33.669 -21.298 -18.840  0.00  0.00    -0.057 C 
ATOM      3  C   UNL     1      33.502 -22.462 -17.842  0.00  0.00    +0.009 C 
ATOM      4  C   UNL     1      36.186 -21.309 -18.467  0.00  0.00    +0.028 C 
ATOM      5  C   UNL     1      34.714 -22.671 -16.985  0.00  0.00    +0.025 C 
ATOM      6  C   UNL     1      35.918 -22.148 -17.252  0.00  0.00    -0.026 C 
ENDROOT
BRANCH   5  12
ATOM      7  O   UNL     1      33.490 -24.029 -15.551  0.00  0.00    -0.270 OA
ATOM      8  N   UNL     1      35.689 -23.596 -14.931  0.00  0.00    -0.267 N 
ATOM      9  N   UNL     1      37.986 -24.933 -14.204  0.00  0.00    -0.292 N 
ATOM     10  N   UNL     1      37.068 -26.179 -12.666  0.00  0.00    -0.132 NA
ATOM     11  N   UNL     1      38.387 -26.567 -12.826  0.00  0.00    -0.125 NA
ATOM     12  C   UNL     1      34.577 -23.486 -15.761  0.00  0.00    +0.245 C 
ATOM     13  C   UNL     1      36.979 -22.901 -15.111  0.00  0.00    +0.119 C 
ATOM     14  C   UNL     1      35.589 -24.412 -13.711  0.00  0.00    +0.160 C 
ATOM     15  C   UNL     1      38.105 -23.926 -15.235  0.00  0.00    +0.130 C 
ATOM     16  C   UNL     1      36.838 -25.191 -13.506  0.00  0.00    +0.164 A 
ATOM     17  C   UNL     1      38.920 -25.806 -13.756  0.00  0.00    +0.238 A 
BRANCH  17  21
ATOM     18  F   UNL     1      40.948 -24.652 -14.285  0.00  0.00    -0.163 F 
ATOM     19  F   UNL     1      41.136 -26.683 -13.549  0.00  0.00    -0.163 F 
ATOM     20  F   UNL     1      40.385 -26.322 -15.557  0.00  0.00    -0.163 F 
ATOM     21  C   UNL     1      40.301 -25.862 -14.267  0.00  0.00    +0.452 C 
ENDBRANCH  17  21
ENDBRANCH   5  12
BRANCH   1  25
ATOM     22  F   UNL     1      37.316 -19.646 -19.553  0.00  0.00    -0.204 F 
ATOM     23  F   UNL     1      33.644 -18.985 -23.551  0.00  0.00    -0.202 F 
ATOM     24  F   UNL     1      35.868 -17.398 -23.456  0.00  0.00    -0.202 F 
ATOM     25  C   UNL     1      35.280 -20.295 -20.584  0.00  0.00    +0.006 C 
ATOM     26  C   UNL     1      36.413 -19.491 -20.531  0.00  0.00    +0.138 C 
ATOM     27  C   UNL     1      34.343 -20.130 -21.599  0.00  0.00    +0.030 C 
ATOM     28  C   UNL     1      34.542 -19.150 -22.571  0.00  0.00    +0.167 C 
ATOM     29  C   UNL     1      36.613 -18.511 -21.503  0.00  0.00    +0.061 C 
ATOM     30  C   UNL     1      35.677 -18.341 -22.524  0.00  0.00    +0.170 C 
ENDBRANCH   1  25
BRANCH   2  31
ATOM     31  N   UNL     1      32.584 -21.346 -19.825  0.00  0.00    +0.382 N 
ATOM     32  H   UNL     1      32.866 -20.842 -20.666  0.00  0.00    -0.089 HD
ATOM     33  H   UNL     1      31.750 -20.911 -19.432  0.00  0.00    -0.089 HD
ATOM     34  H   UNL     1      32.382 -22.317 -20.062  0.00  0.00    -0.089 HD
ENDBRANCH   2  31
TORSDOF 4
ENDMDL
MODEL 6
REMARK VINA RESULT:     -10.4      4.102     10.262
REMARK  Name = 11974440
REMARK  4 active torsions:
REMARK  status: ('A' for Active; 'I' for Inactive)
REMARK    1  A    between atoms: C_1  and  C_25
REMARK    2  A    between atoms: C_2  and  N_31
REMARK    3  A    between atoms: C_5  and  C_12
REMARK    4  A    between atoms: C_17  and  C_21
REMARK                            x       y       z     vdW  Elec       q    Type
REMARK                         _______ _______ _______ _____ _____    ______ ____
ROOT
ATOM      1  C   UNL     1      35.139 -20.784 -19.035  0.00  0.00    +0.009 C 
ATOM      2  C   UNL     1      33.862 -21.169 -19.827  0.00  0.00    -0.057 C 
ATOM      3  C   UNL     1      33.608 -20.161 -20.966  0.00  0.00    +0.009 C 
ATOM      4  C   UNL     1      36.367 -20.740 -19.975  0.00  0.00    +0.028 C 
ATOM      5  C   UNL     1      34.852 -19.823 -21.731  0.00  0.00    +0.025 C 
ATOM      6  C   UNL     1      36.092 -20.089 -21.299  0.00  0.00    -0.026 C 
ENDROOT
BRANCH   5  12
ATOM      7  O   UNL     1      34.357 -19.872 -24.000  0.00  0.00    -0.270 OA
ATOM      8  N   UNL     1      34.980 -17.809 -23.128  0.00  0.00    -0.267 N 
ATOM      9  N   UNL     1      34.091 -15.203 -23.011  0.00  0.00    -0.292 N 
ATOM     10  N   UNL     1      33.736 -14.969 -25.150  0.00  0.00    -0.132 NA
ATOM     11  N   UNL     1      33.288 -13.834 -24.497  0.00  0.00    -0.125 NA
ATOM     12  C   UNL     1      34.712 -19.172 -23.049  0.00  0.00    +0.245 C 
ATOM     13  C   UNL     1      35.479 -16.956 -22.030  0.00  0.00    +0.119 C 
ATOM     14  C   UNL     1      34.837 -17.128 -24.425  0.00  0.00    +0.160 C 
ATOM     15  C   UNL     1      34.491 -15.822 -21.766  0.00  0.00    +0.130 C 
ATOM     16  C   UNL     1      34.217 -15.790 -24.240  0.00  0.00    +0.164 A 
ATOM     17  C   UNL     1      33.510 -13.996 -23.212  0.00  0.00    +0.238 A 
BRANCH  17  21
ATOM     18  F   UNL     1      34.099 -13.036 -21.101  0.00  0.00    -0.163 F 
ATOM     19  F   UNL     1      33.108 -11.739 -22.528  0.00  0.00    -0.163 F 
ATOM     20  F   UNL     1      31.984 -13.306 -21.524  0.00  0.00    -0.163 F 
ATOM     21  C   UNL     1      33.189 -13.050 -22.128  0.00  0.00    +0.452 C 
ENDBRANCH  17  21
ENDBRANCH   5  12
BRANCH   1  25
ATOM     22  F   UNL     1      37.615 -20.796 -17.650  0.00  0.00    -0.204 F 
ATOM     23  F   UNL     1      33.752 -24.225 -15.854  0.00  0.00    -0.202 F 
ATOM     24  F   UNL     1      36.185 -24.130 -14.613  0.00  0.00    -0.202 F 
ATOM     25  C   UNL     1      35.423 -21.684 -17.842  0.00  0.00    +0.006 C 
ATOM     26  C   UNL     1      36.663 -21.632 -17.214  0.00  0.00    +0.138 C 
ATOM     27  C   UNL     1      34.438 -22.556 -17.388  0.00  0.00    +0.030 C 
ATOM     28  C   UNL     1      34.695 -23.383 -16.295  0.00  0.00    +0.167 C 
ATOM     29  C   UNL     1      36.921 -22.459 -16.121  0.00  0.00    +0.061 C 
ATOM     30  C   UNL     1      35.936 -23.334 -15.661  0.00  0.00    +0.170 C 
ENDBRANCH   1  25
BRANCH   2  31
ATOM     31  N   UNL     1      32.685 -21.221 -18.955  0.00  0.00    +0.382 N 
ATOM     32  H   UNL     1      32.408 -22.193 -18.816  0.00  0.00    -0.089 HD
ATOM     33  H   UNL     1      31.918 -20.708 -19.388  0.00  0.00    -0.089 HD
ATOM     34  H   UNL     1      32.911 -20.800 -18.054  0.00  0.00    -0.089 HD
ENDBRANCH   2  31
TORSDOF 4
ENDMDL
MODEL 7
REMARK VINA RESULT:     -10.4      4.396     10.487
REMARK  Name = 11974440
REMARK  4 active torsions:
REMARK  status: ('A' for Active; 'I' for Inactive)
REMARK    1  A    between atoms: C_1  and  C_25
REMARK    2  A    between atoms: C_2  and  N_31
REMARK    3  A    between atoms: C_5  and  C_12
REMARK    4  A    between atoms: C_17  and  C_21
REMARK                            x       y       z     vdW  Elec       q    Type
REMARK                         _______ _______ _______ _____ _____    ______ ____
ROOT
ATOM      1  C   UNL     1      35.337 -20.984 -20.067  0.00  0.00    +0.009 C 
ATOM      2  C   UNL     1      36.188 -19.693 -20.191  0.00  0.00    -0.057 C 
ATOM      3  C   UNL     1      36.168 -19.171 -21.642  0.00  0.00    +0.009 C 
ATOM      4  C   UNL     1      33.878 -20.716 -20.504  0.00  0.00    +0.028 C 
ATOM      5  C   UNL     1      34.797 -19.187 -22.247  0.00  0.00    +0.025 C 
ATOM      6  C   UNL     1      33.762 -19.868 -21.737  0.00  0.00    -0.026 C 
ENDROOT
BRANCH   5  12
ATOM      7  O   UNL     1      34.215 -18.998 -24.488  0.00  0.00    -0.270 OA
ATOM      8  N   UNL     1      34.729 -17.015 -23.389  0.00  0.00    -0.267 N 
ATOM      9  N   UNL     1      33.669 -14.515 -22.923  0.00  0.00    -0.292 N 
ATOM     10  N   UNL     1      33.213 -14.051 -25.006  0.00  0.00    -0.132 NA
ATOM     11  N   UNL     1      32.715 -13.039 -24.204  0.00  0.00    -0.125 NA
ATOM     12  C   UNL     1      34.559 -18.394 -23.470  0.00  0.00    +0.245 C 
ATOM     13  C   UNL     1      35.213 -16.267 -22.211  0.00  0.00    +0.119 C 
ATOM     14  C   UNL     1      34.488 -16.196 -24.587  0.00  0.00    +0.160 C 
ATOM     15  C   UNL     1      34.161 -15.249 -21.778  0.00  0.00    +0.130 C 
ATOM     16  C   UNL     1      33.786 -14.938 -24.219  0.00  0.00    +0.164 A 
ATOM     17  C   UNL     1      32.999 -13.338 -22.956  0.00  0.00    +0.238 A 
BRANCH  17  21
ATOM     18  F   UNL     1      31.458 -12.898 -21.180  0.00  0.00    -0.163 F 
ATOM     19  F   UNL     1      33.567 -12.665 -20.732  0.00  0.00    -0.163 F 
ATOM     20  F   UNL     1      32.559 -11.208 -21.992  0.00  0.00    -0.163 F 
ATOM     21  C   UNL     1      32.657 -12.556 -21.754  0.00  0.00    +0.452 C 
ENDBRANCH  17  21
ENDBRANCH   5  12
BRANCH   1  25
ATOM     22  F   UNL     1      33.116 -22.335 -18.930  0.00  0.00    -0.204 F 
ATOM     23  F   UNL     1      37.656 -22.034 -15.895  0.00  0.00    -0.202 F 
ATOM     24  F   UNL     1      35.440 -23.307 -14.925  0.00  0.00    -0.202 F 
ATOM     25  C   UNL     1      35.363 -21.612 -18.682  0.00  0.00    +0.006 C 
ATOM     26  C   UNL     1      34.232 -22.259 -18.193  0.00  0.00    +0.138 C 
ATOM     27  C   UNL     1      36.519 -21.533 -17.912  0.00  0.00    +0.030 C 
ATOM     28  C   UNL     1      36.546 -22.107 -16.642  0.00  0.00    +0.167 C 
ATOM     29  C   UNL     1      34.259 -22.833 -16.922  0.00  0.00    +0.061 C 
ATOM     30  C   UNL     1      35.416 -22.758 -16.147  0.00  0.00    +0.170 C 
ENDBRANCH   1  25
BRANCH   2  31
ATOM     31  N   UNL     1      37.575 -19.923 -19.778  0.00  0.00    +0.382 N 
ATOM     32  H   UNL     1      37.845 -20.879 -20.012  0.00  0.00    -0.089 HD
ATOM     33  H   UNL     1      37.657 -19.784 -18.772  0.00  0.00    -0.089 HD
ATOM     34  H   UNL     1      38.188 -19.269 -20.265  0.00  0.00    -0.089 HD
ENDBRANCH   2  31
TORSDOF 4
ENDMDL
MODEL 8
REMARK VINA RESULT:     -10.4     11.300     16.926
REMARK  Name = 11974440
REMARK  4 active torsions:
REMARK  status: ('A' for Active; 'I' for Inactive)
REMARK    1  A    between atoms: C_1  and  C_25
REMARK    2  A    between atoms: C_2  and  N_31
REMARK    3  A    between atoms: C_5  and  C_12
REMARK    4  A    between atoms: C_17  and  C_21
REMARK                            x       y       z     vdW  Elec       q    Type
REMARK                         _______ _______ _______ _____ _____    ______ ____
ROOT
ATOM      1  C   UNL     1      33.199 -11.263 -22.272  0.00  0.00    +0.009 C 
ATOM      2  C   UNL     1      31.719 -11.074 -21.848  0.00  0.00    -0.057 C 
ATOM      3  C   UNL     1      31.551  -9.772 -21.040  0.00  0.00    +0.009 C 
ATOM      4  C   UNL     1      33.678 -10.060 -23.118  0.00  0.00    +0.028 C 
ATOM      5  C   UNL     1      32.276  -8.611 -21.651  0.00  0.00    +0.025 C 
ATOM      6  C   UNL     1      33.222  -8.731 -22.591  0.00  0.00    -0.026 C 
ENDROOT
BRANCH   5  12
ATOM      7  O   UNL     1      32.035  -6.985 -20.010  0.00  0.00    -0.270 OA
ATOM      8  N   UNL     1      31.485  -6.347 -22.177  0.00  0.00    -0.267 N 
ATOM      9  N   UNL     1      32.060  -4.377 -24.015  0.00  0.00    -0.292 N 
ATOM     10  N   UNL     1      31.695  -2.687 -22.686  0.00  0.00    -0.132 NA
ATOM     11  N   UNL     1      32.192  -2.210 -23.886  0.00  0.00    -0.125 NA
ATOM     12  C   UNL     1      31.919  -7.248 -21.208  0.00  0.00    +0.245 C 
ATOM     13  C   UNL     1      31.262  -6.648 -23.605  0.00  0.00    +0.119 C 
ATOM     14  C   UNL     1      31.133  -4.978 -21.770  0.00  0.00    +0.160 C 
ATOM     15  C   UNL     1      32.145  -5.749 -24.467  0.00  0.00    +0.130 C 
ATOM     16  C   UNL     1      31.622  -3.998 -22.776  0.00  0.00    +0.164 A 
ATOM     17  C   UNL     1      32.405  -3.243 -24.671  0.00  0.00    +0.238 A 
BRANCH  17  21
ATOM     18  F   UNL     1      34.126  -3.896 -26.200  0.00  0.00    -0.163 F 
ATOM     19  F   UNL     1      32.108  -3.775 -26.984  0.00  0.00    -0.163 F 
ATOM     20  F   UNL     1      33.197  -1.954 -26.507  0.00  0.00    -0.163 F 
ATOM     21  C   UNL     1      32.941  -3.220 -26.043  0.00  0.00    +0.452 C 
ENDBRANCH  17  21
ENDBRANCH   5  12
BRANCH   1  25
ATOM     22  F   UNL     1      34.030 -13.645 -20.973  0.00  0.00    -0.204 F 
ATOM     23  F   UNL     1      33.415 -13.865 -26.403  0.00  0.00    -0.202 F 
ATOM     24  F   UNL     1      34.210 -16.086 -25.022  0.00  0.00    -0.202 F 
ATOM     25  C   UNL     1      33.471 -12.565 -23.011  0.00  0.00    +0.006 C 
ATOM     26  C   UNL     1      33.875 -13.692 -22.303  0.00  0.00    +0.138 C 
ATOM     27  C   UNL     1      33.314 -12.617 -24.392  0.00  0.00    +0.030 C 
ATOM     28  C   UNL     1      33.563 -13.809 -25.072  0.00  0.00    +0.167 C 
ATOM     29  C   UNL     1      34.124 -14.884 -22.983  0.00  0.00    +0.061 C 
ATOM     30  C   UNL     1      33.968 -14.942 -24.368  0.00  0.00    +0.170 C 
ENDBRANCH   1  25
BRANCH   2  31
ATOM     31  N   UNL     1      31.242 -12.206 -21.048  0.00  0.00    +0.382 N 
ATOM     32  H   UNL     1      31.848 -12.327 -20.236  0.00  0.00    -0.089 HD
ATOM     33  H   UNL     1      31.259 -13.053 -21.614  0.00  0.00    -0.089 HD
ATOM     34  H   UNL     1      30.288 -12.023 -20.736  0.00  0.00    -0.089 HD
ENDBRANCH   2  31
TORSDOF 4
ENDMDL
MODEL 9
REMARK VINA RESULT:     -10.2     10.730     16.321
REMARK  Name = 11974440
REMARK  4 active torsions:
REMARK  status: ('A' for Active; 'I' for Inactive)
REMARK    1  A    between atoms: C_1  and  C_25
REMARK    2  A    between atoms: C_2  and  N_31
REMARK    3  A    between atoms: C_5  and  C_12
REMARK    4  A    between atoms: C_17  and  C_21
REMARK                            x       y       z     vdW  Elec       q    Type
REMARK                         _______ _______ _______ _____ _____    ______ ____
ROOT
ATOM      1  C   UNL     1      32.860 -11.962 -22.769  0.00  0.00    +0.009 C 
ATOM      2  C   UNL     1      33.899 -10.818 -22.900  0.00  0.00    -0.057 C 
ATOM      3  C   UNL     1      33.207  -9.444 -22.787  0.00  0.00    +0.009 C 
ATOM      4  C   UNL     1      32.114 -11.864 -21.417  0.00  0.00    +0.028 C 
ATOM      5  C   UNL     1      32.213  -9.385 -21.666  0.00  0.00    +0.025 C 
ATOM      6  C   UNL     1      31.727 -10.465 -21.040  0.00  0.00    -0.026 C 
ENDROOT
BRANCH   5  12
ATOM      7  O   UNL     1      31.731  -7.846 -19.995  0.00  0.00    -0.270 OA
ATOM      8  N   UNL     1      31.371  -7.137 -22.179  0.00  0.00    -0.267 N 
ATOM      9  N   UNL     1      32.033  -5.063 -23.869  0.00  0.00    -0.292 N 
ATOM     10  N   UNL     1      31.455  -3.452 -22.517  0.00  0.00    -0.132 NA
ATOM     11  N   UNL     1      32.047  -2.901 -23.640  0.00  0.00    -0.125 NA
ATOM     12  C   UNL     1      31.748  -8.060 -21.208  0.00  0.00    +0.245 C 
ATOM     13  C   UNL     1      31.307  -7.383 -23.634  0.00  0.00    +0.119 C 
ATOM     14  C   UNL     1      30.916  -5.803 -21.756  0.00  0.00    +0.160 C 
ATOM     15  C   UNL     1      32.228  -6.408 -24.364  0.00  0.00    +0.130 C 
ATOM     16  C   UNL     1      31.455  -4.760 -22.666  0.00  0.00    +0.164 A 
ATOM     17  C   UNL     1      32.387  -3.887 -24.440  0.00  0.00    +0.238 A 
BRANCH  17  21
ATOM     18  F   UNL     1      34.322  -4.310 -25.783  0.00  0.00    -0.163 F 
ATOM     19  F   UNL     1      32.396  -4.411 -26.774  0.00  0.00    -0.163 F 
ATOM     20  F   UNL     1      33.209  -2.485 -26.177  0.00  0.00    -0.163 F 
ATOM     21  C   UNL     1      33.056  -3.780 -25.748  0.00  0.00    +0.452 C 
ENDBRANCH  17  21
ENDBRANCH   5  12
BRANCH   1  25
ATOM     22  F   UNL     1      34.248 -13.339 -20.712  0.00  0.00    -0.204 F 
ATOM     23  F   UNL     1      33.721 -15.917 -25.507  0.00  0.00    -0.202 F 
ATOM     24  F   UNL     1      35.034 -17.126 -23.437  0.00  0.00    -0.202 F 
ATOM     25  C   UNL     1      33.446 -13.354 -22.946  0.00  0.00    +0.006 C 
ATOM     26  C   UNL     1      34.113 -13.965 -21.889  0.00  0.00    +0.138 C 
ATOM     27  C   UNL     1      33.311 -14.007 -24.168  0.00  0.00    +0.030 C 
ATOM     28  C   UNL     1      33.847 -15.283 -24.333  0.00  0.00    +0.167 C 
ATOM     29  C   UNL     1      34.650 -15.242 -22.055  0.00  0.00    +0.061 C 
ATOM     30  C   UNL     1      34.517 -15.901 -23.277  0.00  0.00    +0.170 C 
ENDBRANCH   1  25
BRANCH   2  31
ATOM     31  N   UNL     1      34.621 -10.892 -24.173  0.00  0.00    +0.382 N 
ATOM     32  H   UNL     1      35.483 -10.350 -24.107  0.00  0.00    -0.089 HD
ATOM     33  H   UNL     1      34.037 -10.513 -24.918  0.00  0.00    -0.089 HD
ATOM     34  H   UNL     1      34.848 -11.865 -24.379  0.00  0.00    -0.089 HD
ENDBRANCH   2  31
TORSDOF 4
ENDMDL
