MODEL 1
REMARK VINA RESULT:     -12.0      0.000      0.000
REMARK  Name = 24996872
REMARK  6 active torsions:
REMARK  status: ('A' for Active; 'I' for Inactive)
REMARK    1  A    between atoms: O_1  and  C_3
REMARK    2  A    between atoms: O_1  and  C_18
REMARK    3  A    between atoms: C_7  and  C_8
REMARK    4  A    between atoms: C_11  and  S_14
REMARK    5  A    between atoms: C_18  and  C_23
REMARK    6  A    between atoms: C_29  and  C_30
REMARK                            x       y       z     vdW  Elec       q    Type
REMARK                         _______ _______ _______ _____ _____    ______ ____
ROOT
ATOM      1  O   UNL     1      35.288 -18.316 -22.993  0.00  0.00    -0.474 OA
ENDROOT
BRANCH   1   3
ATOM      2  N   UNL     1      34.532 -14.898 -21.922  0.00  0.00    -0.241 NA
ATOM      3  C   UNL     1      34.839 -17.019 -23.041  0.00  0.00    +0.158 C 
ATOM      4  C   UNL     1      34.254 -16.505 -24.192  0.00  0.00    +0.040 C 
ATOM      5  C   UNL     1      34.953 -16.182 -21.942  0.00  0.00    +0.136 C 
ATOM      6  C   UNL     1      33.807 -15.188 -24.210  0.00  0.00    +0.022 C 
ATOM      7  C   UNL     1      33.969 -14.433 -23.060  0.00  0.00    +0.082 C 
BRANCH   7   8
ATOM      8  C   UNL     1      33.529 -13.059 -23.005  0.00  0.00    +0.018 C 
ATOM      9  C   UNL     1      33.981 -12.144 -23.957  0.00  0.00    +0.003 C 
ATOM     10  C   UNL     1      32.653 -12.646 -22.003  0.00  0.00    +0.003 C 
ATOM     11  C   UNL     1      32.679 -10.404 -22.901  0.00  0.00    +0.106 C 
ATOM     12  C   UNL     1      33.556 -10.817 -23.904  0.00  0.00    +0.018 C 
ATOM     13  C   UNL     1      32.227 -11.319 -21.949  0.00  0.00    +0.018 C 
BRANCH  11  14
ATOM     14  S   UNL     1      32.147  -8.743 -22.835  0.00  0.00    +0.010 S 
ATOM     15  O   UNL     1      33.092  -7.938 -23.597  0.00  0.00    -0.169 OA
ATOM     16  O   UNL     1      30.727  -8.688 -23.157  0.00  0.00    -0.169 OA
ATOM     17  C   UNL     1      32.306  -8.295 -21.121  0.00  0.00    +0.182 C 
ENDBRANCH  11  14
ENDBRANCH   7   8
ENDBRANCH   1   3
BRANCH   1  18
ATOM     18  C   UNL     1      36.017 -18.703 -21.842  0.00  0.00    +0.205 C 
BRANCH  18  23
ATOM     19  O   UNL     1      34.547 -22.779 -17.126  0.00  0.00    -0.296 OA
ATOM     20  N   UNL     1      34.249 -21.438 -19.022  0.00  0.00    -0.251 N 
ATOM     21  N   UNL     1      32.419 -22.449 -17.741  0.00  0.00    -0.300 NA
ATOM     22  N   UNL     1      33.760 -23.479 -16.201  0.00  0.00    -0.010 NA
ATOM     23  C   UNL     1      35.350 -19.938 -21.240  0.00  0.00    +0.047 C 
ATOM     24  C   UNL     1      33.997 -19.578 -20.618  0.00  0.00    +0.025 C 
ATOM     25  C   UNL     1      36.248 -20.578 -20.176  0.00  0.00    +0.025 C 
ATOM     26  C   UNL     1      33.335 -20.797 -19.977  0.00  0.00    +0.096 C 
ATOM     27  C   UNL     1      35.579 -21.792 -19.531  0.00  0.00    +0.096 C 
ATOM     28  C   UNL     1      33.679 -22.201 -17.996  0.00  0.00    +0.379 C 
ATOM     29  C   UNL     1      32.519 -23.236 -16.631  0.00  0.00    +0.104 C 
BRANCH  29  30
ATOM     30  C   UNL     1      31.340 -23.781 -15.950  0.00  0.00    +0.101 C 
ATOM     31  C   UNL     1      31.580 -24.071 -14.446  0.00  0.00    +0.017 C 
ATOM     32  C   UNL     1      30.081 -22.889 -16.093  0.00  0.00    +0.017 C 
ENDBRANCH  29  30
ENDBRANCH  18  23
ENDBRANCH   1  18
TORSDOF 6
ENDMDL
MODEL 2
REMARK VINA RESULT:     -12.0      3.630     11.626
REMARK  Name = 24996872
REMARK  6 active torsions:
REMARK  status: ('A' for Active; 'I' for Inactive)
REMARK    1  A    between atoms: O_1  and  C_3
REMARK    2  A    between atoms: O_1  and  C_18
REMARK    3  A    between atoms: C_7  and  C_8
REMARK    4  A    between atoms: C_11  and  S_14
REMARK    5  A    between atoms: C_18  and  C_23
REMARK    6  A    between atoms: C_29  and  C_30
REMARK                            x       y       z     vdW  Elec       q    Type
REMARK                         _______ _______ _______ _____ _____    ______ ____
ROOT
ATOM      1  O   UNL     1      35.005 -16.298 -24.522  0.00  0.00    -0.474 OA
ENDROOT
BRANCH   1   3
ATOM      2  N   UNL     1      34.087 -19.372 -22.757  0.00  0.00    -0.241 NA
ATOM      3  C   UNL     1      34.878 -17.213 -23.506  0.00  0.00    +0.158 C 
ATOM      4  C   UNL     1      35.380 -16.949 -22.237  0.00  0.00    +0.040 C 
ATOM      5  C   UNL     1      34.245 -18.429 -23.713  0.00  0.00    +0.136 C 
ATOM      6  C   UNL     1      35.236 -17.894 -21.227  0.00  0.00    +0.022 C 
ATOM      7  C   UNL     1      34.588 -19.080 -21.536  0.00  0.00    +0.082 C 
BRANCH   7   8
ATOM      8  C   UNL     1      34.403 -20.107 -20.539  0.00  0.00    +0.018 C 
ATOM      9  C   UNL     1      35.511 -20.700 -19.934  0.00  0.00    +0.003 C 
ATOM     10  C   UNL     1      33.116 -20.505 -20.179  0.00  0.00    +0.003 C 
ATOM     11  C   UNL     1      34.044 -22.091 -18.611  0.00  0.00    +0.106 C 
ATOM     12  C   UNL     1      35.331 -21.692 -18.971  0.00  0.00    +0.018 C 
ATOM     13  C   UNL     1      32.936 -21.497 -19.216  0.00  0.00    +0.018 C 
BRANCH  11  14
ATOM     14  S   UNL     1      33.819 -23.332 -17.405  0.00  0.00    +0.010 S 
ATOM     15  O   UNL     1      33.565 -24.589 -18.097  0.00  0.00    -0.169 OA
ATOM     16  O   UNL     1      34.901 -23.249 -16.433  0.00  0.00    -0.169 OA
ATOM     17  C   UNL     1      32.326 -22.863 -16.560  0.00  0.00    +0.182 C 
ENDBRANCH  11  14
ENDBRANCH   7   8
ENDBRANCH   1   3
BRANCH   1  18
ATOM     18  C   UNL     1      33.863 -15.522 -24.835  0.00  0.00    +0.205 C 
BRANCH  18  23
ATOM     19  O   UNL     1      32.416  -9.329 -24.081  0.00  0.00    -0.296 OA
ATOM     20  N   UNL     1      33.130 -11.487 -23.518  0.00  0.00    -0.251 N 
ATOM     21  N   UNL     1      32.608  -9.732 -21.886  0.00  0.00    -0.300 NA
ATOM     22  N   UNL     1      32.048  -8.142 -23.432  0.00  0.00    -0.010 NA
ATOM     23  C   UNL     1      34.077 -14.108 -24.303  0.00  0.00    +0.047 C 
ATOM     24  C   UNL     1      33.296 -13.891 -23.002  0.00  0.00    +0.025 C 
ATOM     25  C   UNL     1      33.647 -13.063 -25.338  0.00  0.00    +0.025 C 
ATOM     26  C   UNL     1      33.471 -12.466 -22.477  0.00  0.00    +0.096 C 
ATOM     27  C   UNL     1      33.815 -11.640 -24.805  0.00  0.00    +0.096 C 
ATOM     28  C   UNL     1      32.729 -10.213 -23.098  0.00  0.00    +0.379 C 
ATOM     29  C   UNL     1      32.187  -8.460 -22.142  0.00  0.00    +0.104 C 
BRANCH  29  30
ATOM     30  C   UNL     1      31.904  -7.500 -21.071  0.00  0.00    +0.101 C 
ATOM     31  C   UNL     1      32.665  -7.806 -19.755  0.00  0.00    +0.017 C 
ATOM     32  C   UNL     1      32.179  -6.029 -21.476  0.00  0.00    +0.017 C 
ENDBRANCH  29  30
ENDBRANCH  18  23
ENDBRANCH   1  18
TORSDOF 6
ENDMDL
MODEL 3
REMARK VINA RESULT:     -11.8      3.963     11.901
REMARK  Name = 24996872
REMARK  6 active torsions:
REMARK  status: ('A' for Active; 'I' for Inactive)
REMARK    1  A    between atoms: O_1  and  C_3
REMARK    2  A    between atoms: O_1  and  C_18
REMARK    3  A    between atoms: C_7  and  C_8
REMARK    4  A    between atoms: C_11  and  S_14
REMARK    5  A    between atoms: C_18  and  C_23
REMARK    6  A    between atoms: C_29  and  C_30
REMARK                            x       y       z     vdW  Elec       q    Type
REMARK                         _______ _______ _______ _____ _____    ______ ____
ROOT
ATOM      1  O   UNL     1      35.580 -20.025 -21.383  0.00  0.00    -0.474 OA
ENDROOT
BRANCH   1   3
ATOM      2  N   UNL     1      35.062 -21.992 -18.339  0.00  0.00    -0.241 NA
ATOM      3  C   UNL     1      34.933 -20.640 -20.339  0.00  0.00    +0.158 C 
ATOM      4  C   UNL     1      33.553 -20.555 -20.202  0.00  0.00    +0.040 C 
ATOM      5  C   UNL     1      35.636 -21.364 -19.390  0.00  0.00    +0.136 C 
ATOM      6  C   UNL     1      32.925 -21.188 -19.135  0.00  0.00    +0.022 C 
ATOM      7  C   UNL     1      33.718 -21.887 -18.239  0.00  0.00    +0.082 C 
BRANCH   7   8
ATOM      8  C   UNL     1      33.136 -22.568 -17.107  0.00  0.00    +0.018 C 
ATOM      9  C   UNL     1      31.749 -22.644 -16.976  0.00  0.00    +0.003 C 
ATOM     10  C   UNL     1      33.960 -23.153 -16.146  0.00  0.00    +0.003 C 
ATOM     11  C   UNL     1      32.011 -23.887 -14.920  0.00  0.00    +0.106 C 
ATOM     12  C   UNL     1      31.187 -23.302 -15.882  0.00  0.00    +0.018 C 
ATOM     13  C   UNL     1      33.398 -23.812 -15.052  0.00  0.00    +0.018 C 
BRANCH  11  14
ATOM     14  S   UNL     1      31.308 -24.711 -13.552  0.00  0.00    +0.010 S 
ATOM     15  O   UNL     1      32.227 -25.765 -13.143  0.00  0.00    -0.169 OA
ATOM     16  O   UNL     1      30.866 -23.721 -12.579  0.00  0.00    -0.169 OA
ATOM     17  C   UNL     1      29.846 -25.485 -14.205  0.00  0.00    +0.182 C 
ENDBRANCH  11  14
ENDBRANCH   7   8
ENDBRANCH   1   3
BRANCH   1  18
ATOM     18  C   UNL     1      34.826 -19.788 -22.558  0.00  0.00    +0.205 C 
BRANCH  18  23
ATOM     19  O   UNL     1      33.247 -14.019 -24.848  0.00  0.00    -0.296 OA
ATOM     20  N   UNL     1      34.334 -15.620 -23.530  0.00  0.00    -0.251 N 
ATOM     21  N   UNL     1      34.384 -13.207 -23.098  0.00  0.00    -0.300 NA
ATOM     22  N   UNL     1      33.075 -12.629 -24.883  0.00  0.00    -0.010 NA
ATOM     23  C   UNL     1      35.108 -18.365 -23.036  0.00  0.00    +0.047 C 
ATOM     24  C   UNL     1      34.931 -17.361 -21.892  0.00  0.00    +0.025 C 
ATOM     25  C   UNL     1      34.184 -17.986 -24.197  0.00  0.00    +0.025 C 
ATOM     26  C   UNL     1      35.174 -15.928 -22.365  0.00  0.00    +0.096 C 
ATOM     27  C   UNL     1      34.424 -16.549 -24.661  0.00  0.00    +0.096 C 
ATOM     28  C   UNL     1      34.028 -14.274 -23.767  0.00  0.00    +0.379 C 
ATOM     29  C   UNL     1      33.775 -12.222 -23.819  0.00  0.00    +0.104 C 
BRANCH  29  30
ATOM     30  C   UNL     1      33.879 -10.806 -23.454  0.00  0.00    +0.101 C 
ATOM     31  C   UNL     1      34.668  -9.962 -24.488  0.00  0.00    +0.017 C 
ATOM     32  C   UNL     1      32.506 -10.133 -23.202  0.00  0.00    +0.017 C 
ENDBRANCH  29  30
ENDBRANCH  18  23
ENDBRANCH   1  18
TORSDOF 6
ENDMDL
MODEL 4
REMARK VINA RESULT:     -11.7      4.469     12.089
REMARK  Name = 24996872
REMARK  6 active torsions:
REMARK  status: ('A' for Active; 'I' for Inactive)
REMARK    1  A    between atoms: O_1  and  C_3
REMARK    2  A    between atoms: O_1  and  C_18
REMARK    3  A    between atoms: C_7  and  C_8
REMARK    4  A    between atoms: C_11  and  S_14
REMARK    5  A    between atoms: C_18  and  C_23
REMARK    6  A    between atoms: C_29  and  C_30
REMARK                            x       y       z     vdW  Elec       q    Type
REMARK                         _______ _______ _______ _____ _____    ______ ____
ROOT
ATOM      1  O   UNL     1      34.165 -19.907 -21.427  0.00  0.00    -0.474 OA
ENDROOT
BRANCH   1   3
ATOM      2  N   UNL     1      36.322 -21.108 -18.723  0.00  0.00    -0.241 NA
ATOM      3  C   UNL     1      34.556 -20.547 -20.277  0.00  0.00    +0.158 C 
ATOM      4  C   UNL     1      33.644 -21.264 -19.511  0.00  0.00    +0.040 C 
ATOM      5  C   UNL     1      35.872 -20.500 -19.844  0.00  0.00    +0.136 C 
ATOM      6  C   UNL     1      34.069 -21.904 -18.351  0.00  0.00    +0.022 C 
ATOM      7  C   UNL     1      35.406 -21.795 -18.004  0.00  0.00    +0.082 C 
BRANCH   7   8
ATOM      8  C   UNL     1      35.919 -22.432 -16.814  0.00  0.00    +0.018 C 
ATOM      9  C   UNL     1      35.057 -23.137 -15.974  0.00  0.00    +0.003 C 
ATOM     10  C   UNL     1      37.276 -22.343 -16.505  0.00  0.00    +0.003 C 
ATOM     11  C   UNL     1      36.910 -23.663 -14.515  0.00  0.00    +0.106 C 
ATOM     12  C   UNL     1      35.553 -23.752 -14.824  0.00  0.00    +0.018 C 
ATOM     13  C   UNL     1      37.772 -22.958 -15.356  0.00  0.00    +0.018 C 
BRANCH  11  14
ATOM     14  S   UNL     1      37.531 -24.433 -13.077  0.00  0.00    +0.010 S 
ATOM     15  O   UNL     1      36.657 -25.554 -12.756  0.00  0.00    -0.169 OA
ATOM     16  O   UNL     1      38.961 -24.656 -13.240  0.00  0.00    -0.169 OA
ATOM     17  C   UNL     1      37.339 -23.208 -11.802  0.00  0.00    +0.182 C 
ENDBRANCH  11  14
ENDBRANCH   7   8
ENDBRANCH   1   3
BRANCH   1  18
ATOM     18  C   UNL     1      35.068 -19.932 -22.517  0.00  0.00    +0.205 C 
BRANCH  18  23
ATOM     19  O   UNL     1      33.257 -14.215 -24.763  0.00  0.00    -0.296 OA
ATOM     20  N   UNL     1      34.417 -15.781 -23.465  0.00  0.00    -0.251 N 
ATOM     21  N   UNL     1      34.386 -13.369 -23.024  0.00  0.00    -0.300 NA
ATOM     22  N   UNL     1      33.036 -12.831 -24.790  0.00  0.00    -0.010 NA
ATOM     23  C   UNL     1      35.294 -18.499 -22.992  0.00  0.00    +0.047 C 
ATOM     24  C   UNL     1      35.096 -17.506 -21.842  0.00  0.00    +0.025 C 
ATOM     25  C   UNL     1      34.343 -18.148 -24.140  0.00  0.00    +0.025 C 
ATOM     26  C   UNL     1      35.282 -16.063 -22.312  0.00  0.00    +0.096 C 
ATOM     27  C   UNL     1      34.525 -16.702 -24.602  0.00  0.00    +0.096 C 
ATOM     28  C   UNL     1      34.061 -14.446 -23.693  0.00  0.00    +0.379 C 
ATOM     29  C   UNL     1      33.734 -12.404 -23.734  0.00  0.00    +0.104 C 
BRANCH  29  30
ATOM     30  C   UNL     1      33.793 -10.987 -23.364  0.00  0.00    +0.101 C 
ATOM     31  C   UNL     1      34.422 -10.091 -24.462  0.00  0.00    +0.017 C 
ATOM     32  C   UNL     1      32.415 -10.397 -22.968  0.00  0.00    +0.017 C 
ENDBRANCH  29  30
ENDBRANCH  18  23
ENDBRANCH   1  18
TORSDOF 6
ENDMDL
MODEL 5
REMARK VINA RESULT:     -11.6      2.453      3.414
REMARK  Name = 24996872
REMARK  6 active torsions:
REMARK  status: ('A' for Active; 'I' for Inactive)
REMARK    1  A    between atoms: O_1  and  C_3
REMARK    2  A    between atoms: O_1  and  C_18
REMARK    3  A    between atoms: C_7  and  C_8
REMARK    4  A    between atoms: C_11  and  S_14
REMARK    5  A    between atoms: C_18  and  C_23
REMARK    6  A    between atoms: C_29  and  C_30
REMARK                            x       y       z     vdW  Elec       q    Type
REMARK                         _______ _______ _______ _____ _____    ______ ____
ROOT
ATOM      1  O   UNL     1      33.852 -16.762 -24.658  0.00  0.00    -0.474 OA
ENDROOT
BRANCH   1   3
ATOM      2  N   UNL     1      33.327 -13.160 -25.052  0.00  0.00    -0.241 NA
ATOM      3  C   UNL     1      33.807 -15.424 -24.351  0.00  0.00    +0.158 C 
ATOM      4  C   UNL     1      34.174 -14.965 -23.092  0.00  0.00    +0.040 C 
ATOM      5  C   UNL     1      33.395 -14.490 -25.288  0.00  0.00    +0.136 C 
ATOM      6  C   UNL     1      34.119 -13.604 -22.810  0.00  0.00    +0.022 C 
ATOM      7  C   UNL     1      33.692 -12.751 -23.816  0.00  0.00    +0.082 C 
BRANCH   7   8
ATOM      8  C   UNL     1      33.609 -11.327 -23.596  0.00  0.00    +0.018 C 
ATOM      9  C   UNL     1      34.481 -10.466 -24.262  0.00  0.00    +0.003 C 
ATOM     10  C   UNL     1      32.656 -10.811 -22.718  0.00  0.00    +0.003 C 
ATOM     11  C   UNL     1      33.447  -8.574 -23.171  0.00  0.00    +0.106 C 
ATOM     12  C   UNL     1      34.400  -9.090 -24.049  0.00  0.00    +0.018 C 
ATOM     13  C   UNL     1      32.575  -9.435 -22.504  0.00  0.00    +0.018 C 
BRANCH  11  14
ATOM     14  S   UNL     1      33.346  -6.852 -22.904  0.00  0.00    +0.010 S 
ATOM     15  O   UNL     1      32.733  -6.635 -21.600  0.00  0.00    -0.169 OA
ATOM     16  O   UNL     1      34.638  -6.251 -23.204  0.00  0.00    -0.169 OA
ATOM     17  C   UNL     1      32.207  -6.279 -24.144  0.00  0.00    +0.182 C 
ENDBRANCH  11  14
ENDBRANCH   7   8
ENDBRANCH   1   3
BRANCH   1  18
ATOM     18  C   UNL     1      35.040 -17.459 -24.327  0.00  0.00    +0.205 C 
BRANCH  18  23
ATOM     19  O   UNL     1      34.815 -21.869 -19.688  0.00  0.00    -0.296 OA
ATOM     20  N   UNL     1      35.388 -19.878 -20.780  0.00  0.00    -0.251 N 
ATOM     21  N   UNL     1      36.458 -20.689 -18.727  0.00  0.00    -0.300 NA
ATOM     22  N   UNL     1      35.205 -22.595 -18.554  0.00  0.00    -0.010 NA
ATOM     23  C   UNL     1      34.931 -17.941 -22.882  0.00  0.00    +0.047 C 
ATOM     24  C   UNL     1      36.321 -18.155 -22.273  0.00  0.00    +0.025 C 
ATOM     25  C   UNL     1      34.132 -19.245 -22.801  0.00  0.00    +0.025 C 
ATOM     26  C   UNL     1      36.228 -18.674 -20.839  0.00  0.00    +0.096 C 
ATOM     27  C   UNL     1      34.049 -19.767 -21.366  0.00  0.00    +0.096 C 
ATOM     28  C   UNL     1      35.603 -20.763 -19.716  0.00  0.00    +0.379 C 
ATOM     29  C   UNL     1      36.177 -21.834 -18.042  0.00  0.00    +0.104 C 
BRANCH  29  30
ATOM     30  C   UNL     1      36.895 -22.210 -16.820  0.00  0.00    +0.101 C 
ATOM     31  C   UNL     1      37.741 -21.055 -16.225  0.00  0.00    +0.017 C 
ATOM     32  C   UNL     1      35.969 -22.774 -15.712  0.00  0.00    +0.017 C 
ENDBRANCH  29  30
ENDBRANCH  18  23
ENDBRANCH   1  18
TORSDOF 6
ENDMDL
MODEL 6
REMARK VINA RESULT:     -11.1      1.162      1.886
REMARK  Name = 24996872
REMARK  6 active torsions:
REMARK  status: ('A' for Active; 'I' for Inactive)
REMARK    1  A    between atoms: O_1  and  C_3
REMARK    2  A    between atoms: O_1  and  C_18
REMARK    3  A    between atoms: C_7  and  C_8
REMARK    4  A    between atoms: C_11  and  S_14
REMARK    5  A    between atoms: C_18  and  C_23
REMARK    6  A    between atoms: C_29  and  C_30
REMARK                            x       y       z     vdW  Elec       q    Type
REMARK                         _______ _______ _______ _____ _____    ______ ____
ROOT
ATOM      1  O   UNL     1      35.223 -18.280 -23.393  0.00  0.00    -0.474 OA
ENDROOT
BRANCH   1   3
ATOM      2  N   UNL     1      34.542 -14.905 -22.148  0.00  0.00    -0.241 NA
ATOM      3  C   UNL     1      34.780 -16.980 -23.365  0.00  0.00    +0.158 C 
ATOM      4  C   UNL     1      34.144 -16.417 -24.465  0.00  0.00    +0.040 C 
ATOM      5  C   UNL     1      34.954 -16.190 -22.240  0.00  0.00    +0.136 C 
ATOM      6  C   UNL     1      33.705 -15.098 -24.408  0.00  0.00    +0.022 C 
ATOM      7  C   UNL     1      33.927 -14.392 -23.237  0.00  0.00    +0.082 C 
BRANCH   7   8
ATOM      8  C   UNL     1      33.500 -13.019 -23.105  0.00  0.00    +0.018 C 
ATOM      9  C   UNL     1      32.660 -12.647 -22.055  0.00  0.00    +0.003 C 
ATOM     10  C   UNL     1      33.928 -12.064 -24.027  0.00  0.00    +0.003 C 
ATOM     11  C   UNL     1      32.676 -10.366 -22.851  0.00  0.00    +0.106 C 
ATOM     12  C   UNL     1      32.248 -11.321 -21.929  0.00  0.00    +0.018 C 
ATOM     13  C   UNL     1      33.516 -10.738 -23.901  0.00  0.00    +0.018 C 
BRANCH  11  14
ATOM     14  S   UNL     1      32.160  -8.706 -22.693  0.00  0.00    +0.010 S 
ATOM     15  O   UNL     1      33.167  -7.861 -23.322  0.00  0.00    -0.169 OA
ATOM     16  O   UNL     1      30.768  -8.601 -23.109  0.00  0.00    -0.169 OA
ATOM     17  C   UNL     1      32.202  -8.394 -20.942  0.00  0.00    +0.182 C 
ENDBRANCH  11  14
ENDBRANCH   7   8
ENDBRANCH   1   3
BRANCH   1  18
ATOM     18  C   UNL     1      36.300 -18.611 -22.535  0.00  0.00    +0.205 C 
BRANCH  18  23
ATOM     19  O   UNL     1      33.316 -22.724 -18.636  0.00  0.00    -0.296 OA
ATOM     20  N   UNL     1      34.895 -21.148 -19.350  0.00  0.00    -0.251 N 
ATOM     21  N   UNL     1      35.104 -22.489 -17.307  0.00  0.00    -0.300 NA
ATOM     22  N   UNL     1      33.134 -23.620 -17.574  0.00  0.00    -0.010 NA
ATOM     23  C   UNL     1      35.728 -19.084 -21.200  0.00  0.00    +0.047 C 
ATOM     24  C   UNL     1      36.745 -19.947 -20.447  0.00  0.00    +0.025 C 
ATOM     25  C   UNL     1      34.437 -19.881 -21.411  0.00  0.00    +0.025 C 
ATOM     26  C   UNL     1      36.173 -20.459 -19.125  0.00  0.00    +0.096 C 
ATOM     27  C   UNL     1      33.872 -20.400 -20.088  0.00  0.00    +0.096 C 
ATOM     28  C   UNL     1      34.500 -22.100 -18.401  0.00  0.00    +0.379 C 
ATOM     29  C   UNL     1      34.229 -23.422 -16.834  0.00  0.00    +0.104 C 
BRANCH  29  30
ATOM     30  C   UNL     1      34.471 -24.163 -15.592  0.00  0.00    +0.101 C 
ATOM     31  C   UNL     1      35.867 -23.888 -14.976  0.00  0.00    +0.017 C 
ATOM     32  C   UNL     1      33.390 -23.917 -14.509  0.00  0.00    +0.017 C 
ENDBRANCH  29  30
ENDBRANCH  18  23
ENDBRANCH   1  18
TORSDOF 6
ENDMDL
MODEL 7
REMARK VINA RESULT:     -10.8      4.813     12.488
REMARK  Name = 24996872
REMARK  6 active torsions:
REMARK  status: ('A' for Active; 'I' for Inactive)
REMARK    1  A    between atoms: O_1  and  C_3
REMARK    2  A    between atoms: O_1  and  C_18
REMARK    3  A    between atoms: C_7  and  C_8
REMARK    4  A    between atoms: C_11  and  S_14
REMARK    5  A    between atoms: C_18  and  C_23
REMARK    6  A    between atoms: C_29  and  C_30
REMARK                            x       y       z     vdW  Elec       q    Type
REMARK                         _______ _______ _______ _____ _____    ______ ____
ROOT
ATOM      1  O   UNL     1      35.382 -20.829 -20.675  0.00  0.00    -0.474 OA
ENDROOT
BRANCH   1   3
ATOM      2  N   UNL     1      34.748 -22.614 -17.542  0.00  0.00    -0.241 NA
ATOM      3  C   UNL     1      35.582 -21.325 -19.410  0.00  0.00    +0.158 C 
ATOM      4  C   UNL     1      36.759 -21.069 -18.718  0.00  0.00    +0.040 C 
ATOM      5  C   UNL     1      34.615 -22.096 -18.784  0.00  0.00    +0.136 C 
ATOM      6  C   UNL     1      36.933 -21.584 -17.437  0.00  0.00    +0.022 C 
ATOM      7  C   UNL     1      35.906 -22.344 -16.900  0.00  0.00    +0.082 C 
BRANCH   7   8
ATOM      8  C   UNL     1      36.016 -22.911 -15.577  0.00  0.00    +0.018 C 
ATOM      9  C   UNL     1      37.228 -22.843 -14.887  0.00  0.00    +0.003 C 
ATOM     10  C   UNL     1      34.912 -23.525 -14.987  0.00  0.00    +0.003 C 
ATOM     11  C   UNL     1      36.228 -24.005 -13.019  0.00  0.00    +0.106 C 
ATOM     12  C   UNL     1      37.333 -23.391 -13.609  0.00  0.00    +0.018 C 
ATOM     13  C   UNL     1      35.017 -24.073 -13.709  0.00  0.00    +0.018 C 
BRANCH  11  14
ATOM     14  S   UNL     1      36.361 -24.691 -11.420  0.00  0.00    +0.010 S 
ATOM     15  O   UNL     1      37.125 -23.764 -10.596  0.00  0.00    -0.169 OA
ATOM     16  O   UNL     1      35.042 -25.127 -10.981  0.00  0.00    -0.169 OA
ATOM     17  C   UNL     1      37.342 -26.157 -11.646  0.00  0.00    +0.182 C 
ENDBRANCH  11  14
ENDBRANCH   7   8
ENDBRANCH   1   3
BRANCH   1  18
ATOM     18  C   UNL     1      36.177 -19.725 -21.066  0.00  0.00    +0.205 C 
BRANCH  18  23
ATOM     19  O   UNL     1      34.643 -13.589 -22.074  0.00  0.00    -0.296 OA
ATOM     20  N   UNL     1      34.756 -15.899 -22.444  0.00  0.00    -0.251 N 
ATOM     21  N   UNL     1      34.004 -14.266 -24.112  0.00  0.00    -0.300 NA
ATOM     22  N   UNL     1      34.279 -12.431 -22.774  0.00  0.00    -0.010 NA
ATOM     23  C   UNL     1      35.252 -18.580 -21.471  0.00  0.00    +0.047 C 
ATOM     24  C   UNL     1      35.457 -18.207 -22.943  0.00  0.00    +0.025 C 
ATOM     25  C   UNL     1      35.492 -17.348 -20.593  0.00  0.00    +0.025 C 
ATOM     26  C   UNL     1      34.564 -17.037 -23.353  0.00  0.00    +0.096 C 
ATOM     27  C   UNL     1      34.603 -16.176 -21.012  0.00  0.00    +0.096 C 
ATOM     28  C   UNL     1      34.451 -14.623 -22.935  0.00  0.00    +0.379 C 
ATOM     29  C   UNL     1      33.915 -12.913 -23.966  0.00  0.00    +0.104 C 
BRANCH  29  30
ATOM     30  C   UNL     1      33.450 -12.039 -25.048  0.00  0.00    +0.101 C 
ATOM     31  C   UNL     1      34.232 -10.702 -25.137  0.00  0.00    +0.017 C 
ATOM     32  C   UNL     1      33.467 -12.721 -26.439  0.00  0.00    +0.017 C 
ENDBRANCH  29  30
ENDBRANCH  18  23
ENDBRANCH   1  18
TORSDOF 6
ENDMDL
MODEL 8
REMARK VINA RESULT:     -10.8      2.005      2.397
REMARK  Name = 24996872
REMARK  6 active torsions:
REMARK  status: ('A' for Active; 'I' for Inactive)
REMARK    1  A    between atoms: O_1  and  C_3
REMARK    2  A    between atoms: O_1  and  C_18
REMARK    3  A    between atoms: C_7  and  C_8
REMARK    4  A    between atoms: C_11  and  S_14
REMARK    5  A    between atoms: C_18  and  C_23
REMARK    6  A    between atoms: C_29  and  C_30
REMARK                            x       y       z     vdW  Elec       q    Type
REMARK                         _______ _______ _______ _____ _____    ______ ____
ROOT
ATOM      1  O   UNL     1      35.450 -17.915 -22.153  0.00  0.00    -0.474 OA
ENDROOT
BRANCH   1   3
ATOM      2  N   UNL     1      34.354 -14.517 -21.345  0.00  0.00    -0.241 NA
ATOM      3  C   UNL     1      34.959 -16.644 -22.322  0.00  0.00    +0.158 C 
ATOM      4  C   UNL     1      34.577 -16.184 -23.577  0.00  0.00    +0.040 C 
ATOM      5  C   UNL     1      34.829 -15.779 -21.247  0.00  0.00    +0.136 C 
ATOM      6  C   UNL     1      34.082 -14.892 -23.718  0.00  0.00    +0.022 C 
ATOM      7  C   UNL     1      33.992 -14.105 -22.581  0.00  0.00    +0.082 C 
BRANCH   7   8
ATOM      8  C   UNL     1      33.489 -12.754 -22.651  0.00  0.00    +0.018 C 
ATOM      9  C   UNL     1      34.042 -11.850 -23.558  0.00  0.00    +0.003 C 
ATOM     10  C   UNL     1      32.450 -12.353 -21.812  0.00  0.00    +0.003 C 
ATOM     11  C   UNL     1      32.515 -10.143 -22.786  0.00  0.00    +0.106 C 
ATOM     12  C   UNL     1      33.555 -10.545 -23.625  0.00  0.00    +0.018 C 
ATOM     13  C   UNL     1      31.963 -11.047 -21.879  0.00  0.00    +0.018 C 
BRANCH  11  14
ATOM     14  S   UNL     1      31.906  -8.510 -22.871  0.00  0.00    +0.010 S 
ATOM     15  O   UNL     1      32.796  -7.743 -23.733  0.00  0.00    -0.169 OA
ATOM     16  O   UNL     1      30.479  -8.551 -23.160  0.00  0.00    -0.169 OA
ATOM     17  C   UNL     1      32.081  -7.886 -21.214  0.00  0.00    +0.182 C 
ENDBRANCH  11  14
ENDBRANCH   7   8
ENDBRANCH   1   3
BRANCH   1  18
ATOM     18  C   UNL     1      34.507 -18.970 -22.122  0.00  0.00    +0.205 C 
BRANCH  18  23
ATOM     19  O   UNL     1      37.456 -21.369 -16.967  0.00  0.00    -0.296 OA
ATOM     20  N   UNL     1      35.877 -21.179 -18.687  0.00  0.00    -0.251 N 
ATOM     21  N   UNL     1      35.644 -22.668 -16.752  0.00  0.00    -0.300 NA
ATOM     22  N   UNL     1      37.628 -22.084 -15.775  0.00  0.00    -0.010 NA
ATOM     23  C   UNL     1      35.059 -20.088 -21.240  0.00  0.00    +0.047 C 
ATOM     24  C   UNL     1      34.036 -20.499 -20.176  0.00  0.00    +0.025 C 
ATOM     25  C   UNL     1      36.360 -19.653 -20.558  0.00  0.00    +0.025 C 
ATOM     26  C   UNL     1      34.589 -21.591 -19.261  0.00  0.00    +0.096 C 
ATOM     27  C   UNL     1      36.906 -20.745 -19.638  0.00  0.00    +0.096 C 
ATOM     28  C   UNL     1      36.263 -21.772 -17.478  0.00  0.00    +0.379 C 
ATOM     29  C   UNL     1      36.519 -22.827 -15.718  0.00  0.00    +0.104 C 
BRANCH  29  30
ATOM     30  C   UNL     1      36.261 -23.754 -14.611  0.00  0.00    +0.101 C 
ATOM     31  C   UNL     1      35.201 -24.834 -14.949  0.00  0.00    +0.017 C 
ATOM     32  C   UNL     1      37.539 -24.456 -14.087  0.00  0.00    +0.017 C 
ENDBRANCH  29  30
ENDBRANCH  18  23
ENDBRANCH   1  18
TORSDOF 6
ENDMDL
MODEL 9
REMARK VINA RESULT:     -10.7      1.946      2.836
REMARK  Name = 24996872
REMARK  6 active torsions:
REMARK  status: ('A' for Active; 'I' for Inactive)
REMARK    1  A    between atoms: O_1  and  C_3
REMARK    2  A    between atoms: O_1  and  C_18
REMARK    3  A    between atoms: C_7  and  C_8
REMARK    4  A    between atoms: C_11  and  S_14
REMARK    5  A    between atoms: C_18  and  C_23
REMARK    6  A    between atoms: C_29  and  C_30
REMARK                            x       y       z     vdW  Elec       q    Type
REMARK                         _______ _______ _______ _____ _____    ______ ____
ROOT
ATOM      1  O   UNL     1      35.830 -20.428 -21.223  0.00  0.00    -0.474 OA
ENDROOT
BRANCH   1   3
ATOM      2  N   UNL     1      35.325 -16.812 -21.485  0.00  0.00    -0.241 NA
ATOM      3  C   UNL     1      35.475 -19.211 -21.749  0.00  0.00    +0.158 C 
ATOM      4  C   UNL     1      34.925 -19.113 -23.022  0.00  0.00    +0.040 C 
ATOM      5  C   UNL     1      35.653 -18.041 -21.027  0.00  0.00    +0.136 C 
ATOM      6  C   UNL     1      34.573 -17.866 -23.528  0.00  0.00    +0.022 C 
ATOM      7  C   UNL     1      34.793 -16.757 -22.727  0.00  0.00    +0.082 C 
BRANCH   7   8
ATOM      8  C   UNL     1      34.453 -15.431 -23.186  0.00  0.00    +0.018 C 
ATOM      9  C   UNL     1      34.510 -14.351 -22.304  0.00  0.00    +0.003 C 
ATOM     10  C   UNL     1      34.069 -15.228 -24.511  0.00  0.00    +0.003 C 
ATOM     11  C   UNL     1      33.798 -12.868 -24.074  0.00  0.00    +0.106 C 
ATOM     12  C   UNL     1      34.182 -13.070 -22.749  0.00  0.00    +0.018 C 
ATOM     13  C   UNL     1      33.741 -13.948 -24.956  0.00  0.00    +0.018 C 
BRANCH  11  14
ATOM     14  S   UNL     1      33.388 -11.265 -24.630  0.00  0.00    +0.010 S 
ATOM     15  O   UNL     1      32.814 -11.386 -25.964  0.00  0.00    -0.169 OA
ATOM     16  O   UNL     1      32.643 -10.578 -23.584  0.00  0.00    -0.169 OA
ATOM     17  C   UNL     1      34.954 -10.435 -24.783  0.00  0.00    +0.182 C 
ENDBRANCH  11  14
ENDBRANCH   7   8
ENDBRANCH   1   3
BRANCH   1  18
ATOM     18  C   UNL     1      36.345 -20.434 -19.904  0.00  0.00    +0.205 C 
BRANCH  18  23
ATOM     19  O   UNL     1      33.872 -23.292 -14.733  0.00  0.00    -0.296 OA
ATOM     20  N   UNL     1      34.097 -22.653 -16.975  0.00  0.00    -0.251 N 
ATOM     21  N   UNL     1      32.099 -23.718 -16.033  0.00  0.00    -0.300 NA
ATOM     22  N   UNL     1      32.916 -23.892 -13.903  0.00  0.00    -0.010 NA
ATOM     23  C   UNL     1      35.699 -21.586 -19.137  0.00  0.00    +0.047 C 
ATOM     24  C   UNL     1      34.173 -21.439 -19.117  0.00  0.00    +0.025 C 
ATOM     25  C   UNL     1      36.225 -21.648 -17.700  0.00  0.00    +0.025 C 
ATOM     26  C   UNL     1      33.514 -22.564 -18.320  0.00  0.00    +0.096 C 
ATOM     27  C   UNL     1      35.557 -22.769 -16.903  0.00  0.00    +0.096 C 
ATOM     28  C   UNL     1      33.310 -23.226 -15.968  0.00  0.00    +0.379 C 
ATOM     29  C   UNL     1      31.900 -24.113 -14.742  0.00  0.00    +0.104 C 
BRANCH  29  30
ATOM     30  C   UNL     1      30.650 -24.740 -14.301  0.00  0.00    +0.101 C 
ATOM     31  C   UNL     1      30.581 -24.956 -12.766  0.00  0.00    +0.017 C 
ATOM     32  C   UNL     1      29.383 -23.973 -14.755  0.00  0.00    +0.017 C 
ENDBRANCH  29  30
ENDBRANCH  18  23
ENDBRANCH   1  18
TORSDOF 6
ENDMDL
