MODEL 1
REMARK VINA RESULT:     -11.4      0.000      0.000
REMARK  Name = 2765355
REMARK  2 active torsions:
REMARK  status: ('A' for Active; 'I' for Inactive)
REMARK    1  A    between atoms: C_4  and  C_20
REMARK    2  A    between atoms: C_6  and  C_13
REMARK                            x       y       z     vdW  Elec       q    Type
REMARK                         _______ _______ _______ _____ _____    ______ ____
ROOT
ATOM      1  O   UNL     1      31.513 -22.642 -17.344  0.00  0.00    -0.353 OA
ATOM      2  N   UNL     1      31.057 -23.329 -16.227  0.00  0.00    -0.077 NA
ATOM      3  C   UNL     1      33.309 -23.111 -16.156  0.00  0.00    +0.058 A 
ATOM      4  C   UNL     1      32.865 -22.514 -17.296  0.00  0.00    +0.177 A 
ATOM      5  C   UNL     1      32.141 -23.624 -15.488  0.00  0.00    +0.123 A 
ATOM      6  C   UNL     1      34.718 -23.883 -14.509  0.00  0.00    +0.031 C 
ATOM      7  C   UNL     1      34.628 -23.198 -15.736  0.00  0.00    +0.007 C 
ATOM      8  C   UNL     1      32.257 -24.306 -14.264  0.00  0.00    +0.023 C 
ATOM      9  C   UNL     1      33.589 -24.413 -13.805  0.00  0.00    +0.004 C 
ENDROOT
BRANCH   6  13
ATOM     10  N   UNL     1      36.163 -23.588 -12.670  0.00  0.00    -0.338 NA
ATOM     11  N   UNL     1      38.451 -24.342 -12.705  0.00  0.00    -0.170 NA
ATOM     12  N   UNL     1      37.565 -23.271 -10.814  0.00  0.00    -0.293 N 
ATOM     13  C   UNL     1      36.032 -24.065 -13.922  0.00  0.00    +0.146 C 
ATOM     14  C   UNL     1      37.041 -24.683 -14.625  0.00  0.00    +0.055 C 
ATOM     15  C   UNL     1      38.244 -24.795 -13.959  0.00  0.00    +0.114 C 
ATOM     16  C   UNL     1      37.384 -23.758 -12.128  0.00  0.00    +0.141 C 
ATOM     17  H   UNL     1      36.818 -22.834 -10.344  0.00  0.00    +0.155 HD
ATOM     18  H   UNL     1      38.437 -23.368 -10.370  0.00  0.00    +0.155 HD
ENDBRANCH   6  13
BRANCH   4  20
ATOM     19 CL   UNL     1      35.322 -19.624 -21.884  0.00  0.00    -0.082 Cl
ATOM     20  C   UNL     1      33.457 -21.818 -18.403  0.00  0.00    +0.037 C 
ATOM     21  C   UNL     1      34.836 -21.892 -18.625  0.00  0.00    +0.004 C 
ATOM     22  C   UNL     1      32.660 -21.060 -19.266  0.00  0.00    +0.004 C 
ATOM     23  C   UNL     1      35.412 -21.215 -19.700  0.00  0.00    +0.011 C 
ATOM     24  C   UNL     1      33.236 -20.383 -20.341  0.00  0.00    +0.011 C 
ATOM     25  C   UNL     1      34.612 -20.460 -20.558  0.00  0.00    +0.058 C 
ENDBRANCH   4  20
TORSDOF 2
ENDMDL
MODEL 2
REMARK VINA RESULT:     -11.4      0.778      1.406
REMARK  Name = 2765355
REMARK  2 active torsions:
REMARK  status: ('A' for Active; 'I' for Inactive)
REMARK    1  A    between atoms: C_4  and  C_20
REMARK    2  A    between atoms: C_6  and  C_13
REMARK                            x       y       z     vdW  Elec       q    Type
REMARK                         _______ _______ _______ _____ _____    ______ ____
ROOT
ATOM      1  O   UNL     1      31.537 -22.683 -17.297  0.00  0.00    -0.353 OA
ATOM      2  N   UNL     1      31.087 -23.367 -16.176  0.00  0.00    -0.077 NA
ATOM      3  C   UNL     1      33.336 -23.120 -16.100  0.00  0.00    +0.058 A 
ATOM      4  C   UNL     1      32.887 -22.538 -17.247  0.00  0.00    +0.177 A 
ATOM      5  C   UNL     1      32.172 -23.642 -15.431  0.00  0.00    +0.123 A 
ATOM      6  C   UNL     1      34.749 -23.860 -14.443  0.00  0.00    +0.031 C 
ATOM      7  C   UNL     1      34.654 -23.186 -15.676  0.00  0.00    +0.007 C 
ATOM      8  C   UNL     1      32.293 -24.312 -14.201  0.00  0.00    +0.023 C 
ATOM      9  C   UNL     1      33.626 -24.399 -13.738  0.00  0.00    +0.004 C 
ENDROOT
BRANCH   6  13
ATOM     10  N   UNL     1      37.011 -24.475 -14.692  0.00  0.00    -0.338 NA
ATOM     11  N   UNL     1      38.577 -24.365 -12.863  0.00  0.00    -0.170 NA
ATOM     12  N   UNL     1      39.255 -25.099 -14.988  0.00  0.00    -0.293 N 
ATOM     13  C   UNL     1      36.064 -24.020 -13.851  0.00  0.00    +0.146 C 
ATOM     14  C   UNL     1      36.283 -23.719 -12.526  0.00  0.00    +0.055 C 
ATOM     15  C   UNL     1      37.576 -23.913 -12.081  0.00  0.00    +0.114 C 
ATOM     16  C   UNL     1      38.230 -24.623 -14.139  0.00  0.00    +0.141 C 
ATOM     17  H   UNL     1      39.057 -25.303 -15.931  0.00  0.00    +0.155 HD
ATOM     18  H   UNL     1      40.165 -25.225 -14.636  0.00  0.00    +0.155 HD
ENDBRANCH   6  13
BRANCH   4  20
ATOM     19 CL   UNL     1      35.319 -19.655 -21.852  0.00  0.00    -0.082 Cl
ATOM     20  C   UNL     1      33.473 -21.844 -18.357  0.00  0.00    +0.037 C 
ATOM     21  C   UNL     1      34.853 -21.903 -18.575  0.00  0.00    +0.004 C 
ATOM     22  C   UNL     1      32.670 -21.102 -19.228  0.00  0.00    +0.004 C 
ATOM     23  C   UNL     1      35.424 -21.227 -19.655  0.00  0.00    +0.011 C 
ATOM     24  C   UNL     1      33.240 -20.427 -20.308  0.00  0.00    +0.011 C 
ATOM     25  C   UNL     1      34.616 -20.488 -20.521  0.00  0.00    +0.058 C 
ENDBRANCH   4  20
TORSDOF 2
ENDMDL
MODEL 3
REMARK VINA RESULT:     -11.2      2.794      6.200
REMARK  Name = 2765355
REMARK  2 active torsions:
REMARK  status: ('A' for Active; 'I' for Inactive)
REMARK    1  A    between atoms: C_4  and  C_20
REMARK    2  A    between atoms: C_6  and  C_13
REMARK                            x       y       z     vdW  Elec       q    Type
REMARK                         _______ _______ _______ _____ _____    ______ ____
ROOT
ATOM      1  O   UNL     1      34.860 -23.394 -16.629  0.00  0.00    -0.353 OA
ATOM      2  N   UNL     1      34.511 -24.134 -15.508  0.00  0.00    -0.077 NA
ATOM      3  C   UNL     1      32.689 -23.106 -16.374  0.00  0.00    +0.058 A 
ATOM      4  C   UNL     1      33.763 -22.779 -17.145  0.00  0.00    +0.177 A 
ATOM      5  C   UNL     1      33.186 -23.972 -15.336  0.00  0.00    +0.123 A 
ATOM      6  C   UNL     1      30.533 -23.219 -15.579  0.00  0.00    +0.031 C 
ATOM      7  C   UNL     1      31.383 -22.683 -16.567  0.00  0.00    +0.007 C 
ATOM      8  C   UNL     1      32.319 -24.493 -14.361  0.00  0.00    +0.023 C 
ATOM      9  C   UNL     1      30.977 -24.082 -14.526  0.00  0.00    +0.004 C 
ENDROOT
BRANCH   6  13
ATOM     10  N   UNL     1      28.602 -22.814 -16.869  0.00  0.00    -0.338 NA
ATOM     11  N   UNL     1      26.488 -22.243 -15.864  0.00  0.00    -0.170 NA
ATOM     12  N   UNL     1      26.706 -22.418 -18.195  0.00  0.00    -0.293 N 
ATOM     13  C   UNL     1      29.125 -22.877 -15.630  0.00  0.00    +0.146 C 
ATOM     14  C   UNL     1      28.412 -22.642 -14.476  0.00  0.00    +0.055 C 
ATOM     15  C   UNL     1      27.081 -22.325 -14.656  0.00  0.00    +0.114 C 
ATOM     16  C   UNL     1      27.295 -22.495 -16.912  0.00  0.00    +0.141 C 
ATOM     17  H   UNL     1      27.250 -22.593 -18.997  0.00  0.00    +0.155 HD
ATOM     18  H   UNL     1      25.754 -22.189 -18.285  0.00  0.00    +0.155 HD
ENDBRANCH   6  13
BRANCH   4  20
ATOM     19 CL   UNL     1      34.739 -19.463 -21.992  0.00  0.00    -0.082 Cl
ATOM     20  C   UNL     1      33.998 -21.979 -18.313  0.00  0.00    +0.037 C 
ATOM     21  C   UNL     1      32.924 -21.417 -19.009  0.00  0.00    +0.004 C 
ATOM     22  C   UNL     1      35.303 -21.757 -18.764  0.00  0.00    +0.004 C 
ATOM     23  C   UNL     1      33.152 -20.639 -20.145  0.00  0.00    +0.011 C 
ATOM     24  C   UNL     1      35.531 -20.980 -19.900  0.00  0.00    +0.011 C 
ATOM     25  C   UNL     1      34.457 -20.422 -20.591  0.00  0.00    +0.058 C 
ENDBRANCH   4  20
TORSDOF 2
ENDMDL
MODEL 4
REMARK VINA RESULT:     -11.2      2.184      5.166
REMARK  Name = 2765355
REMARK  2 active torsions:
REMARK  status: ('A' for Active; 'I' for Inactive)
REMARK    1  A    between atoms: C_4  and  C_20
REMARK    2  A    between atoms: C_6  and  C_13
REMARK                            x       y       z     vdW  Elec       q    Type
REMARK                         _______ _______ _______ _____ _____    ______ ____
ROOT
ATOM      1  O   UNL     1      36.370 -22.639 -16.731  0.00  0.00    -0.353 OA
ATOM      2  N   UNL     1      36.417 -23.364 -15.548  0.00  0.00    -0.077 NA
ATOM      3  C   UNL     1      34.277 -23.135 -16.249  0.00  0.00    +0.058 A 
ATOM      4  C   UNL     1      35.084 -22.505 -17.147  0.00  0.00    +0.177 A 
ATOM      5  C   UNL     1      35.147 -23.677 -15.237  0.00  0.00    +0.123 A 
ATOM      6  C   UNL     1      32.392 -23.954 -15.215  0.00  0.00    +0.031 C 
ATOM      7  C   UNL     1      32.895 -23.228 -16.313  0.00  0.00    +0.007 C 
ATOM      8  C   UNL     1      34.621 -24.396 -14.150  0.00  0.00    +0.023 C 
ATOM      9  C   UNL     1      33.212 -24.512 -14.183  0.00  0.00    +0.004 C 
ENDROOT
BRANCH   6  13
ATOM     10  N   UNL     1      30.229 -23.387 -15.962  0.00  0.00    -0.338 NA
ATOM     11  N   UNL     1      28.250 -24.417 -15.051  0.00  0.00    -0.170 NA
ATOM     12  N   UNL     1      28.096 -22.790 -16.736  0.00  0.00    -0.293 N 
ATOM     13  C   UNL     1      30.958 -24.148 -15.124  0.00  0.00    +0.146 C 
ATOM     14  C   UNL     1      30.422 -25.052 -14.234  0.00  0.00    +0.055 C 
ATOM     15  C   UNL     1      29.045 -25.145 -14.241  0.00  0.00    +0.114 C 
ATOM     16  C   UNL     1      28.898 -23.570 -15.874  0.00  0.00    +0.141 C 
ATOM     17  H   UNL     1      28.517 -22.154 -17.360  0.00  0.00    +0.155 HD
ATOM     18  H   UNL     1      27.117 -22.883 -16.715  0.00  0.00    +0.155 HD
ENDBRANCH   6  13
BRANCH   4  20
ATOM     19 CL   UNL     1      34.338 -19.453 -22.203  0.00  0.00    -0.082 Cl
ATOM     20  C   UNL     1      34.905 -21.770 -18.367  0.00  0.00    +0.037 C 
ATOM     21  C   UNL     1      36.014 -21.291 -19.070  0.00  0.00    +0.004 C 
ATOM     22  C   UNL     1      33.619 -21.526 -18.859  0.00  0.00    +0.004 C 
ATOM     23  C   UNL     1      35.839 -20.576 -20.256  0.00  0.00    +0.011 C 
ATOM     24  C   UNL     1      33.444 -20.811 -20.044  0.00  0.00    +0.011 C 
ATOM     25  C   UNL     1      34.554 -20.335 -20.742  0.00  0.00    +0.058 C 
ENDBRANCH   4  20
TORSDOF 2
ENDMDL
MODEL 5
REMARK VINA RESULT:     -10.2      3.925      7.231
REMARK  Name = 2765355
REMARK  2 active torsions:
REMARK  status: ('A' for Active; 'I' for Inactive)
REMARK    1  A    between atoms: C_4  and  C_20
REMARK    2  A    between atoms: C_6  and  C_13
REMARK                            x       y       z     vdW  Elec       q    Type
REMARK                         _______ _______ _______ _____ _____    ______ ____
ROOT
ATOM      1  O   UNL     1      36.420 -22.728 -16.885  0.00  0.00    -0.353 OA
ATOM      2  N   UNL     1      35.726 -22.134 -17.931  0.00  0.00    -0.077 NA
ATOM      3  C   UNL     1      34.283 -23.033 -16.436  0.00  0.00    +0.058 A 
ATOM      4  C   UNL     1      35.549 -23.265 -15.991  0.00  0.00    +0.177 A 
ATOM      5  C   UNL     1      34.418 -22.309 -17.674  0.00  0.00    +0.123 A 
ATOM      6  C   UNL     1      31.985 -23.010 -16.553  0.00  0.00    +0.031 C 
ATOM      7  C   UNL     1      33.109 -23.421 -15.809  0.00  0.00    +0.007 C 
ATOM      8  C   UNL     1      33.281 -21.912 -18.399  0.00  0.00    +0.023 C 
ATOM      9  C   UNL     1      32.065 -22.291 -17.788  0.00  0.00    +0.004 C 
ENDROOT
BRANCH   6  13
ATOM     10  N   UNL     1      29.651 -22.691 -16.639  0.00  0.00    -0.338 NA
ATOM     11  N   UNL     1      28.144 -23.857 -15.164  0.00  0.00    -0.170 NA
ATOM     12  N   UNL     1      27.334 -22.340 -16.762  0.00  0.00    -0.293 N 
ATOM     13  C   UNL     1      30.669 -23.335 -16.038  0.00  0.00    +0.146 C 
ATOM     14  C   UNL     1      30.515 -24.240 -15.012  0.00  0.00    +0.055 C 
ATOM     15  C   UNL     1      29.214 -24.464 -14.611  0.00  0.00    +0.114 C 
ATOM     16  C   UNL     1      28.431 -22.995 -16.159  0.00  0.00    +0.141 C 
ATOM     17  H   UNL     1      27.486 -21.699 -17.494  0.00  0.00    +0.155 HD
ATOM     18  H   UNL     1      26.419 -22.524 -16.450  0.00  0.00    +0.155 HD
ENDBRANCH   6  13
BRANCH   4  20
ATOM     19 CL   UNL     1      38.041 -25.949 -11.298  0.00  0.00    -0.082 Cl
ATOM     20  C   UNL     1      36.149 -23.912 -14.859  0.00  0.00    +0.037 C 
ATOM     21  C   UNL     1      36.725 -23.151 -13.837  0.00  0.00    +0.004 C 
ATOM     22  C   UNL     1      36.163 -25.307 -14.770  0.00  0.00    +0.004 C 
ATOM     23  C   UNL     1      37.309 -23.780 -12.736  0.00  0.00    +0.011 C 
ATOM     24  C   UNL     1      36.746 -25.936 -13.671  0.00  0.00    +0.011 C 
ATOM     25  C   UNL     1      37.320 -25.173 -12.654  0.00  0.00    +0.058 C 
ENDBRANCH   4  20
TORSDOF 2
ENDMDL
MODEL 6
REMARK VINA RESULT:     -10.1      4.122      6.914
REMARK  Name = 2765355
REMARK  2 active torsions:
REMARK  status: ('A' for Active; 'I' for Inactive)
REMARK    1  A    between atoms: C_4  and  C_20
REMARK    2  A    between atoms: C_6  and  C_13
REMARK                            x       y       z     vdW  Elec       q    Type
REMARK                         _______ _______ _______ _____ _____    ______ ____
ROOT
ATOM      1  O   UNL     1      35.527 -24.156 -13.808  0.00  0.00    -0.353 OA
ATOM      2  N   UNL     1      36.839 -23.785 -14.067  0.00  0.00    -0.077 NA
ATOM      3  C   UNL     1      35.468 -23.029 -15.702  0.00  0.00    +0.058 A 
ATOM      4  C   UNL     1      34.708 -23.700 -14.791  0.00  0.00    +0.177 A 
ATOM      5  C   UNL     1      36.823 -23.094 -15.221  0.00  0.00    +0.123 A 
ATOM      6  C   UNL     1      36.074 -21.813 -17.558  0.00  0.00    +0.031 C 
ATOM      7  C   UNL     1      35.009 -22.411 -16.855  0.00  0.00    +0.007 C 
ATOM      8  C   UNL     1      37.869 -22.490 -15.941  0.00  0.00    +0.023 C 
ATOM      9  C   UNL     1      37.438 -21.849 -17.125  0.00  0.00    +0.004 C 
ENDROOT
BRANCH   6  13
ATOM     10  N   UNL     1      36.775 -20.363 -19.280  0.00  0.00    -0.338 NA
ATOM     11  N   UNL     1      35.332 -19.762 -21.114  0.00  0.00    -0.170 NA
ATOM     12  N   UNL     1      37.517 -18.915 -20.971  0.00  0.00    -0.293 N 
ATOM     13  C   UNL     1      35.772 -21.118 -18.795  0.00  0.00    +0.146 C 
ATOM     14  C   UNL     1      34.540 -21.249 -19.395  0.00  0.00    +0.055 C 
ATOM     15  C   UNL     1      34.374 -20.539 -20.567  0.00  0.00    +0.114 C 
ATOM     16  C   UNL     1      36.491 -19.720 -20.428  0.00  0.00    +0.141 C 
ATOM     17  H   UNL     1      38.385 -18.848 -20.512  0.00  0.00    +0.155 HD
ATOM     18  H   UNL     1      37.364 -18.423 -21.809  0.00  0.00    +0.155 HD
ENDBRANCH   6  13
BRANCH   4  20
ATOM     19 CL   UNL     1      28.944 -25.041 -14.149  0.00  0.00    -0.082 Cl
ATOM     20  C   UNL     1      33.319 -24.023 -14.635  0.00  0.00    +0.037 C 
ATOM     21  C   UNL     1      32.891 -24.788 -13.547  0.00  0.00    +0.004 C 
ATOM     22  C   UNL     1      32.382 -23.575 -15.573  0.00  0.00    +0.004 C 
ATOM     23  C   UNL     1      31.540 -25.102 -13.395  0.00  0.00    +0.011 C 
ATOM     24  C   UNL     1      31.032 -23.889 -15.422  0.00  0.00    +0.011 C 
ATOM     25  C   UNL     1      30.610 -24.653 -14.334  0.00  0.00    +0.058 C 
ENDBRANCH   4  20
TORSDOF 2
ENDMDL
MODEL 7
REMARK VINA RESULT:     -10.0      3.497      6.914
REMARK  Name = 2765355
REMARK  2 active torsions:
REMARK  status: ('A' for Active; 'I' for Inactive)
REMARK    1  A    between atoms: C_4  and  C_20
REMARK    2  A    between atoms: C_6  and  C_13
REMARK                            x       y       z     vdW  Elec       q    Type
REMARK                         _______ _______ _______ _____ _____    ______ ____
ROOT
ATOM      1  O   UNL     1      33.758 -25.088 -13.190  0.00  0.00    -0.353 OA
ATOM      2  N   UNL     1      32.468 -24.674 -13.495  0.00  0.00    -0.077 NA
ATOM      3  C   UNL     1      33.922 -23.952 -15.073  0.00  0.00    +0.058 A 
ATOM      4  C   UNL     1      34.626 -24.651 -14.140  0.00  0.00    +0.177 A 
ATOM      5  C   UNL     1      32.548 -23.979 -14.644  0.00  0.00    +0.123 A 
ATOM      6  C   UNL     1      33.422 -22.711 -16.944  0.00  0.00    +0.031 C 
ATOM      7  C   UNL     1      34.441 -23.343 -16.205  0.00  0.00    +0.007 C 
ATOM      8  C   UNL     1      31.549 -23.339 -15.398  0.00  0.00    +0.023 C 
ATOM      9  C   UNL     1      32.043 -22.707 -16.561  0.00  0.00    +0.004 C 
ENDROOT
BRANCH   6  13
ATOM     10  N   UNL     1      32.757 -21.520 -18.867  0.00  0.00    -0.338 NA
ATOM     11  N   UNL     1      34.349 -20.703 -20.481  0.00  0.00    -0.170 NA
ATOM     12  N   UNL     1      32.048 -20.340 -20.767  0.00  0.00    -0.293 N 
ATOM     13  C   UNL     1      33.791 -22.021 -18.166  0.00  0.00    +0.146 C 
ATOM     14  C   UNL     1      35.110 -21.910 -18.543  0.00  0.00    +0.055 C 
ATOM     15  C   UNL     1      35.332 -21.232 -19.725  0.00  0.00    +0.114 C 
ATOM     16  C   UNL     1      33.104 -20.881 -20.000  0.00  0.00    +0.141 C 
ATOM     17  H   UNL     1      31.116 -20.440 -20.463  0.00  0.00    +0.155 HD
ATOM     18  H   UNL     1      32.243 -19.862 -21.605  0.00  0.00    +0.155 HD
ENDBRANCH   6  13
BRANCH   4  20
ATOM     19 CL   UNL     1      40.320 -26.165 -13.290  0.00  0.00    -0.082 Cl
ATOM     20  C   UNL     1      35.999 -25.017 -13.934  0.00  0.00    +0.037 C 
ATOM     21  C   UNL     1      36.773 -24.342 -12.985  0.00  0.00    +0.004 C 
ATOM     22  C   UNL     1      36.573 -26.049 -14.682  0.00  0.00    +0.004 C 
ATOM     23  C   UNL     1      38.107 -24.697 -12.785  0.00  0.00    +0.011 C 
ATOM     24  C   UNL     1      37.907 -26.404 -14.483  0.00  0.00    +0.011 C 
ATOM     25  C   UNL     1      38.674 -25.728 -13.536  0.00  0.00    +0.058 C 
ENDBRANCH   4  20
TORSDOF 2
ENDMDL
MODEL 8
REMARK VINA RESULT:      -9.9      3.577      6.708
REMARK  Name = 2765355
REMARK  2 active torsions:
REMARK  status: ('A' for Active; 'I' for Inactive)
REMARK    1  A    between atoms: C_4  and  C_20
REMARK    2  A    between atoms: C_6  and  C_13
REMARK                            x       y       z     vdW  Elec       q    Type
REMARK                         _______ _______ _______ _____ _____    ______ ____
ROOT
ATOM      1  O   UNL     1      33.583 -25.066 -13.548  0.00  0.00    -0.353 OA
ATOM      2  N   UNL     1      32.286 -24.686 -13.869  0.00  0.00    -0.077 NA
ATOM      3  C   UNL     1      33.752 -23.849 -15.378  0.00  0.00    +0.058 A 
ATOM      4  C   UNL     1      34.458 -24.561 -14.456  0.00  0.00    +0.177 A 
ATOM      5  C   UNL     1      32.369 -23.942 -14.987  0.00  0.00    +0.123 A 
ATOM      6  C   UNL     1      33.254 -22.551 -17.211  0.00  0.00    +0.031 C 
ATOM      7  C   UNL     1      34.277 -23.177 -16.471  0.00  0.00    +0.007 C 
ATOM      8  C   UNL     1      31.367 -23.308 -15.741  0.00  0.00    +0.023 C 
ATOM      9  C   UNL     1      31.867 -22.611 -16.865  0.00  0.00    +0.004 C 
ENDROOT
BRANCH   6  13
ATOM     10  N   UNL     1      34.954 -21.683 -18.594  0.00  0.00    -0.338 NA
ATOM     11  N   UNL     1      34.463 -20.410 -20.581  0.00  0.00    -0.170 NA
ATOM     12  N   UNL     1      36.681 -20.838 -19.941  0.00  0.00    -0.293 N 
ATOM     13  C   UNL     1      33.628 -21.799 -18.394  0.00  0.00    +0.146 C 
ATOM     14  C   UNL     1      32.669 -21.262 -19.222  0.00  0.00    +0.055 C 
ATOM     15  C   UNL     1      33.151 -20.569 -20.314  0.00  0.00    +0.114 C 
ATOM     16  C   UNL     1      35.297 -20.984 -19.693  0.00  0.00    +0.141 C 
ATOM     17  H   UNL     1      37.336 -21.238 -19.324  0.00  0.00    +0.155 HD
ATOM     18  H   UNL     1      36.988 -20.337 -20.730  0.00  0.00    +0.155 HD
ENDBRANCH   6  13
BRANCH   4  20
ATOM     19 CL   UNL     1      40.180 -25.908 -13.519  0.00  0.00    -0.082 Cl
ATOM     20  C   UNL     1      35.837 -24.886 -14.229  0.00  0.00    +0.037 C 
ATOM     21  C   UNL     1      36.671 -23.987 -13.557  0.00  0.00    +0.004 C 
ATOM     22  C   UNL     1      36.358 -26.103 -14.680  0.00  0.00    +0.004 C 
ATOM     23  C   UNL     1      38.012 -24.303 -13.336  0.00  0.00    +0.011 C 
ATOM     24  C   UNL     1      37.698 -26.419 -14.460  0.00  0.00    +0.011 C 
ATOM     25  C   UNL     1      38.526 -25.519 -13.789  0.00  0.00    +0.058 C 
ENDBRANCH   4  20
TORSDOF 2
ENDMDL
MODEL 9
REMARK VINA RESULT:      -9.9      2.571      4.259
REMARK  Name = 2765355
REMARK  2 active torsions:
REMARK  status: ('A' for Active; 'I' for Inactive)
REMARK    1  A    between atoms: C_4  and  C_20
REMARK    2  A    between atoms: C_6  and  C_13
REMARK                            x       y       z     vdW  Elec       q    Type
REMARK                         _______ _______ _______ _____ _____    ______ ____
ROOT
ATOM      1  O   UNL     1      33.457 -23.462 -13.234  0.00  0.00    -0.353 OA
ATOM      2  N   UNL     1      33.879 -23.974 -12.014  0.00  0.00    -0.077 NA
ATOM      3  C   UNL     1      35.390 -24.445 -13.634  0.00  0.00    +0.058 A 
ATOM      4  C   UNL     1      34.367 -23.747 -14.202  0.00  0.00    +0.177 A 
ATOM      5  C   UNL     1      35.060 -24.578 -12.238  0.00  0.00    +0.123 A 
ATOM      6  C   UNL     1      37.366 -25.596 -13.384  0.00  0.00    +0.031 C 
ATOM      7  C   UNL     1      36.518 -24.922 -14.285  0.00  0.00    +0.007 C 
ATOM      8  C   UNL     1      35.922 -25.257 -11.360  0.00  0.00    +0.023 C 
ATOM      9  C   UNL     1      37.084 -25.758 -11.990  0.00  0.00    +0.004 C 
ENDROOT
BRANCH   6  13
ATOM     10  N   UNL     1      38.457 -26.908 -15.011  0.00  0.00    -0.338 NA
ATOM     11  N   UNL     1      40.837 -27.283 -14.969  0.00  0.00    -0.170 NA
ATOM     12  N   UNL     1      39.499 -28.222 -16.653  0.00  0.00    -0.293 N 
ATOM     13  C   UNL     1      38.598 -26.162 -13.899  0.00  0.00    +0.146 C 
ATOM     14  C   UNL     1      39.800 -25.930 -13.269  0.00  0.00    +0.055 C 
ATOM     15  C   UNL     1      40.899 -26.523 -13.856  0.00  0.00    +0.114 C 
ATOM     16  C   UNL     1      39.602 -27.431 -15.487  0.00  0.00    +0.141 C 
ATOM     17  H   UNL     1      38.620 -28.364 -17.075  0.00  0.00    +0.155 HD
ATOM     18  H   UNL     1      40.304 -28.629 -17.044  0.00  0.00    +0.155 HD
ENDBRANCH   6  13
BRANCH   4  20
ATOM     19 CL   UNL     1      33.016 -21.763 -19.649  0.00  0.00    -0.082 Cl
ATOM     20  C   UNL     1      34.041 -23.268 -15.515  0.00  0.00    +0.037 C 
ATOM     21  C   UNL     1      32.712 -23.247 -15.947  0.00  0.00    +0.004 C 
ATOM     22  C   UNL     1      35.051 -22.820 -16.372  0.00  0.00    +0.004 C 
ATOM     23  C   UNL     1      32.394 -22.781 -17.223  0.00  0.00    +0.011 C 
ATOM     24  C   UNL     1      34.734 -22.354 -17.648  0.00  0.00    +0.011 C 
ATOM     25  C   UNL     1      33.406 -22.336 -18.075  0.00  0.00    +0.058 C 
ENDBRANCH   4  20
TORSDOF 2
ENDMDL
