MODEL 1
REMARK VINA RESULT:     -11.4      0.000      0.000
REMARK  Name = 10401956
REMARK  3 active torsions:
REMARK  status: ('A' for Active; 'I' for Inactive)
REMARK    1  A    between atoms: N_1  and  C_13
REMARK    2  A    between atoms: C_8  and  N_20
REMARK    3  A    between atoms: C_21  and  C_23
REMARK                            x       y       z     vdW  Elec       q    Type
REMARK                         _______ _______ _______ _____ _____    ______ ____
ROOT
ATOM      1  N   UNL     1      32.833 -22.368 -17.973  0.00  0.00    -0.301 N 
ATOM      2  N   UNL     1      33.657 -24.339 -14.429  0.00  0.00    -0.248 NA
ATOM      3  N   UNL     1      34.361 -23.466 -16.562  0.00  0.00    -0.233 NA
ATOM      4  C   UNL     1      32.067 -23.226 -15.839  0.00  0.00    +0.117 C 
ATOM      5  C   UNL     1      32.406 -23.902 -14.655  0.00  0.00    +0.067 C 
ATOM      6  C   UNL     1      33.098 -23.041 -16.755  0.00  0.00    +0.115 C 
ATOM      7  C   UNL     1      30.756 -22.773 -16.063  0.00  0.00    +0.001 C 
ATOM      8  C   UNL     1      29.771 -22.991 -15.105  0.00  0.00    +0.047 C 
ATOM      9  C   UNL     1      31.400 -24.106 -13.713  0.00  0.00    +0.016 C 
ATOM     10  C   UNL     1      30.093 -23.658 -13.929  0.00  0.00    +0.016 C 
ATOM     11  C   UNL     1      34.567 -24.097 -15.395  0.00  0.00    +0.251 C 
ATOM     12  H   UNL     1      31.895 -22.372 -18.272  0.00  0.00    +0.153 HD
ENDROOT
BRANCH   1  13
ATOM     13  C   UNL     1      33.726 -21.705 -18.796  0.00  0.00    +0.049 C 
ATOM     14  C   UNL     1      35.112 -21.931 -18.694  0.00  0.00    +0.015 C 
ATOM     15  C   UNL     1      33.273 -20.783 -19.761  0.00  0.00    +0.015 C 
ATOM     16  C   UNL     1      36.012 -21.261 -19.523  0.00  0.00    +0.001 C 
ATOM     17  C   UNL     1      34.174 -20.113 -20.590  0.00  0.00    +0.001 C 
ATOM     18  C   UNL     1      35.543 -20.352 -20.471  0.00  0.00    +0.000 C 
ENDBRANCH   1  13
BRANCH   8  20
ATOM     19  O   UNL     1      27.850 -23.605 -17.331  0.00  0.00    -0.270 OA
ATOM     20  N   UNL     1      28.468 -22.543 -15.323  0.00  0.00    -0.281 N 
ATOM     21  C   UNL     1      27.610 -22.864 -16.386  0.00  0.00    +0.250 C 
ATOM     22  H   UNL     1      28.105 -21.926 -14.647  0.00  0.00    +0.155 HD
BRANCH  21  23
ATOM     23  C   UNL     1      26.293 -22.175 -16.256  0.00  0.00    +0.058 C 
ATOM     24  C   UNL     1      25.900 -21.282 -17.169  0.00  0.00    +0.005 C 
ENDBRANCH  21  23
ENDBRANCH   8  20
TORSDOF 3
ENDMDL
MODEL 2
REMARK VINA RESULT:     -10.2      2.766      3.760
REMARK  Name = 10401956
REMARK  3 active torsions:
REMARK  status: ('A' for Active; 'I' for Inactive)
REMARK    1  A    between atoms: N_1  and  C_13
REMARK    2  A    between atoms: C_8  and  N_20
REMARK    3  A    between atoms: C_21  and  C_23
REMARK                            x       y       z     vdW  Elec       q    Type
REMARK                         _______ _______ _______ _____ _____    ______ ____
ROOT
ATOM      1  N   UNL     1      34.680 -22.591 -17.612  0.00  0.00    -0.301 N 
ATOM      2  N   UNL     1      37.553 -22.648 -14.634  0.00  0.00    -0.248 NA
ATOM      3  N   UNL     1      36.846 -22.062 -16.862  0.00  0.00    -0.233 NA
ATOM      4  C   UNL     1      35.336 -23.205 -15.359  0.00  0.00    +0.117 C 
ATOM      5  C   UNL     1      36.350 -23.195 -14.388  0.00  0.00    +0.067 C 
ATOM      6  C   UNL     1      35.652 -22.619 -16.582  0.00  0.00    +0.115 C 
ATOM      7  C   UNL     1      34.082 -23.780 -15.091  0.00  0.00    +0.001 C 
ATOM      8  C   UNL     1      33.830 -24.351 -13.847  0.00  0.00    +0.047 C 
ATOM      9  C   UNL     1      36.070 -23.773 -13.151  0.00  0.00    +0.016 C 
ATOM     10  C   UNL     1      34.825 -24.347 -12.876  0.00  0.00    +0.016 C 
ATOM     11  C   UNL     1      37.735 -22.111 -15.858  0.00  0.00    +0.251 C 
ATOM     12  H   UNL     1      33.972 -23.273 -17.554  0.00  0.00    +0.153 HD
ENDROOT
BRANCH   1  13
ATOM     13  C   UNL     1      34.599 -21.726 -18.689  0.00  0.00    +0.049 C 
ATOM     14  C   UNL     1      35.762 -21.241 -19.318  0.00  0.00    +0.015 C 
ATOM     15  C   UNL     1      33.350 -21.305 -19.187  0.00  0.00    +0.015 C 
ATOM     16  C   UNL     1      35.679 -20.368 -20.403  0.00  0.00    +0.001 C 
ATOM     17  C   UNL     1      33.269 -20.432 -20.272  0.00  0.00    +0.001 C 
ATOM     18  C   UNL     1      34.434 -19.964 -20.880  0.00  0.00    +0.000 C 
ENDBRANCH   1  13
BRANCH   8  20
ATOM     19  O   UNL     1      31.099 -23.106 -13.739  0.00  0.00    -0.270 OA
ATOM     20  N   UNL     1      32.587 -24.922 -13.575  0.00  0.00    -0.281 N 
ATOM     21  C   UNL     1      31.335 -24.290 -13.537  0.00  0.00    +0.250 C 
ATOM     22  H   UNL     1      32.589 -25.888 -13.385  0.00  0.00    +0.155 HD
BRANCH  21  23
ATOM     23  C   UNL     1      30.244 -25.253 -13.207  0.00  0.00    +0.058 C 
ATOM     24  C   UNL     1      29.311 -25.560 -14.114  0.00  0.00    +0.005 C 
ENDBRANCH  21  23
ENDBRANCH   8  20
TORSDOF 3
ENDMDL
MODEL 3
REMARK VINA RESULT:     -10.2      3.267      7.538
REMARK  Name = 10401956
REMARK  3 active torsions:
REMARK  status: ('A' for Active; 'I' for Inactive)
REMARK    1  A    between atoms: N_1  and  C_13
REMARK    2  A    between atoms: C_8  and  N_20
REMARK    3  A    between atoms: C_21  and  C_23
REMARK                            x       y       z     vdW  Elec       q    Type
REMARK                         _______ _______ _______ _____ _____    ______ ____
ROOT
ATOM      1  N   UNL     1      32.517 -23.811 -15.846  0.00  0.00    -0.301 N 
ATOM      2  N   UNL     1      34.701 -21.766 -18.705  0.00  0.00    -0.248 NA
ATOM      3  N   UNL     1      32.629 -22.718 -17.926  0.00  0.00    -0.233 NA
ATOM      4  C   UNL     1      34.630 -22.874 -16.578  0.00  0.00    +0.117 C 
ATOM      5  C   UNL     1      35.320 -22.176 -17.584  0.00  0.00    +0.067 C 
ATOM      6  C   UNL     1      33.279 -23.113 -16.814  0.00  0.00    +0.115 C 
ATOM      7  C   UNL     1      35.287 -23.296 -15.410  0.00  0.00    +0.001 C 
ATOM      8  C   UNL     1      36.640 -23.025 -15.236  0.00  0.00    +0.047 C 
ATOM      9  C   UNL     1      36.674 -21.918 -17.383  0.00  0.00    +0.016 C 
ATOM     10  C   UNL     1      37.334 -22.335 -16.223  0.00  0.00    +0.016 C 
ATOM     11  C   UNL     1      33.389 -22.060 -18.815  0.00  0.00    +0.251 C 
ATOM     12  H   UNL     1      33.026 -24.389 -15.232  0.00  0.00    +0.153 HD
ENDROOT
BRANCH   1  13
ATOM     13  C   UNL     1      31.147 -23.784 -15.652  0.00  0.00    +0.049 C 
ATOM     14  C   UNL     1      30.371 -22.701 -16.111  0.00  0.00    +0.015 C 
ATOM     15  C   UNL     1      30.489 -24.838 -14.988  0.00  0.00    +0.015 C 
ATOM     16  C   UNL     1      28.991 -22.673 -15.914  0.00  0.00    +0.001 C 
ATOM     17  C   UNL     1      29.108 -24.808 -14.792  0.00  0.00    +0.001 C 
ATOM     18  C   UNL     1      28.359 -23.726 -15.255  0.00  0.00    +0.000 C 
ENDBRANCH   1  13
BRANCH   8  20
ATOM     19  O   UNL     1      37.750 -25.714 -14.491  0.00  0.00    -0.270 OA
ATOM     20  N   UNL     1      37.297 -23.442 -14.078  0.00  0.00    -0.281 N 
ATOM     21  C   UNL     1      37.798 -24.718 -13.781  0.00  0.00    +0.250 C 
ATOM     22  H   UNL     1      37.425 -22.756 -13.384  0.00  0.00    +0.155 HD
BRANCH  21  23
ATOM     23  C   UNL     1      38.436 -24.758 -12.433  0.00  0.00    +0.058 C 
ATOM     24  C   UNL     1      38.013 -23.947 -11.457  0.00  0.00    +0.005 C 
ENDBRANCH  21  23
ENDBRANCH   8  20
TORSDOF 3
ENDMDL
MODEL 4
REMARK VINA RESULT:     -10.1      1.874      2.909
REMARK  Name = 10401956
REMARK  3 active torsions:
REMARK  status: ('A' for Active; 'I' for Inactive)
REMARK    1  A    between atoms: N_1  and  C_13
REMARK    2  A    between atoms: C_8  and  N_20
REMARK    3  A    between atoms: C_21  and  C_23
REMARK                            x       y       z     vdW  Elec       q    Type
REMARK                         _______ _______ _______ _____ _____    ______ ____
ROOT
ATOM      1  N   UNL     1      34.755 -21.316 -19.523  0.00  0.00    -0.301 N 
ATOM      2  N   UNL     1      36.358 -22.824 -16.018  0.00  0.00    -0.248 NA
ATOM      3  N   UNL     1      36.620 -21.737 -18.153  0.00  0.00    -0.233 NA
ATOM      4  C   UNL     1      34.430 -22.414 -17.385  0.00  0.00    +0.117 C 
ATOM      5  C   UNL     1      35.031 -22.909 -16.216  0.00  0.00    +0.067 C 
ATOM      6  C   UNL     1      35.288 -21.837 -18.318  0.00  0.00    +0.115 C 
ATOM      7  C   UNL     1      33.041 -22.507 -17.581  0.00  0.00    +0.001 C 
ATOM      8  C   UNL     1      32.240 -23.096 -16.608  0.00  0.00    +0.047 C 
ATOM      9  C   UNL     1      34.204 -23.493 -15.259  0.00  0.00    +0.016 C 
ATOM     10  C   UNL     1      32.822 -23.589 -15.446  0.00  0.00    +0.016 C 
ATOM     11  C   UNL     1      37.080 -22.243 -16.998  0.00  0.00    +0.251 C 
ATOM     12  H   UNL     1      33.886 -21.685 -19.805  0.00  0.00    +0.153 HD
ENDROOT
BRANCH   1  13
ATOM     13  C   UNL     1      35.301 -20.354 -20.354  0.00  0.00    +0.049 C 
ATOM     14  C   UNL     1      36.599 -19.855 -20.132  0.00  0.00    +0.015 C 
ATOM     15  C   UNL     1      34.572 -19.844 -21.447  0.00  0.00    +0.015 C 
ATOM     16  C   UNL     1      37.148 -18.884 -20.969  0.00  0.00    +0.001 C 
ATOM     17  C   UNL     1      35.122 -18.872 -22.284  0.00  0.00    +0.001 C 
ATOM     18  C   UNL     1      36.410 -18.393 -22.045  0.00  0.00    +0.000 C 
ENDBRANCH   1  13
BRANCH   8  20
ATOM     19  O   UNL     1      29.983 -22.763 -14.655  0.00  0.00    -0.270 OA
ATOM     20  N   UNL     1      30.861 -23.191 -16.796  0.00  0.00    -0.281 N 
ATOM     21  C   UNL     1      29.846 -23.025 -15.843  0.00  0.00    +0.250 C 
ATOM     22  H   UNL     1      30.564 -23.400 -17.712  0.00  0.00    +0.155 HD
BRANCH  21  23
ATOM     23  C   UNL     1      28.492 -23.208 -16.444  0.00  0.00    +0.058 C 
ATOM     24  C   UNL     1      27.422 -22.622 -15.899  0.00  0.00    +0.005 C 
ENDBRANCH  21  23
ENDBRANCH   8  20
TORSDOF 3
ENDMDL
MODEL 5
REMARK VINA RESULT:      -9.7      2.794      5.745
REMARK  Name = 10401956
REMARK  3 active torsions:
REMARK  status: ('A' for Active; 'I' for Inactive)
REMARK    1  A    between atoms: N_1  and  C_13
REMARK    2  A    between atoms: C_8  and  N_20
REMARK    3  A    between atoms: C_21  and  C_23
REMARK                            x       y       z     vdW  Elec       q    Type
REMARK                         _______ _______ _______ _____ _____    ______ ____
ROOT
ATOM      1  N   UNL     1      35.558 -23.688 -14.326  0.00  0.00    -0.301 N 
ATOM      2  N   UNL     1      36.648 -21.807 -17.847  0.00  0.00    -0.248 NA
ATOM      3  N   UNL     1      37.218 -22.751 -15.705  0.00  0.00    -0.233 NA
ATOM      4  C   UNL     1      34.925 -22.752 -16.472  0.00  0.00    +0.117 C 
ATOM      5  C   UNL     1      35.354 -22.113 -17.647  0.00  0.00    +0.067 C 
ATOM      6  C   UNL     1      35.914 -23.044 -15.536  0.00  0.00    +0.115 C 
ATOM      7  C   UNL     1      33.570 -23.067 -16.273  0.00  0.00    +0.001 C 
ATOM      8  C   UNL     1      32.631 -22.747 -17.248  0.00  0.00    +0.047 C 
ATOM      9  C   UNL     1      34.392 -21.804 -18.606  0.00  0.00    +0.016 C 
ATOM     10  C   UNL     1      33.042 -22.115 -18.416  0.00  0.00    +0.016 C 
ATOM     11  C   UNL     1      37.509 -22.142 -16.865  0.00  0.00    +0.251 C 
ATOM     12  H   UNL     1      34.619 -23.587 -14.045  0.00  0.00    +0.153 HD
ENDROOT
BRANCH   1  13
ATOM     13  C   UNL     1      36.361 -24.441 -13.489  0.00  0.00    +0.049 C 
ATOM     14  C   UNL     1      36.920 -23.881 -12.322  0.00  0.00    +0.015 C 
ATOM     15  C   UNL     1      36.646 -25.790 -13.779  0.00  0.00    +0.015 C 
ATOM     16  C   UNL     1      37.730 -24.641 -11.480  0.00  0.00    +0.001 C 
ATOM     17  C   UNL     1      37.458 -26.548 -12.935  0.00  0.00    +0.001 C 
ATOM     18  C   UNL     1      38.000 -25.974 -11.785  0.00  0.00    +0.000 C 
ENDBRANCH   1  13
BRANCH   8  20
ATOM     19  O   UNL     1      30.968 -22.731 -14.748  0.00  0.00    -0.270 OA
ATOM     20  N   UNL     1      31.285 -23.059 -17.057  0.00  0.00    -0.281 N 
ATOM     21  C   UNL     1      30.554 -23.034 -15.860  0.00  0.00    +0.250 C 
ATOM     22  H   UNL     1      30.786 -23.330 -17.861  0.00  0.00    +0.155 HD
BRANCH  21  23
ATOM     23  C   UNL     1      29.134 -23.437 -16.074  0.00  0.00    +0.058 C 
ATOM     24  C   UNL     1      28.148 -22.838 -15.398  0.00  0.00    +0.005 C 
ENDBRANCH  21  23
ENDBRANCH   8  20
TORSDOF 3
ENDMDL
MODEL 6
REMARK VINA RESULT:      -9.6      1.873      2.648
REMARK  Name = 10401956
REMARK  3 active torsions:
REMARK  status: ('A' for Active; 'I' for Inactive)
REMARK    1  A    between atoms: N_1  and  C_13
REMARK    2  A    between atoms: C_8  and  N_20
REMARK    3  A    between atoms: C_21  and  C_23
REMARK                            x       y       z     vdW  Elec       q    Type
REMARK                         _______ _______ _______ _____ _____    ______ ____
ROOT
ATOM      1  N   UNL     1      34.433 -22.253 -18.051  0.00  0.00    -0.301 N 
ATOM      2  N   UNL     1      36.253 -23.467 -14.538  0.00  0.00    -0.248 NA
ATOM      3  N   UNL     1      36.382 -22.585 -16.777  0.00  0.00    -0.233 NA
ATOM      4  C   UNL     1      34.241 -23.145 -15.804  0.00  0.00    +0.117 C 
ATOM      5  C   UNL     1      34.914 -23.543 -14.637  0.00  0.00    +0.067 C 
ATOM      6  C   UNL     1      35.040 -22.673 -16.842  0.00  0.00    +0.115 C 
ATOM      7  C   UNL     1      32.841 -23.227 -15.896  0.00  0.00    +0.001 C 
ATOM      8  C   UNL     1      32.101 -23.708 -14.821  0.00  0.00    +0.047 C 
ATOM      9  C   UNL     1      34.148 -24.020 -13.576  0.00  0.00    +0.016 C 
ATOM     10  C   UNL     1      32.755 -24.105 -13.660  0.00  0.00    +0.016 C 
ATOM     11  C   UNL     1      36.914 -22.993 -15.614  0.00  0.00    +0.251 C 
ATOM     12  H   UNL     1      33.542 -22.628 -18.238  0.00  0.00    +0.153 HD
ENDROOT
BRANCH   1  13
ATOM     13  C   UNL     1      34.933 -21.382 -19.002  0.00  0.00    +0.049 C 
ATOM     14  C   UNL     1      34.074 -20.714 -19.897  0.00  0.00    +0.015 C 
ATOM     15  C   UNL     1      36.317 -21.139 -19.105  0.00  0.00    +0.015 C 
ATOM     16  C   UNL     1      34.579 -19.837 -20.856  0.00  0.00    +0.001 C 
ATOM     17  C   UNL     1      36.821 -20.261 -20.066  0.00  0.00    +0.001 C 
ATOM     18  C   UNL     1      35.951 -19.611 -20.941  0.00  0.00    +0.000 C 
ENDBRANCH   1  13
BRANCH   8  20
ATOM     19  O   UNL     1      30.285 -26.097 -14.692  0.00  0.00    -0.270 OA
ATOM     20  N   UNL     1      30.711 -23.792 -14.906  0.00  0.00    -0.281 N 
ATOM     21  C   UNL     1      29.909 -24.941 -14.839  0.00  0.00    +0.250 C 
ATOM     22  H   UNL     1      30.234 -22.939 -15.028  0.00  0.00    +0.155 HD
BRANCH  21  23
ATOM     23  C   UNL     1      28.461 -24.609 -14.973  0.00  0.00    +0.058 C 
ATOM     24  C   UNL     1      28.078 -23.441 -15.500  0.00  0.00    +0.005 C 
ENDBRANCH  21  23
ENDBRANCH   8  20
TORSDOF 3
ENDMDL
MODEL 7
REMARK VINA RESULT:      -9.6      7.198     10.421
REMARK  Name = 10401956
REMARK  3 active torsions:
REMARK  status: ('A' for Active; 'I' for Inactive)
REMARK    1  A    between atoms: N_1  and  C_13
REMARK    2  A    between atoms: C_8  and  N_20
REMARK    3  A    between atoms: C_21  and  C_23
REMARK                            x       y       z     vdW  Elec       q    Type
REMARK                         _______ _______ _______ _____ _____    ______ ____
ROOT
ATOM      1  N   UNL     1      35.341 -16.981 -21.222  0.00  0.00    -0.301 N 
ATOM      2  N   UNL     1      34.148 -15.828 -25.013  0.00  0.00    -0.248 NA
ATOM      3  N   UNL     1      35.222 -17.397 -23.534  0.00  0.00    -0.233 NA
ATOM      4  C   UNL     1      34.247 -15.364 -22.662  0.00  0.00    +0.117 C 
ATOM      5  C   UNL     1      33.868 -15.025 -23.971  0.00  0.00    +0.067 C 
ATOM      6  C   UNL     1      34.925 -16.571 -22.513  0.00  0.00    +0.115 C 
ATOM      7  C   UNL     1      33.949 -14.518 -21.580  0.00  0.00    +0.001 C 
ATOM      8  C   UNL     1      33.268 -13.324 -21.797  0.00  0.00    +0.047 C 
ATOM      9  C   UNL     1      33.187 -13.825 -24.160  0.00  0.00    +0.016 C 
ATOM     10  C   UNL     1      32.887 -12.978 -23.089  0.00  0.00    +0.016 C 
ATOM     11  C   UNL     1      34.810 -16.970 -24.737  0.00  0.00    +0.251 C 
ATOM     12  H   UNL     1      35.447 -16.262 -20.556  0.00  0.00    +0.153 HD
ENDROOT
BRANCH   1  13
ATOM     13  C   UNL     1      35.614 -18.262 -20.777  0.00  0.00    +0.049 C 
ATOM     14  C   UNL     1      34.590 -19.220 -20.650  0.00  0.00    +0.015 C 
ATOM     15  C   UNL     1      36.927 -18.645 -20.437  0.00  0.00    +0.015 C 
ATOM     16  C   UNL     1      34.866 -20.511 -20.200  0.00  0.00    +0.001 C 
ATOM     17  C   UNL     1      37.202 -19.937 -19.987  0.00  0.00    +0.001 C 
ATOM     18  C   UNL     1      36.172 -20.869 -19.869  0.00  0.00    +0.000 C 
ENDBRANCH   1  13
BRANCH   8  20
ATOM     19  O   UNL     1      30.929 -11.492 -21.361  0.00  0.00    -0.270 OA
ATOM     20  N   UNL     1      32.969 -12.481 -20.728  0.00  0.00    -0.281 N 
ATOM     21  C   UNL     1      31.856 -11.642 -20.574  0.00  0.00    +0.250 C 
ATOM     22  H   UNL     1      33.620 -12.473 -19.989  0.00  0.00    +0.155 HD
BRANCH  21  23
ATOM     23  C   UNL     1      31.903 -10.896 -19.283  0.00  0.00    +0.058 C 
ATOM     24  C   UNL     1      31.857  -9.560 -19.267  0.00  0.00    +0.005 C 
ENDBRANCH  21  23
ENDBRANCH   8  20
TORSDOF 3
ENDMDL
MODEL 8
REMARK VINA RESULT:      -9.6      2.835      6.098
REMARK  Name = 10401956
REMARK  3 active torsions:
REMARK  status: ('A' for Active; 'I' for Inactive)
REMARK    1  A    between atoms: N_1  and  C_13
REMARK    2  A    between atoms: C_8  and  N_20
REMARK    3  A    between atoms: C_21  and  C_23
REMARK                            x       y       z     vdW  Elec       q    Type
REMARK                         _______ _______ _______ _____ _____    ______ ____
ROOT
ATOM      1  N   UNL     1      34.655 -24.422 -14.053  0.00  0.00    -0.301 N 
ATOM      2  N   UNL     1      30.572 -24.619 -13.404  0.00  0.00    -0.248 NA
ATOM      3  N   UNL     1      32.834 -25.105 -12.730  0.00  0.00    -0.233 NA
ATOM      4  C   UNL     1      32.401 -23.904 -14.783  0.00  0.00    +0.117 C 
ATOM      5  C   UNL     1      31.026 -24.003 -14.510  0.00  0.00    +0.067 C 
ATOM      6  C   UNL     1      33.255 -24.480 -13.846  0.00  0.00    +0.115 C 
ATOM      7  C   UNL     1      32.864 -23.257 -15.941  0.00  0.00    +0.001 C 
ATOM      8  C   UNL     1      31.956 -22.702 -16.838  0.00  0.00    +0.047 C 
ATOM      9  C   UNL     1      30.140 -23.437 -15.424  0.00  0.00    +0.016 C 
ATOM     10  C   UNL     1      30.593 -22.792 -16.579  0.00  0.00    +0.016 C 
ATOM     11  C   UNL     1      31.502 -25.137 -12.575  0.00  0.00    +0.251 C 
ATOM     12  H   UNL     1      34.947 -24.297 -14.986  0.00  0.00    +0.153 HD
ENDROOT
BRANCH   1  13
ATOM     13  C   UNL     1      35.664 -24.516 -13.112  0.00  0.00    +0.049 C 
ATOM     14  C   UNL     1      35.875 -23.490 -12.170  0.00  0.00    +0.015 C 
ATOM     15  C   UNL     1      36.511 -25.641 -13.069  0.00  0.00    +0.015 C 
ATOM     16  C   UNL     1      36.893 -23.585 -11.222  0.00  0.00    +0.001 C 
ATOM     17  C   UNL     1      37.530 -25.735 -12.120  0.00  0.00    +0.001 C 
ATOM     18  C   UNL     1      37.720 -24.707 -11.196  0.00  0.00    +0.000 C 
ENDBRANCH   1  13
BRANCH   8  20
ATOM     19  O   UNL     1      34.670 -22.702 -18.124  0.00  0.00    -0.270 OA
ATOM     20  N   UNL     1      32.410 -22.058 -17.989  0.00  0.00    -0.281 N 
ATOM     21  C   UNL     1      33.696 -22.093 -18.548  0.00  0.00    +0.250 C 
ATOM     22  H   UNL     1      31.745 -21.512 -18.468  0.00  0.00    +0.155 HD
BRANCH  21  23
ATOM     23  C   UNL     1      33.778 -21.266 -19.787  0.00  0.00    +0.058 C 
ATOM     24  C   UNL     1      32.728 -20.547 -20.195  0.00  0.00    +0.005 C 
ENDBRANCH  21  23
ENDBRANCH   8  20
TORSDOF 3
ENDMDL
MODEL 9
REMARK VINA RESULT:      -9.6      2.918      6.974
REMARK  Name = 10401956
REMARK  3 active torsions:
REMARK  status: ('A' for Active; 'I' for Inactive)
REMARK    1  A    between atoms: N_1  and  C_13
REMARK    2  A    between atoms: C_8  and  N_20
REMARK    3  A    between atoms: C_21  and  C_23
REMARK                            x       y       z     vdW  Elec       q    Type
REMARK                         _______ _______ _______ _____ _____    ______ ____
ROOT
ATOM      1  N   UNL     1      33.193 -23.274 -14.743  0.00  0.00    -0.301 N 
ATOM      2  N   UNL     1      36.881 -24.464 -13.290  0.00  0.00    -0.248 NA
ATOM      3  N   UNL     1      34.476 -24.441 -13.153  0.00  0.00    -0.233 NA
ATOM      4  C   UNL     1      35.611 -23.261 -14.932  0.00  0.00    +0.117 C 
ATOM      5  C   UNL     1      36.834 -23.695 -14.392  0.00  0.00    +0.067 C 
ATOM      6  C   UNL     1      34.464 -23.672 -14.259  0.00  0.00    +0.115 C 
ATOM      7  C   UNL     1      35.573 -22.458 -16.084  0.00  0.00    +0.001 C 
ATOM      8  C   UNL     1      36.758 -22.081 -16.709  0.00  0.00    +0.047 C 
ATOM      9  C   UNL     1      38.004 -23.303 -15.039  0.00  0.00    +0.016 C 
ATOM     10  C   UNL     1      37.975 -22.505 -16.186  0.00  0.00    +0.016 C 
ATOM     11  C   UNL     1      35.700 -24.795 -12.731  0.00  0.00    +0.251 C 
ATOM     12  H   UNL     1      33.181 -22.463 -15.302  0.00  0.00    +0.153 HD
ENDROOT
BRANCH   1  13
ATOM     13  C   UNL     1      31.968 -23.880 -14.531  0.00  0.00    +0.049 C 
ATOM     14  C   UNL     1      31.664 -24.488 -13.297  0.00  0.00    +0.015 C 
ATOM     15  C   UNL     1      30.989 -23.908 -15.544  0.00  0.00    +0.015 C 
ATOM     16  C   UNL     1      30.429 -25.100 -13.085  0.00  0.00    +0.001 C 
ATOM     17  C   UNL     1      29.754 -24.521 -15.330  0.00  0.00    +0.001 C 
ATOM     18  C   UNL     1      29.474 -25.117 -14.100  0.00  0.00    +0.000 C 
ENDBRANCH   1  13
BRANCH   8  20
ATOM     19  O   UNL     1      35.271 -22.448 -19.292  0.00  0.00    -0.270 OA
ATOM     20  N   UNL     1      36.726 -21.285 -17.854  0.00  0.00    -0.281 N 
ATOM     21  C   UNL     1      36.010 -21.505 -19.040  0.00  0.00    +0.250 C 
ATOM     22  H   UNL     1      37.275 -20.468 -17.826  0.00  0.00    +0.155 HD
BRANCH  21  23
ATOM     23  C   UNL     1      36.244 -20.416 -20.033  0.00  0.00    +0.058 C 
ATOM     24  C   UNL     1      35.214 -19.815 -20.637  0.00  0.00    +0.005 C 
ENDBRANCH  21  23
ENDBRANCH   8  20
TORSDOF 3
ENDMDL
