MODEL 1
REMARK VINA RESULT:     -10.8      0.000      0.000
REMARK  Name = 491941
REMARK  5 active torsions:
REMARK  status: ('A' for Active; 'I' for Inactive)
REMARK    1  A    between atoms: C_5  and  C_17
REMARK    2  A    between atoms: C_7  and  S_11
REMARK    3  A    between atoms: S_11  and  N_14
REMARK    4  A    between atoms: C_17  and  C_18
REMARK    5  A    between atoms: C_21  and  C_25
REMARK                            x       y       z     vdW  Elec       q    Type
REMARK                         _______ _______ _______ _____ _____    ______ ____
ROOT
ATOM      1  S   UNL     1      34.430 -24.557 -12.929  0.00  0.00    -0.035 S 
ATOM      2  O   UNL     1      35.693 -22.907 -16.810  0.00  0.00    -0.274 OA
ATOM      3  N   UNL     1      34.011 -23.373 -15.230  0.00  0.00    -0.227 N 
ATOM      4  N   UNL     1      36.044 -22.868 -14.038  0.00  0.00    -0.386 NA
ATOM      5  C   UNL     1      34.504 -23.078 -16.525  0.00  0.00    +0.236 C 
ATOM      6  C   UNL     1      34.929 -23.489 -14.142  0.00  0.00    +0.217 C 
ATOM      7  C   UNL     1      35.885 -24.178 -12.106  0.00  0.00    +0.247 C 
ATOM      8  C   UNL     1      36.611 -23.267 -12.844  0.00  0.00    +0.123 C 
ATOM      9  C   UNL     1      32.572 -23.561 -14.981  0.00  0.00    +0.123 C 
ATOM     10  C   UNL     1      37.920 -22.696 -12.467  0.00  0.00    +0.064 C 
ENDROOT
BRANCH   7  11
ATOM     11  S   UNL     1      36.119 -24.993 -10.572  0.00  0.00    +0.052 S 
ATOM     12  O   UNL     1      34.790 -25.387 -10.114  0.00  0.00    -0.157 OA
ATOM     13  O   UNL     1      37.142 -26.001 -10.825  0.00  0.00    -0.157 OA
BRANCH  11  14
ATOM     14  N   UNL     1      36.746 -23.865  -9.434  0.00  0.00    -0.206 NA
ATOM     15  H   UNL     1      36.027 -23.641  -8.747  0.00  0.00    +0.144 HD
ATOM     16  H   UNL     1      37.029 -23.014  -9.921  0.00  0.00    +0.144 HD
ENDBRANCH  11  14
ENDBRANCH   7  11
BRANCH   5  17
ATOM     17  C   UNL     1      33.460 -23.012 -17.647  0.00  0.00    +0.112 C 
BRANCH  17  18
ATOM     18  C   UNL     1      33.758 -21.995 -18.695  0.00  0.00    -0.013 C 
ATOM     19  C   UNL     1      35.079 -21.754 -19.078  0.00  0.00    -0.004 C 
ATOM     20  C   UNL     1      32.718 -21.285 -19.294  0.00  0.00    -0.004 C 
ATOM     21  C   UNL     1      34.318 -20.092 -20.657  0.00  0.00    +0.018 C 
ATOM     22  C   UNL     1      35.358 -20.803 -20.059  0.00  0.00    +0.001 C 
ATOM     23  C   UNL     1      32.998 -20.333 -20.275  0.00  0.00    +0.001 C 
BRANCH  21  25
ATOM     24  N   UNL     1      35.235 -17.996 -21.229  0.00  0.00    -0.244 NA
ATOM     25  C   UNL     1      34.607 -19.105 -21.675  0.00  0.00    +0.081 C 
ATOM     26  C   UNL     1      34.251 -19.322 -22.994  0.00  0.00    +0.019 C 
ATOM     27  C   UNL     1      34.560 -18.331 -23.920  0.00  0.00    +0.003 C 
ATOM     28  C   UNL     1      35.519 -17.055 -22.157  0.00  0.00    +0.099 C 
ATOM     29  C   UNL     1      35.206 -17.173 -23.501  0.00  0.00    +0.021 C 
ENDBRANCH  21  25
ENDBRANCH  17  18
ENDBRANCH   5  17
TORSDOF 5
ENDMDL
MODEL 2
REMARK VINA RESULT:      -9.9      9.486     13.974
REMARK  Name = 491941
REMARK  5 active torsions:
REMARK  status: ('A' for Active; 'I' for Inactive)
REMARK    1  A    between atoms: C_5  and  C_17
REMARK    2  A    between atoms: C_7  and  S_11
REMARK    3  A    between atoms: S_11  and  N_14
REMARK    4  A    between atoms: C_17  and  C_18
REMARK    5  A    between atoms: C_21  and  C_25
REMARK                            x       y       z     vdW  Elec       q    Type
REMARK                         _______ _______ _______ _____ _____    ______ ____
ROOT
ATOM      1  S   UNL     1      32.776  -8.377 -23.563  0.00  0.00    -0.035 S 
ATOM      2  O   UNL     1      32.263 -12.568 -22.320  0.00  0.00    -0.274 OA
ATOM      3  N   UNL     1      33.410 -10.921 -23.549  0.00  0.00    -0.227 N 
ATOM      4  N   UNL     1      32.635  -9.924 -21.496  0.00  0.00    -0.386 NA
ATOM      5  C   UNL     1      33.010 -12.246 -23.248  0.00  0.00    +0.236 C 
ATOM      6  C   UNL     1      32.933  -9.846 -22.739  0.00  0.00    +0.217 C 
ATOM      7  C   UNL     1      32.228  -7.697 -22.088  0.00  0.00    +0.247 C 
ATOM      8  C   UNL     1      32.220  -8.666 -21.106  0.00  0.00    +0.123 C 
ATOM      9  C   UNL     1      34.307 -10.627 -24.678  0.00  0.00    +0.123 C 
ATOM     10  C   UNL     1      31.812  -8.469 -19.700  0.00  0.00    +0.064 C 
ENDROOT
BRANCH   7  11
ATOM     11  S   UNL     1      31.818  -5.994 -22.147  0.00  0.00    +0.052 S 
ATOM     12  O   UNL     1      32.709  -5.397 -23.138  0.00  0.00    -0.157 OA
ATOM     13  O   UNL     1      30.372  -5.953 -22.334  0.00  0.00    -0.157 OA
BRANCH  11  14
ATOM     14  N   UNL     1      32.184  -5.282 -20.625  0.00  0.00    -0.206 NA
ATOM     15  H   UNL     1      31.680  -4.401 -20.532  0.00  0.00    +0.144 HD
ATOM     16  H   UNL     1      33.188  -5.109 -20.563  0.00  0.00    +0.144 HD
ENDBRANCH  11  14
ENDBRANCH   7  11
BRANCH   5  17
ATOM     17  C   UNL     1      33.530 -13.340 -24.190  0.00  0.00    +0.112 C 
BRANCH  17  18
ATOM     18  C   UNL     1      34.042 -14.552 -23.490  0.00  0.00    -0.013 C 
ATOM     19  C   UNL     1      34.314 -14.505 -22.122  0.00  0.00    -0.004 C 
ATOM     20  C   UNL     1      34.247 -15.734 -24.201  0.00  0.00    -0.004 C 
ATOM     21  C   UNL     1      35.000 -16.820 -22.178  0.00  0.00    +0.018 C 
ATOM     22  C   UNL     1      34.793 -15.639 -21.466  0.00  0.00    +0.001 C 
ATOM     23  C   UNL     1      34.727 -16.868 -23.545  0.00  0.00    +0.001 C 
BRANCH  21  25
ATOM     24  N   UNL     1      36.814 -17.972 -21.208  0.00  0.00    -0.244 NA
ATOM     25  C   UNL     1      35.496 -17.997 -21.499  0.00  0.00    +0.081 C 
ATOM     26  C   UNL     1      34.650 -19.047 -21.189  0.00  0.00    +0.019 C 
ATOM     27  C   UNL     1      35.194 -20.147 -20.535  0.00  0.00    +0.003 C 
ATOM     28  C   UNL     1      37.308 -19.058 -20.572  0.00  0.00    +0.099 C 
ATOM     29  C   UNL     1      36.548 -20.161 -20.217  0.00  0.00    +0.021 C 
ENDBRANCH  21  25
ENDBRANCH  17  18
ENDBRANCH   5  17
TORSDOF 5
ENDMDL
MODEL 3
REMARK VINA RESULT:      -9.8      3.472      5.903
REMARK  Name = 491941
REMARK  5 active torsions:
REMARK  status: ('A' for Active; 'I' for Inactive)
REMARK    1  A    between atoms: C_5  and  C_17
REMARK    2  A    between atoms: C_7  and  S_11
REMARK    3  A    between atoms: S_11  and  N_14
REMARK    4  A    between atoms: C_17  and  C_18
REMARK    5  A    between atoms: C_21  and  C_25
REMARK                            x       y       z     vdW  Elec       q    Type
REMARK                         _______ _______ _______ _____ _____    ______ ____
ROOT
ATOM      1  S   UNL     1      36.647 -21.571 -17.619  0.00  0.00    -0.035 S 
ATOM      2  O   UNL     1      34.038 -19.626 -20.583  0.00  0.00    -0.274 OA
ATOM      3  N   UNL     1      36.132 -20.498 -19.955  0.00  0.00    -0.227 N 
ATOM      4  N   UNL     1      34.418 -21.827 -18.905  0.00  0.00    -0.386 NA
ATOM      5  C   UNL     1      35.262 -19.692 -20.730  0.00  0.00    +0.236 C 
ATOM      6  C   UNL     1      35.590 -21.312 -18.914  0.00  0.00    +0.217 C 
ATOM      7  C   UNL     1      35.407 -22.510 -16.897  0.00  0.00    +0.247 C 
ATOM      8  C   UNL     1      34.303 -22.533 -17.723  0.00  0.00    +0.123 C 
ATOM      9  C   UNL     1      37.583 -20.516 -20.200  0.00  0.00    +0.123 C 
ATOM     10  C   UNL     1      33.034 -23.237 -17.451  0.00  0.00    +0.064 C 
ENDROOT
BRANCH   7  11
ATOM     11  S   UNL     1      35.799 -23.208 -15.338  0.00  0.00    +0.052 S 
ATOM     12  O   UNL     1      35.798 -24.655 -15.529  0.00  0.00    -0.157 OA
ATOM     13  O   UNL     1      37.010 -22.521 -14.904  0.00  0.00    -0.157 OA
BRANCH  11  14
ATOM     14  N   UNL     1      34.539 -22.830 -14.229  0.00  0.00    -0.206 NA
ATOM     15  H   UNL     1      33.727 -22.489 -14.741  0.00  0.00    +0.144 HD
ATOM     16  H   UNL     1      34.861 -22.110 -13.582  0.00  0.00    +0.144 HD
ENDBRANCH  11  14
ENDBRANCH   7  11
BRANCH   5  17
ATOM     17  C   UNL     1      35.925 -18.815 -21.799  0.00  0.00    +0.112 C 
BRANCH  17  18
ATOM     18  C   UNL     1      35.327 -17.456 -21.928  0.00  0.00    -0.013 C 
ATOM     19  C   UNL     1      34.983 -16.962 -23.187  0.00  0.00    -0.004 C 
ATOM     20  C   UNL     1      35.110 -16.679 -20.790  0.00  0.00    -0.004 C 
ATOM     21  C   UNL     1      34.206 -14.913 -22.169  0.00  0.00    +0.018 C 
ATOM     22  C   UNL     1      34.422 -15.690 -23.307  0.00  0.00    +0.001 C 
ATOM     23  C   UNL     1      34.549 -15.407 -20.911  0.00  0.00    +0.001 C 
BRANCH  21  25
ATOM     24  N   UNL     1      34.126 -12.844 -23.299  0.00  0.00    -0.244 NA
ATOM     25  C   UNL     1      33.625 -13.594 -22.294  0.00  0.00    +0.081 C 
ATOM     26  C   UNL     1      32.631 -13.172 -21.428  0.00  0.00    +0.019 C 
ATOM     27  C   UNL     1      32.117 -11.892 -21.605  0.00  0.00    +0.003 C 
ATOM     28  C   UNL     1      33.602 -11.606 -23.441  0.00  0.00    +0.099 C 
ATOM     29  C   UNL     1      32.606 -11.088 -22.629  0.00  0.00    +0.021 C 
ENDBRANCH  21  25
ENDBRANCH  17  18
ENDBRANCH   5  17
TORSDOF 5
ENDMDL
MODEL 4
REMARK VINA RESULT:      -9.7      2.892      5.069
REMARK  Name = 491941
REMARK  5 active torsions:
REMARK  status: ('A' for Active; 'I' for Inactive)
REMARK    1  A    between atoms: C_5  and  C_17
REMARK    2  A    between atoms: C_7  and  S_11
REMARK    3  A    between atoms: S_11  and  N_14
REMARK    4  A    between atoms: C_17  and  C_18
REMARK    5  A    between atoms: C_21  and  C_25
REMARK                            x       y       z     vdW  Elec       q    Type
REMARK                         _______ _______ _______ _____ _____    ______ ____
ROOT
ATOM      1  S   UNL     1      35.682 -22.441 -16.856  0.00  0.00    -0.035 S 
ATOM      2  O   UNL     1      33.865 -20.145 -20.143  0.00  0.00    -0.274 OA
ATOM      3  N   UNL     1      35.617 -21.465 -19.288  0.00  0.00    -0.227 N 
ATOM      4  N   UNL     1      33.552 -22.229 -18.308  0.00  0.00    -0.386 NA
ATOM      5  C   UNL     1      35.038 -20.530 -20.181  0.00  0.00    +0.236 C 
ATOM      6  C   UNL     1      34.816 -22.029 -18.249  0.00  0.00    +0.217 C 
ATOM      7  C   UNL     1      34.197 -22.976 -16.186  0.00  0.00    +0.247 C 
ATOM      8  C   UNL     1      33.181 -22.786 -17.100  0.00  0.00    +0.123 C 
ATOM      9  C   UNL     1      37.028 -21.867 -19.408  0.00  0.00    +0.123 C 
ATOM     10  C   UNL     1      31.758 -23.123 -16.894  0.00  0.00    +0.064 C 
ENDROOT
BRANCH   7  11
ATOM     11  S   UNL     1      34.291 -23.622 -14.560  0.00  0.00    +0.052 S 
ATOM     12  O   UNL     1      33.048 -23.238 -13.898  0.00  0.00    -0.157 OA
ATOM     13  O   UNL     1      34.635 -25.030 -14.726  0.00  0.00    -0.157 OA
BRANCH  11  14
ATOM     14  N   UNL     1      35.583 -22.847 -13.729  0.00  0.00    -0.206 NA
ATOM     15  H   UNL     1      36.152 -22.328 -14.396  0.00  0.00    +0.144 HD
ATOM     16  H   UNL     1      36.157 -23.550 -13.264  0.00  0.00    +0.144 HD
ENDBRANCH  11  14
ENDBRANCH   7  11
BRANCH   5  17
ATOM     17  C   UNL     1      35.974 -19.937 -21.242  0.00  0.00    +0.112 C 
BRANCH  17  18
ATOM     18  C   UNL     1      35.513 -18.635 -21.800  0.00  0.00    -0.013 C 
ATOM     19  C   UNL     1      35.593 -17.476 -21.026  0.00  0.00    -0.004 C 
ATOM     20  C   UNL     1      35.002 -18.573 -23.096  0.00  0.00    -0.004 C 
ATOM     21  C   UNL     1      34.650 -16.196 -22.844  0.00  0.00    +0.018 C 
ATOM     22  C   UNL     1      35.162 -16.257 -21.548  0.00  0.00    +0.001 C 
ATOM     23  C   UNL     1      34.571 -17.353 -23.619  0.00  0.00    +0.001 C 
BRANCH  21  25
ATOM     24  N   UNL     1      33.705 -14.995 -24.640  0.00  0.00    -0.244 NA
ATOM     25  C   UNL     1      34.203 -14.931 -23.386  0.00  0.00    +0.081 C 
ATOM     26  C   UNL     1      34.295 -13.768 -22.643  0.00  0.00    +0.019 C 
ATOM     27  C   UNL     1      33.846 -12.588 -23.226  0.00  0.00    +0.003 C 
ATOM     28  C   UNL     1      33.278 -13.829 -25.175  0.00  0.00    +0.099 C 
ATOM     29  C   UNL     1      33.326 -12.611 -24.516  0.00  0.00    +0.021 C 
ENDBRANCH  21  25
ENDBRANCH  17  18
ENDBRANCH   5  17
TORSDOF 5
ENDMDL
MODEL 5
REMARK VINA RESULT:      -9.7      2.419      3.593
REMARK  Name = 491941
REMARK  5 active torsions:
REMARK  status: ('A' for Active; 'I' for Inactive)
REMARK    1  A    between atoms: C_5  and  C_17
REMARK    2  A    between atoms: C_7  and  S_11
REMARK    3  A    between atoms: S_11  and  N_14
REMARK    4  A    between atoms: C_17  and  C_18
REMARK    5  A    between atoms: C_21  and  C_25
REMARK                            x       y       z     vdW  Elec       q    Type
REMARK                         _______ _______ _______ _____ _____    ______ ____
ROOT
ATOM      1  S   UNL     1      34.943 -23.028 -14.451  0.00  0.00    -0.035 S 
ATOM      2  O   UNL     1      34.117 -21.759 -18.585  0.00  0.00    -0.274 OA
ATOM      3  N   UNL     1      35.605 -22.553 -16.943  0.00  0.00    -0.227 N 
ATOM      4  N   UNL     1      33.427 -23.483 -16.496  0.00  0.00    -0.386 NA
ATOM      5  C   UNL     1      35.266 -21.924 -18.166  0.00  0.00    +0.236 C 
ATOM      6  C   UNL     1      34.565 -23.049 -16.100  0.00  0.00    +0.217 C 
ATOM      7  C   UNL     1      33.387 -23.689 -14.166  0.00  0.00    +0.247 C 
ATOM      8  C   UNL     1      32.730 -23.862 -15.366  0.00  0.00    +0.123 C 
ATOM      9  C   UNL     1      37.007 -22.707 -16.522  0.00  0.00    +0.123 C 
ATOM     10  C   UNL     1      31.368 -24.408 -15.536  0.00  0.00    +0.064 C 
ENDROOT
BRANCH   7  11
ATOM     11  S   UNL     1      32.991 -23.991 -12.486  0.00  0.00    +0.052 S 
ATOM     12  O   UNL     1      32.132 -25.171 -12.477  0.00  0.00    -0.157 OA
ATOM     13  O   UNL     1      34.271 -24.004 -11.786  0.00  0.00    -0.157 OA
BRANCH  11  14
ATOM     14  N   UNL     1      32.065 -22.671 -11.888  0.00  0.00    -0.206 NA
ATOM     15  H   UNL     1      32.582 -22.201 -11.146  0.00  0.00    +0.144 HD
ATOM     16  H   UNL     1      31.179 -23.017 -11.520  0.00  0.00    +0.144 HD
ENDBRANCH  11  14
ENDBRANCH   7  11
BRANCH   5  17
ATOM     17  C   UNL     1      36.437 -21.380 -18.994  0.00  0.00    +0.112 C 
BRANCH  17  18
ATOM     18  C   UNL     1      36.053 -20.315 -19.964  0.00  0.00    -0.013 C 
ATOM     19  C   UNL     1      34.805 -20.354 -20.586  0.00  0.00    -0.004 C 
ATOM     20  C   UNL     1      36.942 -19.278 -20.249  0.00  0.00    -0.004 C 
ATOM     21  C   UNL     1      35.334 -18.322 -21.778  0.00  0.00    +0.018 C 
ATOM     22  C   UNL     1      34.445 -19.358 -21.492  0.00  0.00    +0.001 C 
ATOM     23  C   UNL     1      36.582 -18.281 -21.157  0.00  0.00    +0.001 C 
BRANCH  21  25
ATOM     24  N   UNL     1      34.630 -17.732 -23.950  0.00  0.00    -0.244 NA
ATOM     25  C   UNL     1      34.962 -17.287 -22.719  0.00  0.00    +0.081 C 
ATOM     26  C   UNL     1      34.958 -15.955 -22.344  0.00  0.00    +0.019 C 
ATOM     27  C   UNL     1      34.589 -15.014 -23.299  0.00  0.00    +0.003 C 
ATOM     28  C   UNL     1      34.277 -16.788 -24.852  0.00  0.00    +0.099 C 
ATOM     29  C   UNL     1      34.240 -15.430 -24.579  0.00  0.00    +0.021 C 
ENDBRANCH  21  25
ENDBRANCH  17  18
ENDBRANCH   5  17
TORSDOF 5
ENDMDL
MODEL 6
REMARK VINA RESULT:      -9.3      1.869      2.248
REMARK  Name = 491941
REMARK  5 active torsions:
REMARK  status: ('A' for Active; 'I' for Inactive)
REMARK    1  A    between atoms: C_5  and  C_17
REMARK    2  A    between atoms: C_7  and  S_11
REMARK    3  A    between atoms: S_11  and  N_14
REMARK    4  A    between atoms: C_17  and  C_18
REMARK    5  A    between atoms: C_21  and  C_25
REMARK                            x       y       z     vdW  Elec       q    Type
REMARK                         _______ _______ _______ _____ _____    ______ ____
ROOT
ATOM      1  S   UNL     1      36.565 -24.634 -14.241  0.00  0.00    -0.035 S 
ATOM      2  O   UNL     1      32.666 -22.614 -14.539  0.00  0.00    -0.274 OA
ATOM      3  N   UNL     1      34.213 -24.207 -15.318  0.00  0.00    -0.227 N 
ATOM      4  N   UNL     1      34.413 -24.074 -12.920  0.00  0.00    -0.386 NA
ATOM      5  C   UNL     1      33.097 -23.342 -15.437  0.00  0.00    +0.236 C 
ATOM      6  C   UNL     1      34.921 -24.268 -14.080  0.00  0.00    +0.217 C 
ATOM      7  C   UNL     1      36.675 -24.532 -12.533  0.00  0.00    +0.247 C 
ATOM      8  C   UNL     1      35.437 -24.228 -12.007  0.00  0.00    +0.123 C 
ATOM      9  C   UNL     1      34.659 -25.043 -16.445  0.00  0.00    +0.123 C 
ATOM     10  C   UNL     1      35.126 -24.057 -10.573  0.00  0.00    +0.064 C 
ENDROOT
BRANCH   7  11
ATOM     11  S   UNL     1      38.266 -24.828 -11.860  0.00  0.00    +0.052 S 
ATOM     12  O   UNL     1      38.629 -23.617 -11.130  0.00  0.00    -0.157 OA
ATOM     13  O   UNL     1      38.157 -26.105 -11.164  0.00  0.00    -0.157 OA
BRANCH  11  14
ATOM     14  N   UNL     1      39.389 -25.012 -13.150  0.00  0.00    -0.206 NA
ATOM     15  H   UNL     1      39.372 -24.179 -13.737  0.00  0.00    +0.144 HD
ATOM     16  H   UNL     1      39.135 -25.828 -13.708  0.00  0.00    +0.144 HD
ENDBRANCH  11  14
ENDBRANCH   7  11
BRANCH   5  17
ATOM     17  C   UNL     1      32.417 -23.301 -16.812  0.00  0.00    +0.112 C 
BRANCH  17  18
ATOM     18  C   UNL     1      33.115 -22.441 -17.809  0.00  0.00    -0.013 C 
ATOM     19  C   UNL     1      34.508 -22.445 -17.881  0.00  0.00    -0.004 C 
ATOM     20  C   UNL     1      32.374 -21.632 -18.672  0.00  0.00    -0.004 C 
ATOM     21  C   UNL     1      34.421 -20.831 -19.676  0.00  0.00    +0.018 C 
ATOM     22  C   UNL     1      35.161 -21.640 -18.814  0.00  0.00    +0.001 C 
ATOM     23  C   UNL     1      33.028 -20.827 -19.605  0.00  0.00    +0.001 C 
BRANCH  21  25
ATOM     24  N   UNL     1      36.322 -19.569 -20.270  0.00  0.00    -0.244 NA
ATOM     25  C   UNL     1      35.098 -19.996 -20.645  0.00  0.00    +0.081 C 
ATOM     26  C   UNL     1      34.499 -19.684 -21.853  0.00  0.00    +0.019 C 
ATOM     27  C   UNL     1      35.207 -18.877 -22.737  0.00  0.00    +0.003 C 
ATOM     28  C   UNL     1      36.980 -18.786 -21.154  0.00  0.00    +0.099 C 
ATOM     29  C   UNL     1      36.472 -18.415 -22.389  0.00  0.00    +0.021 C 
ENDBRANCH  21  25
ENDBRANCH  17  18
ENDBRANCH   5  17
TORSDOF 5
ENDMDL
MODEL 7
REMARK VINA RESULT:      -9.3     12.687     17.503
REMARK  Name = 491941
REMARK  5 active torsions:
REMARK  status: ('A' for Active; 'I' for Inactive)
REMARK    1  A    between atoms: C_5  and  C_17
REMARK    2  A    between atoms: C_7  and  S_11
REMARK    3  A    between atoms: S_11  and  N_14
REMARK    4  A    between atoms: C_17  and  C_18
REMARK    5  A    between atoms: C_21  and  C_25
REMARK                            x       y       z     vdW  Elec       q    Type
REMARK                         _______ _______ _______ _____ _____    ______ ____
ROOT
ATOM      1  S   UNL     1      34.739  -5.684 -24.603  0.00  0.00    -0.035 S 
ATOM      2  O   UNL     1      30.831  -7.593 -23.926  0.00  0.00    -0.274 OA
ATOM      3  N   UNL     1      32.926  -6.874 -23.130  0.00  0.00    -0.227 N 
ATOM      4  N   UNL     1      32.188  -5.318 -24.815  0.00  0.00    -0.386 NA
ATOM      5  C   UNL     1      31.742  -7.651 -23.095  0.00  0.00    +0.236 C 
ATOM      6  C   UNL     1      33.118  -5.939 -24.192  0.00  0.00    +0.217 C 
ATOM      7  C   UNL     1      34.182  -4.583 -25.793  0.00  0.00    +0.247 C 
ATOM      8  C   UNL     1      32.805  -4.519 -25.757  0.00  0.00    +0.123 C 
ATOM      9  C   UNL     1      33.963  -7.009 -22.094  0.00  0.00    +0.123 C 
ATOM     10  C   UNL     1      31.955  -3.682 -26.628  0.00  0.00    +0.064 C 
ENDROOT
BRANCH   7  11
ATOM     11  S   UNL     1      35.431  -3.811 -26.751  0.00  0.00    +0.052 S 
ATOM     12  O   UNL     1      35.211  -2.373 -26.621  0.00  0.00    -0.157 OA
ATOM     13  O   UNL     1      36.683  -4.410 -26.304  0.00  0.00    -0.157 OA
BRANCH  11  14
ATOM     14  N   UNL     1      35.197  -4.224 -28.404  0.00  0.00    -0.206 NA
ATOM     15  H   UNL     1      34.648  -5.081 -28.466  0.00  0.00    +0.144 HD
ATOM     16  H   UNL     1      36.103  -4.367 -28.850  0.00  0.00    +0.144 HD
ENDBRANCH  11  14
ENDBRANCH   7  11
BRANCH   5  17
ATOM     17  C   UNL     1      31.630  -8.663 -21.947  0.00  0.00    +0.112 C 
BRANCH  17  18
ATOM     18  C   UNL     1      32.166 -10.014 -22.274  0.00  0.00    -0.013 C 
ATOM     19  C   UNL     1      31.791 -11.118 -21.508  0.00  0.00    -0.004 C 
ATOM     20  C   UNL     1      33.043 -10.176 -23.347  0.00  0.00    -0.004 C 
ATOM     21  C   UNL     1      33.170 -12.545 -22.886  0.00  0.00    +0.018 C 
ATOM     22  C   UNL     1      32.292 -12.383 -21.813  0.00  0.00    +0.001 C 
ATOM     23  C   UNL     1      33.545 -11.442 -23.653  0.00  0.00    +0.001 C 
BRANCH  21  25
ATOM     24  N   UNL     1      33.348 -14.323 -24.423  0.00  0.00    -0.244 NA
ATOM     25  C   UNL     1      33.690 -13.857 -23.204  0.00  0.00    +0.081 C 
ATOM     26  C   UNL     1      34.477 -14.546 -22.298  0.00  0.00    +0.019 C 
ATOM     27  C   UNL     1      34.944 -15.803 -22.670  0.00  0.00    +0.003 C 
ATOM     28  C   UNL     1      33.819 -15.548 -24.750  0.00  0.00    +0.099 C 
ATOM     29  C   UNL     1      34.613 -16.320 -23.918  0.00  0.00    +0.021 C 
ENDBRANCH  21  25
ENDBRANCH  17  18
ENDBRANCH   5  17
TORSDOF 5
ENDMDL
MODEL 8
REMARK VINA RESULT:      -9.3      4.278      7.338
REMARK  Name = 491941
REMARK  5 active torsions:
REMARK  status: ('A' for Active; 'I' for Inactive)
REMARK    1  A    between atoms: C_5  and  C_17
REMARK    2  A    between atoms: C_7  and  S_11
REMARK    3  A    between atoms: S_11  and  N_14
REMARK    4  A    between atoms: C_17  and  C_18
REMARK    5  A    between atoms: C_21  and  C_25
REMARK                            x       y       z     vdW  Elec       q    Type
REMARK                         _______ _______ _______ _____ _____    ______ ____
ROOT
ATOM      1  S   UNL     1      37.127 -19.980 -19.170  0.00  0.00    -0.035 S 
ATOM      2  O   UNL     1      33.961 -19.177 -22.120  0.00  0.00    -0.274 OA
ATOM      3  N   UNL     1      36.235 -19.219 -21.514  0.00  0.00    -0.227 N 
ATOM      4  N   UNL     1      35.129 -21.054 -20.411  0.00  0.00    -0.386 NA
ATOM      5  C   UNL     1      35.124 -18.799 -22.287  0.00  0.00    +0.236 C 
ATOM      6  C   UNL     1      36.035 -20.149 -20.451  0.00  0.00    +0.217 C 
ATOM      7  C   UNL     1      36.319 -21.288 -18.411  0.00  0.00    +0.247 C 
ATOM      8  C   UNL     1      35.290 -21.727 -19.217  0.00  0.00    +0.123 C 
ATOM      9  C   UNL     1      37.592 -18.715 -21.785  0.00  0.00    +0.123 C 
ATOM     10  C   UNL     1      34.365 -22.837 -18.910  0.00  0.00    +0.064 C 
ENDROOT
BRANCH   7  11
ATOM     11  S   UNL     1      36.954 -21.762 -16.847  0.00  0.00    +0.052 S 
ATOM     12  O   UNL     1      35.794 -21.978 -15.987  0.00  0.00    -0.157 OA
ATOM     13  O   UNL     1      37.881 -22.853 -17.124  0.00  0.00    -0.157 OA
BRANCH  11  14
ATOM     14  N   UNL     1      37.849 -20.448 -16.190  0.00  0.00    -0.206 NA
ATOM     15  H   UNL     1      38.843 -20.596 -16.361  0.00  0.00    +0.144 HD
ATOM     16  H   UNL     1      37.680 -20.391 -15.186  0.00  0.00    +0.144 HD
ENDBRANCH  11  14
ENDBRANCH   7  11
BRANCH   5  17
ATOM     17  C   UNL     1      35.414 -17.765 -23.383  0.00  0.00    +0.112 C 
BRANCH  17  18
ATOM     18  C   UNL     1      34.783 -16.436 -23.146  0.00  0.00    -0.013 C 
ATOM     19  C   UNL     1      34.113 -15.786 -24.184  0.00  0.00    -0.004 C 
ATOM     20  C   UNL     1      34.861 -15.841 -21.887  0.00  0.00    -0.004 C 
ATOM     21  C   UNL     1      33.602 -13.947 -22.704  0.00  0.00    +0.018 C 
ATOM     22  C   UNL     1      33.523 -14.542 -23.963  0.00  0.00    +0.001 C 
ATOM     23  C   UNL     1      34.270 -14.596 -21.666  0.00  0.00    +0.001 C 
BRANCH  21  25
ATOM     24  N   UNL     1      33.415 -11.672 -23.292  0.00  0.00    -0.244 NA
ATOM     25  C   UNL     1      32.989 -12.657 -22.474  0.00  0.00    +0.081 C 
ATOM     26  C   UNL     1      32.042 -12.489 -21.479  0.00  0.00    +0.019 C 
ATOM     27  C   UNL     1      31.494 -11.221 -21.314  0.00  0.00    +0.003 C 
ATOM     28  C   UNL     1      32.861 -10.453 -23.102  0.00  0.00    +0.099 C 
ATOM     29  C   UNL     1      31.906 -10.179 -22.136  0.00  0.00    +0.021 C 
ENDBRANCH  21  25
ENDBRANCH  17  18
ENDBRANCH   5  17
TORSDOF 5
ENDMDL
MODEL 9
REMARK VINA RESULT:      -9.2      5.749     10.950
REMARK  Name = 491941
REMARK  5 active torsions:
REMARK  status: ('A' for Active; 'I' for Inactive)
REMARK    1  A    between atoms: C_5  and  C_17
REMARK    2  A    between atoms: C_7  and  S_11
REMARK    3  A    between atoms: S_11  and  N_14
REMARK    4  A    between atoms: C_17  and  C_18
REMARK    5  A    between atoms: C_21  and  C_25
REMARK                            x       y       z     vdW  Elec       q    Type
REMARK                         _______ _______ _______ _____ _____    ______ ____
ROOT
ATOM      1  S   UNL     1      34.183 -16.145 -23.791  0.00  0.00    -0.035 S 
ATOM      2  O   UNL     1      34.969 -18.217 -19.988  0.00  0.00    -0.274 OA
ATOM      3  N   UNL     1      35.281 -18.010 -22.312  0.00  0.00    -0.227 N 
ATOM      4  N   UNL     1      35.059 -15.798 -21.383  0.00  0.00    -0.386 NA
ATOM      5  C   UNL     1      35.280 -18.706 -21.078  0.00  0.00    +0.236 C 
ATOM      6  C   UNL     1      34.899 -16.635 -22.339  0.00  0.00    +0.217 C 
ATOM      7  C   UNL     1      34.039 -14.582 -23.102  0.00  0.00    +0.247 C 
ATOM      8  C   UNL     1      34.556 -14.590 -21.823  0.00  0.00    +0.123 C 
ATOM      9  C   UNL     1      35.668 -18.675 -23.567  0.00  0.00    +0.123 C 
ATOM     10  C   UNL     1      34.614 -13.433 -20.907  0.00  0.00    +0.064 C 
ENDROOT
BRANCH   7  11
ATOM     11  S   UNL     1      33.301 -13.369 -24.129  0.00  0.00    +0.052 S 
ATOM     12  O   UNL     1      33.189 -13.972 -25.454  0.00  0.00    -0.157 OA
ATOM     13  O   UNL     1      32.107 -12.934 -23.413  0.00  0.00    -0.157 OA
BRANCH  11  14
ATOM     14  N   UNL     1      34.369 -12.027 -24.259  0.00  0.00    -0.206 NA
ATOM     15  H   UNL     1      34.507 -11.796 -25.242  0.00  0.00    +0.144 HD
ATOM     16  H   UNL     1      35.266 -12.265 -23.836  0.00  0.00    +0.144 HD
ENDBRANCH  11  14
ENDBRANCH   7  11
BRANCH   5  17
ATOM     17  C   UNL     1      35.660 -20.191 -21.139  0.00  0.00    +0.112 C 
BRANCH  17  18
ATOM     18  C   UNL     1      35.342 -20.951 -19.897  0.00  0.00    -0.013 C 
ATOM     19  C   UNL     1      36.360 -21.288 -19.004  0.00  0.00    -0.004 C 
ATOM     20  C   UNL     1      34.026 -21.326 -19.626  0.00  0.00    -0.004 C 
ATOM     21  C   UNL     1      34.747 -22.374 -17.572  0.00  0.00    +0.018 C 
ATOM     22  C   UNL     1      36.063 -21.999 -17.842  0.00  0.00    +0.001 C 
ATOM     23  C   UNL     1      33.728 -22.038 -18.464  0.00  0.00    +0.001 C 
BRANCH  21  25
ATOM     24  N   UNL     1      35.492 -23.728 -15.791  0.00  0.00    -0.244 NA
ATOM     25  C   UNL     1      34.437 -23.112 -16.366  0.00  0.00    +0.081 C 
ATOM     26  C   UNL     1      33.145 -23.155 -15.874  0.00  0.00    +0.019 C 
ATOM     27  C   UNL     1      32.919 -23.882 -14.710  0.00  0.00    +0.003 C 
ATOM     28  C   UNL     1      35.234 -24.426 -14.662  0.00  0.00    +0.099 C 
ATOM     29  C   UNL     1      33.978 -24.533 -14.086  0.00  0.00    +0.021 C 
ENDBRANCH  21  25
ENDBRANCH  17  18
ENDBRANCH   5  17
TORSDOF 5
ENDMDL
