MODEL 1
REMARK VINA RESULT:     -12.2      0.000      0.000
REMARK  Name = 5288711
REMARK  4 active torsions:
REMARK  status: ('A' for Active; 'I' for Inactive)
REMARK    1  A    between atoms: C_1  and  S_7
REMARK    2  A    between atoms: C_2  and  N_17
REMARK    3  A    between atoms: S_7  and  N_11
REMARK    4  A    between atoms: N_17  and  C_25
REMARK                            x       y       z     vdW  Elec       q    Type
REMARK                         _______ _______ _______ _____ _____    ______ ____
ROOT
ATOM      1  C   UNL     1      34.355 -21.906 -18.751  0.00  0.00    +0.125 C 
ATOM      2  C   UNL     1      35.421 -19.967 -20.459  0.00  0.00    +0.048 C 
ATOM      3  C   UNL     1      33.507 -21.124 -19.535  0.00  0.00    +0.021 C 
ATOM      4  C   UNL     1      35.736 -21.721 -18.820  0.00  0.00    +0.021 C 
ATOM      5  C   UNL     1      34.038 -20.157 -20.387  0.00  0.00    +0.016 C 
ATOM      6  C   UNL     1      36.268 -20.753 -19.672  0.00  0.00    +0.016 C 
ENDROOT
BRANCH   1   7
ATOM      7  S   UNL     1      33.690 -23.117 -17.683  0.00  0.00    +0.075 S 
ATOM      8  O   UNL     1      33.427 -24.322 -18.460  0.00  0.00    -0.150 OA
ATOM      9  O   UNL     1      34.552 -23.194 -16.510  0.00  0.00    -0.150 OA
BRANCH   7  11
ATOM     10  S   UNL     1      29.787 -23.203 -16.127  0.00  0.00    -0.050 S 
ATOM     11  N   UNL     1      32.190 -22.396 -17.256  0.00  0.00    -0.194 N 
ATOM     12  N   UNL     1      32.131 -23.417 -15.059  0.00  0.00    -0.221 NA
ATOM     13  C   UNL     1      31.480 -23.009 -16.112  0.00  0.00    +0.179 C 
ATOM     14  C   UNL     1      29.897 -23.910 -14.568  0.00  0.00    +0.059 C 
ATOM     15  C   UNL     1      31.216 -23.938 -14.166  0.00  0.00    +0.108 C 
ATOM     16  H   UNL     1      31.825 -21.621 -17.743  0.00  0.00    +0.176 HD
ENDBRANCH   7  11
ENDBRANCH   1   7
BRANCH   2  17
ATOM     17  N   UNL     1      35.957 -18.992 -21.317  0.00  0.00    -0.311 N 
ATOM     18  H   UNL     1      36.705 -19.288 -21.885  0.00  0.00    +0.152 HD
BRANCH  17  25
ATOM     19  O   UNL     1      34.840 -19.067 -23.992  0.00  0.00    -0.270 OA
ATOM     20  N   UNL     1      34.061 -16.922 -24.605  0.00  0.00    -0.280 N 
ATOM     21  C   UNL     1      34.583 -15.741 -22.701  0.00  0.00    +0.019 C 
ATOM     22  C   UNL     1      34.994 -17.131 -22.525  0.00  0.00    +0.069 C 
ATOM     23  C   UNL     1      34.023 -15.670 -23.980  0.00  0.00    +0.051 C 
ATOM     24  C   UNL     1      34.646 -17.885 -23.776  0.00  0.00    +0.251 C 
ATOM     25  C   UNL     1      35.579 -17.697 -21.468  0.00  0.00    +0.066 C 
ATOM     26  C   UNL     1      34.653 -14.619 -21.898  0.00  0.00    +0.001 C 
ATOM     27  C   UNL     1      33.518 -14.496 -24.502  0.00  0.00    +0.015 C 
ATOM     28  C   UNL     1      34.147 -13.418 -22.406  0.00  0.00    +0.000 C 
ATOM     29  C   UNL     1      33.585 -13.357 -23.695  0.00  0.00    +0.001 C 
ATOM     30  H   UNL     1      33.720 -17.102 -25.510  0.00  0.00    +0.155 HD
ENDBRANCH  17  25
ENDBRANCH   2  17
TORSDOF 4
ENDMDL
MODEL 2
REMARK VINA RESULT:     -11.3      2.732      9.636
REMARK  Name = 5288711
REMARK  4 active torsions:
REMARK  status: ('A' for Active; 'I' for Inactive)
REMARK    1  A    between atoms: C_1  and  S_7
REMARK    2  A    between atoms: C_2  and  N_17
REMARK    3  A    between atoms: S_7  and  N_11
REMARK    4  A    between atoms: N_17  and  C_25
REMARK                            x       y       z     vdW  Elec       q    Type
REMARK                         _______ _______ _______ _____ _____    ______ ____
ROOT
ATOM      1  C   UNL     1      35.591 -19.849 -20.248  0.00  0.00    +0.125 C 
ATOM      2  C   UNL     1      34.434 -22.117 -19.092  0.00  0.00    +0.048 C 
ATOM      3  C   UNL     1      36.389 -20.771 -19.571  0.00  0.00    +0.021 C 
ATOM      4  C   UNL     1      34.216 -20.059 -20.349  0.00  0.00    +0.021 C 
ATOM      5  C   UNL     1      35.812 -21.903 -18.995  0.00  0.00    +0.016 C 
ATOM      6  C   UNL     1      33.638 -21.191 -19.773  0.00  0.00    +0.016 C 
ENDROOT
BRANCH   1   7
ATOM      7  S   UNL     1      36.312 -18.432 -20.969  0.00  0.00    +0.075 S 
ATOM      8  O   UNL     1      35.636 -17.252 -20.444  0.00  0.00    -0.150 OA
ATOM      9  O   UNL     1      37.758 -18.552 -20.829  0.00  0.00    -0.150 OA
BRANCH   7  11
ATOM     10  S   UNL     1      33.869 -17.735 -24.318  0.00  0.00    -0.050 S 
ATOM     11  N   UNL     1      35.869 -18.636 -22.617  0.00  0.00    -0.194 N 
ATOM     12  N   UNL     1      35.534 -16.265 -22.996  0.00  0.00    -0.221 NA
ATOM     13  C   UNL     1      35.171 -17.492 -23.245  0.00  0.00    +0.179 C 
ATOM     14  C   UNL     1      33.749 -16.033 -24.490  0.00  0.00    +0.059 C 
ATOM     15  C   UNL     1      34.712 -15.421 -23.715  0.00  0.00    +0.108 C 
ATOM     16  H   UNL     1      36.067 -19.462 -23.114  0.00  0.00    +0.176 HD
ENDBRANCH   7  11
ENDBRANCH   1   7
BRANCH   2  17
ATOM     17  N   UNL     1      33.854 -23.257 -18.512  0.00  0.00    -0.311 N 
ATOM     18  H   UNL     1      34.189 -24.122 -18.842  0.00  0.00    +0.152 HD
BRANCH  17  25
ATOM     19  O   UNL     1      35.484 -23.370 -16.117  0.00  0.00    -0.270 OA
ATOM     20  N   UNL     1      34.105 -23.497 -14.203  0.00  0.00    -0.280 N 
ATOM     21  C   UNL     1      32.030 -23.469 -15.195  0.00  0.00    +0.019 C 
ATOM     22  C   UNL     1      33.054 -23.396 -16.234  0.00  0.00    +0.069 C 
ATOM     23  C   UNL     1      32.723 -23.529 -13.983  0.00  0.00    +0.051 C 
ATOM     24  C   UNL     1      34.400 -23.416 -15.568  0.00  0.00    +0.251 C 
ATOM     25  C   UNL     1      32.892 -23.324 -17.556  0.00  0.00    +0.066 C 
ATOM     26  C   UNL     1      30.649 -23.488 -15.221  0.00  0.00    +0.001 C 
ATOM     27  C   UNL     1      32.077 -23.607 -12.765  0.00  0.00    +0.015 C 
ATOM     28  C   UNL     1      29.973 -23.567 -13.998  0.00  0.00    +0.000 C 
ATOM     29  C   UNL     1      30.681 -23.625 -12.783  0.00  0.00    +0.001 C 
ATOM     30  H   UNL     1      34.782 -23.528 -13.490  0.00  0.00    +0.155 HD
ENDBRANCH  17  25
ENDBRANCH   2  17
TORSDOF 4
ENDMDL
MODEL 3
REMARK VINA RESULT:     -11.0      4.820      9.848
REMARK  Name = 5288711
REMARK  4 active torsions:
REMARK  status: ('A' for Active; 'I' for Inactive)
REMARK    1  A    between atoms: C_1  and  S_7
REMARK    2  A    between atoms: C_2  and  N_17
REMARK    3  A    between atoms: S_7  and  N_11
REMARK    4  A    between atoms: N_17  and  C_25
REMARK                            x       y       z     vdW  Elec       q    Type
REMARK                         _______ _______ _______ _____ _____    ______ ____
ROOT
ATOM      1  C   UNL     1      34.018 -14.174 -23.604  0.00  0.00    +0.125 C 
ATOM      2  C   UNL     1      34.812 -16.812 -23.129  0.00  0.00    +0.048 C 
ATOM      3  C   UNL     1      34.544 -14.532 -22.363  0.00  0.00    +0.021 C 
ATOM      4  C   UNL     1      33.888 -15.133 -24.608  0.00  0.00    +0.021 C 
ATOM      5  C   UNL     1      34.941 -15.847 -22.126  0.00  0.00    +0.016 C 
ATOM      6  C   UNL     1      34.285 -16.449 -24.373  0.00  0.00    +0.016 C 
ENDROOT
BRANCH   1   7
ATOM      7  S   UNL     1      33.520 -12.527 -23.901  0.00  0.00    +0.075 S 
ATOM      8  O   UNL     1      34.588 -11.637 -23.462  0.00  0.00    -0.150 OA
ATOM      9  O   UNL     1      33.042 -12.450 -25.275  0.00  0.00    -0.150 OA
BRANCH   7  11
ATOM     10  S   UNL     1      31.627 -11.016 -20.466  0.00  0.00    -0.050 S 
ATOM     11  N   UNL     1      32.196 -12.379 -22.815  0.00  0.00    -0.194 N 
ATOM     12  N   UNL     1      32.327  -9.961 -22.719  0.00  0.00    -0.221 NA
ATOM     13  C   UNL     1      32.082 -11.085 -22.107  0.00  0.00    +0.179 C 
ATOM     14  C   UNL     1      31.761  -9.308 -20.544  0.00  0.00    +0.059 C 
ATOM     15  C   UNL     1      32.141  -8.932 -21.816  0.00  0.00    +0.108 C 
ATOM     16  H   UNL     1      31.551 -13.110 -22.674  0.00  0.00    +0.176 HD
ENDBRANCH   7  11
ENDBRANCH   1   7
BRANCH   2  17
ATOM     17  N   UNL     1      35.211 -18.137 -22.891  0.00  0.00    -0.311 N 
ATOM     18  H   UNL     1      35.962 -18.462 -23.438  0.00  0.00    +0.152 HD
BRANCH  17  25
ATOM     19  O   UNL     1      37.556 -18.701 -21.282  0.00  0.00    -0.270 OA
ATOM     20  N   UNL     1      37.022 -20.262 -19.590  0.00  0.00    -0.280 N 
ATOM     21  C   UNL     1      34.795 -20.608 -20.046  0.00  0.00    +0.019 C 
ATOM     22  C   UNL     1      35.331 -19.647 -21.004  0.00  0.00    +0.069 C 
ATOM     23  C   UNL     1      35.863 -20.948 -19.211  0.00  0.00    +0.051 C 
ATOM     24  C   UNL     1      36.784 -19.434 -20.693  0.00  0.00    +0.251 C 
ATOM     25  C   UNL     1      34.700 -19.030 -22.005  0.00  0.00    +0.066 C 
ATOM     26  C   UNL     1      33.545 -21.167 -19.857  0.00  0.00    +0.001 C 
ATOM     27  C   UNL     1      35.731 -21.846 -18.170  0.00  0.00    +0.015 C 
ATOM     28  C   UNL     1      33.389 -22.079 -18.807  0.00  0.00    +0.000 C 
ATOM     29  C   UNL     1      34.471 -22.415 -17.973  0.00  0.00    +0.001 C 
ATOM     30  H   UNL     1      37.893 -20.351 -19.141  0.00  0.00    +0.155 HD
ENDBRANCH  17  25
ENDBRANCH   2  17
TORSDOF 4
ENDMDL
MODEL 4
REMARK VINA RESULT:     -11.0      1.605      1.997
REMARK  Name = 5288711
REMARK  4 active torsions:
REMARK  status: ('A' for Active; 'I' for Inactive)
REMARK    1  A    between atoms: C_1  and  S_7
REMARK    2  A    between atoms: C_2  and  N_17
REMARK    3  A    between atoms: S_7  and  N_11
REMARK    4  A    between atoms: N_17  and  C_25
REMARK                            x       y       z     vdW  Elec       q    Type
REMARK                         _______ _______ _______ _____ _____    ______ ____
ROOT
ATOM      1  C   UNL     1      34.370 -21.861 -18.726  0.00  0.00    +0.125 C 
ATOM      2  C   UNL     1      35.417 -19.939 -20.465  0.00  0.00    +0.048 C 
ATOM      3  C   UNL     1      33.515 -21.110 -19.533  0.00  0.00    +0.021 C 
ATOM      4  C   UNL     1      35.747 -21.654 -18.788  0.00  0.00    +0.021 C 
ATOM      5  C   UNL     1      34.037 -20.152 -20.401  0.00  0.00    +0.016 C 
ATOM      6  C   UNL     1      36.271 -20.695 -19.656  0.00  0.00    +0.016 C 
ENDROOT
BRANCH   1   7
ATOM      7  S   UNL     1      33.716 -23.061 -17.640  0.00  0.00    +0.075 S 
ATOM      8  O   UNL     1      32.623 -22.457 -16.888  0.00  0.00    -0.150 OA
ATOM      9  O   UNL     1      33.471 -24.272 -18.413  0.00  0.00    -0.150 OA
BRANCH   7  11
ATOM     10  S   UNL     1      35.566 -23.049 -13.866  0.00  0.00    -0.050 S 
ATOM     11  N   UNL     1      35.046 -23.308 -16.579  0.00  0.00    -0.194 N 
ATOM     12  N   UNL     1      33.732 -24.519 -14.941  0.00  0.00    -0.221 NA
ATOM     13  C   UNL     1      34.703 -23.686 -15.190  0.00  0.00    +0.179 C 
ATOM     14  C   UNL     1      34.557 -23.964 -12.823  0.00  0.00    +0.059 C 
ATOM     15  C   UNL     1      33.647 -24.681 -13.572  0.00  0.00    +0.108 C 
ATOM     16  H   UNL     1      35.979 -23.206 -16.877  0.00  0.00    +0.176 HD
ENDBRANCH   7  11
ENDBRANCH   1   7
BRANCH   2  17
ATOM     17  N   UNL     1      35.943 -18.973 -21.339  0.00  0.00    -0.311 N 
ATOM     18  H   UNL     1      36.681 -19.276 -21.917  0.00  0.00    +0.152 HD
BRANCH  17  25
ATOM     19  O   UNL     1      34.822 -19.052 -24.012  0.00  0.00    -0.270 OA
ATOM     20  N   UNL     1      34.048 -16.907 -24.630  0.00  0.00    -0.280 N 
ATOM     21  C   UNL     1      34.578 -15.723 -22.731  0.00  0.00    +0.019 C 
ATOM     22  C   UNL     1      34.984 -17.113 -22.551  0.00  0.00    +0.069 C 
ATOM     23  C   UNL     1      34.015 -15.653 -24.009  0.00  0.00    +0.051 C 
ATOM     24  C   UNL     1      34.632 -17.870 -23.799  0.00  0.00    +0.251 C 
ATOM     25  C   UNL     1      35.570 -17.678 -21.494  0.00  0.00    +0.066 C 
ATOM     26  C   UNL     1      34.653 -14.598 -21.931  0.00  0.00    +0.001 C 
ATOM     27  C   UNL     1      33.514 -14.479 -24.533  0.00  0.00    +0.015 C 
ATOM     28  C   UNL     1      34.150 -13.397 -22.442  0.00  0.00    +0.000 C 
ATOM     29  C   UNL     1      33.586 -13.338 -23.730  0.00  0.00    +0.001 C 
ATOM     30  H   UNL     1      33.706 -17.089 -25.534  0.00  0.00    +0.155 HD
ENDBRANCH  17  25
ENDBRANCH   2  17
TORSDOF 4
ENDMDL
MODEL 5
REMARK VINA RESULT:     -11.0      3.789      6.760
REMARK  Name = 5288711
REMARK  4 active torsions:
REMARK  status: ('A' for Active; 'I' for Inactive)
REMARK    1  A    between atoms: C_1  and  S_7
REMARK    2  A    between atoms: C_2  and  N_17
REMARK    3  A    between atoms: S_7  and  N_11
REMARK    4  A    between atoms: N_17  and  C_25
REMARK                            x       y       z     vdW  Elec       q    Type
REMARK                         _______ _______ _______ _____ _____    ______ ____
ROOT
ATOM      1  C   UNL     1      34.991 -16.882 -22.817  0.00  0.00    +0.125 C 
ATOM      2  C   UNL     1      33.834 -14.521 -23.769  0.00  0.00    +0.048 C 
ATOM      3  C   UNL     1      34.916 -15.759 -21.992  0.00  0.00    +0.021 C 
ATOM      4  C   UNL     1      34.487 -16.826 -24.116  0.00  0.00    +0.021 C 
ATOM      5  C   UNL     1      34.339 -14.582 -22.467  0.00  0.00    +0.016 C 
ATOM      6  C   UNL     1      33.910 -15.649 -24.592  0.00  0.00    +0.016 C 
ENDROOT
BRANCH   1   7
ATOM      7  S   UNL     1      35.714 -18.356 -22.224  0.00  0.00    +0.075 S 
ATOM      8  O   UNL     1      35.562 -19.387 -23.243  0.00  0.00    -0.150 OA
ATOM      9  O   UNL     1      37.045 -18.028 -21.729  0.00  0.00    -0.150 OA
BRANCH   7  11
ATOM     10  S   UNL     1      33.744 -21.003 -19.620  0.00  0.00    -0.050 S 
ATOM     11  N   UNL     1      34.678 -18.727 -20.904  0.00  0.00    -0.194 N 
ATOM     12  N   UNL     1      36.219 -20.319 -19.922  0.00  0.00    -0.221 NA
ATOM     13  C   UNL     1      34.986 -19.973 -20.170  0.00  0.00    +0.179 C 
ATOM     14  C   UNL     1      34.948 -22.039 -18.973  0.00  0.00    +0.059 C 
ATOM     15  C   UNL     1      36.197 -21.514 -19.230  0.00  0.00    +0.108 C 
ATOM     16  H   UNL     1      33.925 -18.145 -20.651  0.00  0.00    +0.176 HD
ENDBRANCH   7  11
ENDBRANCH   1   7
BRANCH   2  17
ATOM     17  N   UNL     1      33.253 -13.335 -24.246  0.00  0.00    -0.311 N 
ATOM     18  H   UNL     1      32.393 -13.439 -24.714  0.00  0.00    +0.152 HD
BRANCH  17  25
ATOM     19  O   UNL     1      31.522 -12.287 -22.169  0.00  0.00    -0.270 OA
ATOM     20  N   UNL     1      32.063 -10.031 -21.725  0.00  0.00    -0.280 N 
ATOM     21  C   UNL     1      33.784  -9.725 -23.220  0.00  0.00    +0.019 C 
ATOM     22  C   UNL     1      33.293 -11.094 -23.336  0.00  0.00    +0.069 C 
ATOM     23  C   UNL     1      33.003  -9.124 -22.228  0.00  0.00    +0.051 C 
ATOM     24  C   UNL     1      32.172 -11.276 -22.355  0.00  0.00    +0.251 C 
ATOM     25  C   UNL     1      33.719 -12.064 -24.148  0.00  0.00    +0.066 C 
ATOM     26  C   UNL     1      34.781  -9.014 -23.860  0.00  0.00    +0.001 C 
ATOM     27  C   UNL     1      33.181  -7.811 -21.841  0.00  0.00    +0.015 C 
ATOM     28  C   UNL     1      34.979  -7.681 -23.483  0.00  0.00    +0.000 C 
ATOM     29  C   UNL     1      34.187  -7.086 -22.484  0.00  0.00    +0.001 C 
ATOM     30  H   UNL     1      31.410  -9.821 -21.020  0.00  0.00    +0.155 HD
ENDBRANCH  17  25
ENDBRANCH   2  17
TORSDOF 4
ENDMDL
MODEL 6
REMARK VINA RESULT:     -10.9      7.612     12.487
REMARK  Name = 5288711
REMARK  4 active torsions:
REMARK  status: ('A' for Active; 'I' for Inactive)
REMARK    1  A    between atoms: C_1  and  S_7
REMARK    2  A    between atoms: C_2  and  N_17
REMARK    3  A    between atoms: S_7  and  N_11
REMARK    4  A    between atoms: N_17  and  C_25
REMARK                            x       y       z     vdW  Elec       q    Type
REMARK                         _______ _______ _______ _____ _____    ______ ____
ROOT
ATOM      1  C   UNL     1      32.522  -9.436 -22.443  0.00  0.00    +0.125 C 
ATOM      2  C   UNL     1      33.429 -11.960 -23.233  0.00  0.00    +0.048 C 
ATOM      3  C   UNL     1      33.523  -9.548 -23.408  0.00  0.00    +0.021 C 
ATOM      4  C   UNL     1      31.974 -10.584 -21.872  0.00  0.00    +0.021 C 
ATOM      5  C   UNL     1      33.975 -10.806 -23.803  0.00  0.00    +0.016 C 
ATOM      6  C   UNL     1      32.425 -11.844 -22.266  0.00  0.00    +0.016 C 
ENDROOT
BRANCH   1   7
ATOM      7  S   UNL     1      31.956  -7.860 -21.948  0.00  0.00    +0.075 S 
ATOM      8  O   UNL     1      30.683  -7.599 -22.608  0.00  0.00    -0.150 OA
ATOM      9  O   UNL     1      32.037  -7.797 -20.494  0.00  0.00    -0.150 OA
BRANCH   7  11
ATOM     10  S   UNL     1      33.252  -4.741 -24.450  0.00  0.00    -0.050 S 
ATOM     11  N   UNL     1      33.156  -6.843 -22.641  0.00  0.00    -0.194 N 
ATOM     12  N   UNL     1      31.900  -4.808 -22.247  0.00  0.00    -0.221 NA
ATOM     13  C   UNL     1      32.714  -5.481 -23.012  0.00  0.00    +0.179 C 
ATOM     14  C   UNL     1      32.313  -3.365 -24.042  0.00  0.00    +0.059 C 
ATOM     15  C   UNL     1      31.668  -3.584 -22.843  0.00  0.00    +0.108 C 
ATOM     16  H   UNL     1      34.082  -7.148 -22.782  0.00  0.00    +0.176 HD
ENDBRANCH   7  11
ENDBRANCH   1   7
BRANCH   2  17
ATOM     17  N   UNL     1      33.884 -13.228 -23.630  0.00  0.00    -0.311 N 
ATOM     18  H   UNL     1      33.891 -13.395 -24.600  0.00  0.00    +0.152 HD
BRANCH  17  25
ATOM     19  O   UNL     1      33.799 -15.414 -25.533  0.00  0.00    -0.270 OA
ATOM     20  N   UNL     1      34.507 -17.416 -24.499  0.00  0.00    -0.280 N 
ATOM     21  C   UNL     1      34.948 -16.644 -22.378  0.00  0.00    +0.019 C 
ATOM     22  C   UNL     1      34.484 -15.531 -23.201  0.00  0.00    +0.069 C 
ATOM     23  C   UNL     1      34.943 -17.764 -23.215  0.00  0.00    +0.051 C 
ATOM     24  C   UNL     1      34.201 -16.053 -24.580  0.00  0.00    +0.251 C 
ATOM     25  C   UNL     1      34.317 -14.254 -22.854  0.00  0.00    +0.066 C 
ATOM     26  C   UNL     1      35.344 -16.751 -21.058  0.00  0.00    +0.001 C 
ATOM     27  C   UNL     1      35.326 -19.016 -22.778  0.00  0.00    +0.015 C 
ATOM     28  C   UNL     1      35.736 -18.011 -20.593  0.00  0.00    +0.000 C 
ATOM     29  C   UNL     1      35.728 -19.132 -21.445  0.00  0.00    +0.001 C 
ATOM     30  H   UNL     1      34.426 -18.049 -25.248  0.00  0.00    +0.155 HD
ENDBRANCH  17  25
ENDBRANCH   2  17
TORSDOF 4
ENDMDL
MODEL 7
REMARK VINA RESULT:     -10.8      4.503      6.475
REMARK  Name = 5288711
REMARK  4 active torsions:
REMARK  status: ('A' for Active; 'I' for Inactive)
REMARK    1  A    between atoms: C_1  and  S_7
REMARK    2  A    between atoms: C_2  and  N_17
REMARK    3  A    between atoms: S_7  and  N_11
REMARK    4  A    between atoms: N_17  and  C_25
REMARK                            x       y       z     vdW  Elec       q    Type
REMARK                         _______ _______ _______ _____ _____    ______ ____
ROOT
ATOM      1  C   UNL     1      36.321 -23.424 -13.710  0.00  0.00    +0.125 C 
ATOM      2  C   UNL     1      35.466 -22.804 -16.299  0.00  0.00    +0.048 C 
ATOM      3  C   UNL     1      37.176 -22.756 -14.586  0.00  0.00    +0.021 C 
ATOM      4  C   UNL     1      35.039 -23.782 -14.126  0.00  0.00    +0.021 C 
ATOM      5  C   UNL     1      36.750 -22.446 -15.877  0.00  0.00    +0.016 C 
ATOM      6  C   UNL     1      34.611 -23.472 -15.417  0.00  0.00    +0.016 C 
ENDROOT
BRANCH   1   7
ATOM      7  S   UNL     1      36.854 -23.813 -12.094  0.00  0.00    +0.075 S 
ATOM      8  O   UNL     1      38.014 -22.988 -11.780  0.00  0.00    -0.150 OA
ATOM      9  O   UNL     1      35.687 -23.772 -11.221  0.00  0.00    -0.150 OA
BRANCH   7  11
ATOM     10  S   UNL     1      38.525 -26.979 -14.295  0.00  0.00    -0.050 S 
ATOM     11  N   UNL     1      37.371 -25.440 -12.296  0.00  0.00    -0.194 N 
ATOM     12  N   UNL     1      39.503 -24.819 -13.266  0.00  0.00    -0.221 NA
ATOM     13  C   UNL     1      38.498 -25.648 -13.231  0.00  0.00    +0.179 C 
ATOM     14  C   UNL     1      40.035 -26.420 -14.888  0.00  0.00    +0.059 C 
ATOM     15  C   UNL     1      40.393 -25.265 -14.224  0.00  0.00    +0.108 C 
ATOM     16  H   UNL     1      36.944 -26.187 -11.818  0.00  0.00    +0.176 HD
ENDBRANCH   7  11
ENDBRANCH   1   7
BRANCH   2  17
ATOM     17  N   UNL     1      35.038 -22.492 -17.599  0.00  0.00    -0.311 N 
ATOM     18  H   UNL     1      34.229 -22.962 -17.907  0.00  0.00    +0.152 HD
BRANCH  17  25
ATOM     19  O   UNL     1      32.717 -21.811 -19.198  0.00  0.00    -0.270 OA
ATOM     20  N   UNL     1      33.322 -20.281 -20.894  0.00  0.00    -0.280 N 
ATOM     21  C   UNL     1      35.566 -20.049 -20.450  0.00  0.00    +0.019 C 
ATOM     22  C   UNL     1      34.986 -20.980 -19.487  0.00  0.00    +0.069 C 
ATOM     23  C   UNL     1      34.513 -19.656 -21.280  0.00  0.00    +0.051 C 
ATOM     24  C   UNL     1      33.522 -21.119 -19.792  0.00  0.00    +0.251 C 
ATOM     25  C   UNL     1      35.590 -21.628 -18.489  0.00  0.00    +0.066 C 
ATOM     26  C   UNL     1      36.842 -19.556 -20.646  0.00  0.00    +0.001 C 
ATOM     27  C   UNL     1      34.685 -18.768 -22.324  0.00  0.00    +0.015 C 
ATOM     28  C   UNL     1      37.040 -18.654 -21.698  0.00  0.00    +0.000 C 
ATOM     29  C   UNL     1      35.972 -18.265 -22.528  0.00  0.00    +0.001 C 
ATOM     30  H   UNL     1      32.455 -20.149 -21.340  0.00  0.00    +0.155 HD
ENDBRANCH  17  25
ENDBRANCH   2  17
TORSDOF 4
ENDMDL
MODEL 8
REMARK VINA RESULT:     -10.7      2.763      9.949
REMARK  Name = 5288711
REMARK  4 active torsions:
REMARK  status: ('A' for Active; 'I' for Inactive)
REMARK    1  A    between atoms: C_1  and  S_7
REMARK    2  A    between atoms: C_2  and  N_17
REMARK    3  A    between atoms: S_7  and  N_11
REMARK    4  A    between atoms: N_17  and  C_25
REMARK                            x       y       z     vdW  Elec       q    Type
REMARK                         _______ _______ _______ _____ _____    ______ ____
ROOT
ATOM      1  C   UNL     1      35.639 -19.871 -20.681  0.00  0.00    +0.125 C 
ATOM      2  C   UNL     1      35.129 -21.737 -18.663  0.00  0.00    +0.048 C 
ATOM      3  C   UNL     1      36.695 -20.417 -19.953  0.00  0.00    +0.021 C 
ATOM      4  C   UNL     1      34.328 -20.256 -20.403  0.00  0.00    +0.021 C 
ATOM      5  C   UNL     1      36.442 -21.348 -18.946  0.00  0.00    +0.016 C 
ATOM      6  C   UNL     1      34.073 -21.188 -19.396  0.00  0.00    +0.016 C 
ENDROOT
BRANCH   1   7
ATOM      7  S   UNL     1      35.956 -18.705 -21.942  0.00  0.00    +0.075 S 
ATOM      8  O   UNL     1      37.356 -18.310 -21.862  0.00  0.00    -0.150 OA
ATOM      9  O   UNL     1      35.433 -19.249 -23.189  0.00  0.00    -0.150 OA
BRANCH   7  11
ATOM     10  S   UNL     1      34.620 -14.724 -22.121  0.00  0.00    -0.050 S 
ATOM     11  N   UNL     1      34.979 -17.387 -21.428  0.00  0.00    -0.194 N 
ATOM     12  N   UNL     1      34.338 -16.766 -23.681  0.00  0.00    -0.221 NA
ATOM     13  C   UNL     1      34.637 -16.392 -22.469  0.00  0.00    +0.179 C 
ATOM     14  C   UNL     1      34.166 -14.433 -23.749  0.00  0.00    +0.059 C 
ATOM     15  C   UNL     1      34.065 -15.633 -24.423  0.00  0.00    +0.108 C 
ATOM     16  H   UNL     1      34.666 -17.299 -20.499  0.00  0.00    +0.176 HD
ENDBRANCH   7  11
ENDBRANCH   1   7
BRANCH   2  17
ATOM     17  N   UNL     1      34.874 -22.674 -17.648  0.00  0.00    -0.311 N 
ATOM     18  H   UNL     1      35.621 -23.275 -17.424  0.00  0.00    +0.152 HD
BRANCH  17  25
ATOM     19  O   UNL     1      35.873 -24.276 -15.448  0.00  0.00    -0.270 OA
ATOM     20  N   UNL     1      34.112 -24.804 -13.965  0.00  0.00    -0.280 N 
ATOM     21  C   UNL     1      32.362 -23.749 -15.020  0.00  0.00    +0.019 C 
ATOM     22  C   UNL     1      33.580 -23.539 -15.796  0.00  0.00    +0.069 C 
ATOM     23  C   UNL     1      32.742 -24.523 -13.919  0.00  0.00    +0.051 C 
ATOM     24  C   UNL     1      34.710 -24.234 -15.094  0.00  0.00    +0.251 C 
ATOM     25  C   UNL     1      33.734 -22.862 -16.936  0.00  0.00    +0.066 C 
ATOM     26  C   UNL     1      31.049 -23.350 -15.184  0.00  0.00    +0.001 C 
ATOM     27  C   UNL     1      31.842 -24.924 -12.953  0.00  0.00    +0.015 C 
ATOM     28  C   UNL     1      30.120 -23.746 -14.215  0.00  0.00    +0.000 C 
ATOM     29  C   UNL     1      30.513 -24.525 -13.111  0.00  0.00    +0.001 C 
ATOM     30  H   UNL     1      34.593 -25.335 -13.290  0.00  0.00    +0.155 HD
ENDBRANCH  17  25
ENDBRANCH   2  17
TORSDOF 4
ENDMDL
MODEL 9
REMARK VINA RESULT:     -10.6      3.477      4.521
REMARK  Name = 5288711
REMARK  4 active torsions:
REMARK  status: ('A' for Active; 'I' for Inactive)
REMARK    1  A    between atoms: C_1  and  S_7
REMARK    2  A    between atoms: C_2  and  N_17
REMARK    3  A    between atoms: S_7  and  N_11
REMARK    4  A    between atoms: N_17  and  C_25
REMARK                            x       y       z     vdW  Elec       q    Type
REMARK                         _______ _______ _______ _____ _____    ______ ____
ROOT
ATOM      1  C   UNL     1      35.004 -23.082 -16.106  0.00  0.00    +0.125 C 
ATOM      2  C   UNL     1      35.900 -21.662 -18.342  0.00  0.00    +0.048 C 
ATOM      3  C   UNL     1      34.165 -22.913 -17.208  0.00  0.00    +0.021 C 
ATOM      4  C   UNL     1      36.290 -22.543 -16.120  0.00  0.00    +0.021 C 
ATOM      5  C   UNL     1      34.612 -22.206 -18.323  0.00  0.00    +0.016 C 
ATOM      6  C   UNL     1      36.738 -21.835 -17.236  0.00  0.00    +0.016 C 
ENDROOT
BRANCH   1   7
ATOM      7  S   UNL     1      34.444 -23.968 -14.709  0.00  0.00    +0.075 S 
ATOM      8  O   UNL     1      32.998 -23.815 -14.615  0.00  0.00    -0.150 OA
ATOM      9  O   UNL     1      35.022 -25.304 -14.773  0.00  0.00    -0.150 OA
BRANCH   7  11
ATOM     10  S   UNL     1      36.551 -23.630 -11.088  0.00  0.00    -0.050 S 
ATOM     11  N   UNL     1      35.178 -23.077 -13.435  0.00  0.00    -0.194 N 
ATOM     12  N   UNL     1      37.217 -24.387 -13.468  0.00  0.00    -0.221 NA
ATOM     13  C   UNL     1      36.333 -23.725 -12.776  0.00  0.00    +0.179 C 
ATOM     14  C   UNL     1      37.977 -24.567 -11.262  0.00  0.00    +0.059 C 
ATOM     15  C   UNL     1      38.169 -24.874 -12.593  0.00  0.00    +0.108 C 
ATOM     16  H   UNL     1      34.851 -22.190 -13.162  0.00  0.00    +0.176 HD
ENDBRANCH   7  11
ENDBRANCH   1   7
BRANCH   2  17
ATOM     17  N   UNL     1      36.350 -20.950 -19.465  0.00  0.00    -0.311 N 
ATOM     18  H   UNL     1      37.302 -20.699 -19.459  0.00  0.00    +0.152 HD
BRANCH  17  25
ATOM     19  O   UNL     1      37.523 -18.344 -19.958  0.00  0.00    -0.270 OA
ATOM     20  N   UNL     1      36.511 -17.344 -21.845  0.00  0.00    -0.280 N 
ATOM     21  C   UNL     1      35.008 -18.988 -22.419  0.00  0.00    +0.019 C 
ATOM     22  C   UNL     1      35.757 -19.420 -21.242  0.00  0.00    +0.069 C 
ATOM     23  C   UNL     1      35.506 -17.722 -22.742  0.00  0.00    +0.051 C 
ATOM     24  C   UNL     1      36.732 -18.336 -20.882  0.00  0.00    +0.251 C 
ATOM     25  C   UNL     1      35.646 -20.560 -20.559  0.00  0.00    +0.066 C 
ATOM     26  C   UNL     1      34.004 -19.566 -23.172  0.00  0.00    +0.001 C 
ATOM     27  C   UNL     1      35.030 -16.993 -23.813  0.00  0.00    +0.015 C 
ATOM     28  C   UNL     1      33.507 -18.844 -24.263  0.00  0.00    +0.000 C 
ATOM     29  C   UNL     1      34.015 -17.570 -24.580  0.00  0.00    +0.001 C 
ATOM     30  H   UNL     1      37.000 -16.491 -21.884  0.00  0.00    +0.155 HD
ENDBRANCH  17  25
ENDBRANCH   2  17
TORSDOF 4
ENDMDL
