MODEL 1
REMARK VINA RESULT:     -11.2      0.000      0.000
REMARK  Name = 11979006
REMARK  7 active torsions:
REMARK  status: ('A' for Active; 'I' for Inactive)
REMARK    1  A    between atoms: C_1  and  N_2
REMARK    2  A    between atoms: C_1  and  C_22
REMARK    3  A    between atoms: C_3  and  N_9
REMARK    4  A    between atoms: C_4  and  O_18
REMARK    5  A    between atoms: C_10  and  C_14
REMARK    6  A    between atoms: N_21  and  C_25
REMARK    7  A    between atoms: C_28  and  N_32
REMARK                            x       y       z     vdW  Elec       q    Type
REMARK                         _______ _______ _______ _____ _____    ______ ____
ROOT
ATOM      1  C   UNL     1      34.198 -17.496 -23.984  0.00  0.00    +0.010 C 
ENDROOT
BRANCH   1   2
ATOM      2  N   UNL     1      35.052 -18.265 -23.091  0.00  0.00    +0.396 N 
ATOM      3  C   UNL     1      35.344 -19.830 -21.415  0.00  0.00    +0.076 C 
ATOM      4  C   UNL     1      35.943 -18.513 -20.917  0.00  0.00    +0.106 C 
ATOM      5  C   UNL     1      34.354 -19.402 -22.490  0.00  0.00    -0.054 C 
ATOM      6  C   UNL     1      35.548 -17.468 -21.963  0.00  0.00    -0.045 C 
ATOM      7  H   UNL     1      35.817 -18.576 -23.689  0.00  0.00    -0.079 HD
BRANCH   3   9
ATOM      8  O   UNL     1      36.684 -21.364 -19.466  0.00  0.00    -0.270 OA
ATOM      9  N   UNL     1      34.718 -20.583 -20.363  0.00  0.00    -0.302 N 
ATOM     10  C   UNL     1      35.453 -21.321 -19.432  0.00  0.00    +0.252 C 
ATOM     11  H   UNL     1      33.736 -20.580 -20.296  0.00  0.00    +0.150 HD
BRANCH  10  14
ATOM     12 CL   UNL     1      33.985 -23.815 -14.783  0.00  0.00    -0.075 Cl
ATOM     13  S   UNL     1      35.455 -22.417 -16.952  0.00  0.00    -0.071 S 
ATOM     14  C   UNL     1      34.672 -22.013 -18.396  0.00  0.00    +0.084 C 
ATOM     15  C   UNL     1      33.372 -22.377 -18.456  0.00  0.00    +0.012 C 
ATOM     16  C   UNL     1      32.978 -23.029 -17.252  0.00  0.00    +0.019 C 
ATOM     17  C   UNL     1      34.013 -23.116 -16.348  0.00  0.00    +0.087 C 
ENDBRANCH  10  14
ENDBRANCH   3   9
BRANCH   4  18
ATOM     18  O   UNL     1      37.356 -18.639 -20.837  0.00  0.00    -0.385 OA
ATOM     19  H   UNL     1      37.586 -19.551 -20.600  0.00  0.00    +0.210 HD
ENDBRANCH   4  18
ENDBRANCH   1   2
BRANCH   1  22
ATOM     20  O   UNL     1      35.725 -15.629 -23.934  0.00  0.00    -0.277 OA
ATOM     21  N   UNL     1      33.415 -15.248 -23.761  0.00  0.00    -0.284 N 
ATOM     22  C   UNL     1      34.565 -16.025 -23.890  0.00  0.00    +0.205 C 
ATOM     23  H   UNL     1      32.560 -15.737 -23.748  0.00  0.00    +0.155 HD
BRANCH  21  25
ATOM     24  F   UNL     1      33.728 -13.603 -25.976  0.00  0.00    -0.203 F 
ATOM     25  C   UNL     1      33.331 -13.840 -23.646  0.00  0.00    +0.078 C 
ATOM     26  C   UNL     1      33.493 -13.055 -24.775  0.00  0.00    +0.155 C 
ATOM     27  C   UNL     1      33.088 -13.279 -22.403  0.00  0.00    +0.018 C 
ATOM     28  C   UNL     1      33.167 -11.085 -23.414  0.00  0.00    +0.061 C 
ATOM     29  C   UNL     1      33.410 -11.667 -24.658  0.00  0.00    +0.046 C 
ATOM     30  C   UNL     1      33.006 -11.891 -22.286  0.00  0.00    +0.017 C 
BRANCH  28  32
ATOM     31  O   UNL     1      35.389  -9.252 -23.669  0.00  0.00    -0.269 OA
ATOM     32  N   UNL     1      33.082  -9.643 -23.293  0.00  0.00    -0.233 N 
ATOM     33  C   UNL     1      34.243  -8.848 -23.480  0.00  0.00    +0.257 C 
ATOM     34  C   UNL     1      31.869  -9.029 -22.971  0.00  0.00    +0.072 C 
ATOM     35  C   UNL     1      34.057  -7.367 -23.384  0.00  0.00    +0.059 C 
ATOM     36  C   UNL     1      31.736  -7.704 -22.859  0.00  0.00    +0.017 C 
ATOM     37  C   UNL     1      32.865  -6.849 -23.080  0.00  0.00    +0.006 C 
ENDBRANCH  28  32
ENDBRANCH  21  25
ENDBRANCH   1  22
TORSDOF 7
ENDMDL
MODEL 2
REMARK VINA RESULT:     -11.1      4.558     11.299
REMARK  Name = 11979006
REMARK  7 active torsions:
REMARK  status: ('A' for Active; 'I' for Inactive)
REMARK    1  A    between atoms: C_1  and  N_2
REMARK    2  A    between atoms: C_1  and  C_22
REMARK    3  A    between atoms: C_3  and  N_9
REMARK    4  A    between atoms: C_4  and  O_18
REMARK    5  A    between atoms: C_10  and  C_14
REMARK    6  A    between atoms: N_21  and  C_25
REMARK    7  A    between atoms: C_28  and  N_32
REMARK                            x       y       z     vdW  Elec       q    Type
REMARK                         _______ _______ _______ _____ _____    ______ ____
ROOT
ATOM      1  C   UNL     1      36.576 -18.924 -22.225  0.00  0.00    +0.010 C 
ENDROOT
BRANCH   1   2
ATOM      2  N   UNL     1      35.914 -17.928 -23.055  0.00  0.00    +0.396 N 
ATOM      3  C   UNL     1      34.847 -15.895 -23.316  0.00  0.00    +0.076 C 
ATOM      4  C   UNL     1      33.873 -16.982 -23.776  0.00  0.00    +0.106 C 
ATOM      5  C   UNL     1      35.809 -16.628 -22.392  0.00  0.00    -0.054 C 
ATOM      6  C   UNL     1      34.538 -18.306 -23.397  0.00  0.00    -0.045 C 
ATOM      7  H   UNL     1      36.500 -17.872 -23.887  0.00  0.00    -0.079 HD
BRANCH   3   9
ATOM      8  O   UNL     1      33.430 -13.821 -24.597  0.00  0.00    -0.270 OA
ATOM      9  N   UNL     1      34.182 -14.802 -22.660  0.00  0.00    -0.302 N 
ATOM     10  C   UNL     1      33.498 -13.810 -23.367  0.00  0.00    +0.252 C 
ATOM     11  H   UNL     1      34.210 -14.750 -21.678  0.00  0.00    +0.150 HD
BRANCH  10  14
ATOM     12 CL   UNL     1      31.654  -8.991 -21.531  0.00  0.00    -0.075 Cl
ATOM     13  S   UNL     1      32.938 -11.172 -23.085  0.00  0.00    -0.071 S 
ATOM     14  C   UNL     1      32.843 -12.775 -22.553  0.00  0.00    +0.084 C 
ATOM     15  C   UNL     1      32.156 -12.950 -21.403  0.00  0.00    +0.012 C 
ATOM     16  C   UNL     1      31.671 -11.702 -20.914  0.00  0.00    +0.019 C 
ATOM     17  C   UNL     1      32.025 -10.653 -21.733  0.00  0.00    +0.087 C 
ENDBRANCH  10  14
ENDBRANCH   3   9
BRANCH   4  18
ATOM     18  O   UNL     1      33.697 -16.890 -25.184  0.00  0.00    -0.385 OA
ATOM     19  H   UNL     1      33.321 -17.720 -25.518  0.00  0.00    +0.210 HD
ENDBRANCH   4  18
ENDBRANCH   1   2
BRANCH   1  22
ATOM     20  O   UNL     1      35.242 -18.244 -20.333  0.00  0.00    -0.277 OA
ATOM     21  N   UNL     1      35.687 -20.522 -20.685  0.00  0.00    -0.284 N 
ATOM     22  C   UNL     1      35.756 -19.159 -20.969  0.00  0.00    +0.205 C 
ATOM     23  H   UNL     1      36.159 -21.119 -21.310  0.00  0.00    +0.155 HD
BRANCH  21  25
ATOM     24  F   UNL     1      32.915 -20.623 -20.572  0.00  0.00    -0.203 F 
ATOM     25  C   UNL     1      35.020 -21.148 -19.605  0.00  0.00    +0.078 C 
ATOM     26  C   UNL     1      33.636 -21.177 -19.586  0.00  0.00    +0.155 C 
ATOM     27  C   UNL     1      35.769 -21.719 -18.590  0.00  0.00    +0.018 C 
ATOM     28  C   UNL     1      33.720 -22.374 -17.489  0.00  0.00    +0.061 C 
ATOM     29  C   UNL     1      32.981 -21.795 -18.520  0.00  0.00    +0.046 C 
ATOM     30  C   UNL     1      35.115 -22.336 -17.524  0.00  0.00    +0.017 C 
BRANCH  28  32
ATOM     31  O   UNL     1      30.863 -22.344 -17.040  0.00  0.00    -0.269 OA
ATOM     32  N   UNL     1      33.039 -23.015 -16.381  0.00  0.00    -0.233 N 
ATOM     33  C   UNL     1      31.624 -22.961 -16.295  0.00  0.00    +0.257 C 
ATOM     34  C   UNL     1      33.768 -23.667 -15.384  0.00  0.00    +0.072 C 
ATOM     35  C   UNL     1      30.999 -23.688 -15.147  0.00  0.00    +0.059 C 
ATOM     36  C   UNL     1      33.186 -24.282 -14.349  0.00  0.00    +0.017 C 
ATOM     37  C   UNL     1      31.758 -24.298 -14.234  0.00  0.00    +0.006 C 
ENDBRANCH  28  32
ENDBRANCH  21  25
ENDBRANCH   1  22
TORSDOF 7
ENDMDL
MODEL 3
REMARK VINA RESULT:     -11.1      1.408      1.891
REMARK  Name = 11979006
REMARK  7 active torsions:
REMARK  status: ('A' for Active; 'I' for Inactive)
REMARK    1  A    between atoms: C_1  and  N_2
REMARK    2  A    between atoms: C_1  and  C_22
REMARK    3  A    between atoms: C_3  and  N_9
REMARK    4  A    between atoms: C_4  and  O_18
REMARK    5  A    between atoms: C_10  and  C_14
REMARK    6  A    between atoms: N_21  and  C_25
REMARK    7  A    between atoms: C_28  and  N_32
REMARK                            x       y       z     vdW  Elec       q    Type
REMARK                         _______ _______ _______ _____ _____    ______ ____
ROOT
ATOM      1  C   UNL     1      33.968 -17.723 -24.233  0.00  0.00    +0.010 C 
ENDROOT
BRANCH   1   2
ATOM      2  N   UNL     1      34.871 -18.372 -23.294  0.00  0.00    +0.396 N 
ATOM      3  C   UNL     1      35.264 -19.800 -21.519  0.00  0.00    +0.076 C 
ATOM      4  C   UNL     1      35.771 -18.416 -21.110  0.00  0.00    +0.106 C 
ATOM      5  C   UNL     1      34.250 -19.512 -22.618  0.00  0.00    -0.054 C 
ATOM      6  C   UNL     1      35.309 -17.472 -22.221  0.00  0.00    -0.045 C 
ATOM      7  H   UNL     1      35.656 -18.669 -23.872  0.00  0.00    -0.079 HD
BRANCH   3   9
ATOM      8  O   UNL     1      36.689 -21.330 -19.628  0.00  0.00    -0.270 OA
ATOM      9  N   UNL     1      34.688 -20.523 -20.419  0.00  0.00    -0.302 N 
ATOM     10  C   UNL     1      35.464 -21.261 -19.521  0.00  0.00    +0.252 C 
ATOM     11  H   UNL     1      33.713 -20.499 -20.293  0.00  0.00    +0.150 HD
BRANCH  10  14
ATOM     12 CL   UNL     1      31.454 -23.257 -16.371  0.00  0.00    -0.075 Cl
ATOM     13  S   UNL     1      33.044 -21.956 -18.514  0.00  0.00    -0.071 S 
ATOM     14  C   UNL     1      34.733 -21.920 -18.428  0.00  0.00    +0.084 C 
ATOM     15  C   UNL     1      35.256 -22.516 -17.334  0.00  0.00    +0.012 C 
ATOM     16  C   UNL     1      34.222 -23.039 -16.505  0.00  0.00    +0.019 C 
ATOM     17  C   UNL     1      32.971 -22.804 -17.029  0.00  0.00    +0.087 C 
ENDBRANCH  10  14
ENDBRANCH   3   9
BRANCH   4  18
ATOM     18  O   UNL     1      37.190 -18.441 -21.026  0.00  0.00    -0.385 OA
ATOM     19  H   UNL     1      37.568 -17.989 -21.797  0.00  0.00    +0.210 HD
ENDBRANCH   4  18
ENDBRANCH   1   2
BRANCH   1  22
ATOM     20  O   UNL     1      35.381 -15.936 -25.029  0.00  0.00    -0.277 OA
ATOM     21  N   UNL     1      33.463 -15.433 -23.772  0.00  0.00    -0.284 N 
ATOM     22  C   UNL     1      34.378 -16.271 -24.405  0.00  0.00    +0.205 C 
ATOM     23  H   UNL     1      32.709 -15.877 -23.319  0.00  0.00    +0.155 HD
BRANCH  21  25
ATOM     24  F   UNL     1      33.510 -14.113 -21.329  0.00  0.00    -0.203 F 
ATOM     25  C   UNL     1      33.488 -14.020 -23.702  0.00  0.00    +0.078 C 
ATOM     26  C   UNL     1      33.512 -13.399 -22.465  0.00  0.00    +0.155 C 
ATOM     27  C   UNL     1      33.490 -13.287 -24.878  0.00  0.00    +0.018 C 
ATOM     28  C   UNL     1      33.538 -11.253 -23.574  0.00  0.00    +0.061 C 
ATOM     29  C   UNL     1      33.537 -12.006 -22.400  0.00  0.00    +0.046 C 
ATOM     30  C   UNL     1      33.514 -11.894 -24.814  0.00  0.00    +0.017 C 
BRANCH  28  32
ATOM     31  O   UNL     1      31.364  -9.585 -22.649  0.00  0.00    -0.269 OA
ATOM     32  N   UNL     1      33.563  -9.805 -23.506  0.00  0.00    -0.233 N 
ATOM     33  C   UNL     1      32.442  -9.102 -22.994  0.00  0.00    +0.257 C 
ATOM     34  C   UNL     1      34.675  -9.094 -23.963  0.00  0.00    +0.072 C 
ATOM     35  C   UNL     1      32.570  -7.614 -22.915  0.00  0.00    +0.059 C 
ATOM     36  C   UNL     1      34.751  -7.760 -23.912  0.00  0.00    +0.017 C 
ATOM     37  C   UNL     1      33.667  -7.000 -23.364  0.00  0.00    +0.006 C 
ENDBRANCH  28  32
ENDBRANCH  21  25
ENDBRANCH   1  22
TORSDOF 7
ENDMDL
MODEL 4
REMARK VINA RESULT:     -11.1      4.538     11.247
REMARK  Name = 11979006
REMARK  7 active torsions:
REMARK  status: ('A' for Active; 'I' for Inactive)
REMARK    1  A    between atoms: C_1  and  N_2
REMARK    2  A    between atoms: C_1  and  C_22
REMARK    3  A    between atoms: C_3  and  N_9
REMARK    4  A    between atoms: C_4  and  O_18
REMARK    5  A    between atoms: C_10  and  C_14
REMARK    6  A    between atoms: N_21  and  C_25
REMARK    7  A    between atoms: C_28  and  N_32
REMARK                            x       y       z     vdW  Elec       q    Type
REMARK                         _______ _______ _______ _____ _____    ______ ____
ROOT
ATOM      1  C   UNL     1      36.544 -18.712 -22.248  0.00  0.00    +0.010 C 
ENDROOT
BRANCH   1   2
ATOM      2  N   UNL     1      35.880 -17.706 -23.063  0.00  0.00    +0.396 N 
ATOM      3  C   UNL     1      34.795 -15.678 -23.293  0.00  0.00    +0.076 C 
ATOM      4  C   UNL     1      33.836 -16.765 -23.784  0.00  0.00    +0.106 C 
ATOM      5  C   UNL     1      35.755 -16.421 -22.375  0.00  0.00    -0.054 C 
ATOM      6  C   UNL     1      34.510 -18.090 -23.425  0.00  0.00    -0.045 C 
ATOM      7  H   UNL     1      36.472 -17.627 -23.889  0.00  0.00    -0.079 HD
BRANCH   3   9
ATOM      8  O   UNL     1      33.444 -13.543 -24.545  0.00  0.00    -0.270 OA
ATOM      9  N   UNL     1      34.114 -14.605 -22.621  0.00  0.00    -0.302 N 
ATOM     10  C   UNL     1      33.465 -13.580 -23.314  0.00  0.00    +0.252 C 
ATOM     11  H   UNL     1      34.104 -14.592 -21.637  0.00  0.00    +0.150 HD
BRANCH  10  14
ATOM     12 CL   UNL     1      31.569  -8.822 -21.376  0.00  0.00    -0.075 Cl
ATOM     13  S   UNL     1      32.897 -10.952 -22.963  0.00  0.00    -0.071 S 
ATOM     14  C   UNL     1      32.787 -12.572 -22.486  0.00  0.00    +0.084 C 
ATOM     15  C   UNL     1      32.067 -12.783 -21.362  0.00  0.00    +0.012 C 
ATOM     16  C   UNL     1      31.569 -11.551 -20.847  0.00  0.00    +0.019 C 
ATOM     17  C   UNL     1      31.945 -10.477 -21.622  0.00  0.00    +0.087 C 
ENDBRANCH  10  14
ENDBRANCH   3   9
BRANCH   4  18
ATOM     18  O   UNL     1      33.671 -16.646 -25.191  0.00  0.00    -0.385 OA
ATOM     19  H   UNL     1      32.762 -16.885 -25.431  0.00  0.00    +0.210 HD
ENDBRANCH   4  18
ENDBRANCH   1   2
BRANCH   1  22
ATOM     20  O   UNL     1      35.330 -18.061 -20.267  0.00  0.00    -0.277 OA
ATOM     21  N   UNL     1      35.506 -20.334 -20.831  0.00  0.00    -0.284 N 
ATOM     22  C   UNL     1      35.725 -18.967 -20.995  0.00  0.00    +0.205 C 
ATOM     23  H   UNL     1      35.896 -20.921 -21.519  0.00  0.00    +0.155 HD
BRANCH  21  25
ATOM     24  F   UNL     1      32.733 -20.246 -20.726  0.00  0.00    -0.203 F 
ATOM     25  C   UNL     1      34.791 -20.976 -19.792  0.00  0.00    +0.078 C 
ATOM     26  C   UNL     1      33.408 -20.909 -19.776  0.00  0.00    +0.155 C 
ATOM     27  C   UNL     1      35.493 -21.660 -18.813  0.00  0.00    +0.018 C 
ATOM     28  C   UNL     1      33.398 -22.236 -17.756  0.00  0.00    +0.061 C 
ATOM     29  C   UNL     1      32.706 -21.543 -18.750  0.00  0.00    +0.046 C 
ATOM     30  C   UNL     1      34.792 -22.294 -17.788  0.00  0.00    +0.017 C 
BRANCH  28  32
ATOM     31  O   UNL     1      34.569 -23.936 -15.731  0.00  0.00    -0.269 OA
ATOM     32  N   UNL     1      32.668 -22.894 -16.690  0.00  0.00    -0.233 N 
ATOM     33  C   UNL     1      33.367 -23.673 -15.731  0.00  0.00    +0.257 C 
ATOM     34  C   UNL     1      31.278 -22.786 -16.612  0.00  0.00    +0.072 C 
ATOM     35  C   UNL     1      32.544 -24.279 -14.639  0.00  0.00    +0.059 C 
ATOM     36  C   UNL     1      30.561 -23.364 -15.643  0.00  0.00    +0.017 C 
ATOM     37  C   UNL     1      31.218 -24.127 -14.623  0.00  0.00    +0.006 C 
ENDBRANCH  28  32
ENDBRANCH  21  25
ENDBRANCH   1  22
TORSDOF 7
ENDMDL
MODEL 5
REMARK VINA RESULT:     -10.6      5.400      8.578
REMARK  Name = 11979006
REMARK  7 active torsions:
REMARK  status: ('A' for Active; 'I' for Inactive)
REMARK    1  A    between atoms: C_1  and  N_2
REMARK    2  A    between atoms: C_1  and  C_22
REMARK    3  A    between atoms: C_3  and  N_9
REMARK    4  A    between atoms: C_4  and  O_18
REMARK    5  A    between atoms: C_10  and  C_14
REMARK    6  A    between atoms: N_21  and  C_25
REMARK    7  A    between atoms: C_28  and  N_32
REMARK                            x       y       z     vdW  Elec       q    Type
REMARK                         _______ _______ _______ _____ _____    ______ ____
ROOT
ATOM      1  C   UNL     1      37.873 -22.426 -15.712  0.00  0.00    +0.010 C 
ENDROOT
BRANCH   1   2
ATOM      2  N   UNL     1      36.824 -23.430 -15.794  0.00  0.00    +0.396 N 
ATOM      3  C   UNL     1      34.605 -24.059 -15.643  0.00  0.00    +0.076 C 
ATOM      4  C   UNL     1      35.385 -24.901 -14.632  0.00  0.00    +0.106 C 
ATOM      5  C   UNL     1      35.487 -22.839 -15.867  0.00  0.00    -0.054 C 
ATOM      6  C   UNL     1      36.798 -24.313 -14.622  0.00  0.00    -0.045 C 
ATOM      7  H   UNL     1      37.045 -23.949 -16.643  0.00  0.00    -0.079 HD
BRANCH   3   9
ATOM      8  O   UNL     1      32.348 -23.566 -17.261  0.00  0.00    -0.270 OA
ATOM      9  N   UNL     1      33.294 -23.707 -15.171  0.00  0.00    -0.302 N 
ATOM     10  C   UNL     1      32.222 -23.478 -16.038  0.00  0.00    +0.252 C 
ATOM     11  H   UNL     1      33.144 -23.623 -14.202  0.00  0.00    +0.150 HD
BRANCH  10  14
ATOM     12 CL   UNL     1      26.913 -22.409 -15.231  0.00  0.00    -0.075 Cl
ATOM     13  S   UNL     1      29.569 -23.048 -16.394  0.00  0.00    -0.071 S 
ATOM     14  C   UNL     1      30.936 -23.158 -15.403  0.00  0.00    +0.084 C 
ATOM     15  C   UNL     1      30.702 -22.933 -14.091  0.00  0.00    +0.012 C 
ATOM     16  C   UNL     1      29.323 -22.653 -13.868  0.00  0.00    +0.019 C 
ATOM     17  C   UNL     1      28.593 -22.683 -15.035  0.00  0.00    +0.087 C 
ENDBRANCH  10  14
ENDBRANCH   3   9
BRANCH   4  18
ATOM     18  O   UNL     1      35.405 -26.255 -15.063  0.00  0.00    -0.385 OA
ATOM     19  H   UNL     1      36.323 -26.551 -15.159  0.00  0.00    +0.210 HD
ENDBRANCH   4  18
ENDBRANCH   1   2
BRANCH   1  22
ATOM     20  O   UNL     1      37.847 -20.115 -16.408  0.00  0.00    -0.277 OA
ATOM     21  N   UNL     1      36.902 -21.760 -17.792  0.00  0.00    -0.284 N 
ATOM     22  C   UNL     1      37.550 -21.280 -16.656  0.00  0.00    +0.205 C 
ATOM     23  H   UNL     1      36.748 -22.732 -17.826  0.00  0.00    +0.155 HD
BRANCH  21  25
ATOM     24  F   UNL     1      34.268 -21.944 -18.650  0.00  0.00    -0.203 F 
ATOM     25  C   UNL     1      36.439 -21.015 -18.903  0.00  0.00    +0.078 C 
ATOM     26  C   UNL     1      35.118 -21.134 -19.299  0.00  0.00    +0.155 C 
ATOM     27  C   UNL     1      37.321 -20.180 -19.569  0.00  0.00    +0.018 C 
ATOM     28  C   UNL     1      35.539 -19.554 -21.077  0.00  0.00    +0.061 C 
ATOM     29  C   UNL     1      34.664 -20.398 -20.394  0.00  0.00    +0.046 C 
ATOM     30  C   UNL     1      36.868 -19.445 -20.665  0.00  0.00    +0.017 C 
BRANCH  28  32
ATOM     31  O   UNL     1      35.543 -16.668 -21.271  0.00  0.00    -0.269 OA
ATOM     32  N   UNL     1      35.068 -18.790 -22.216  0.00  0.00    -0.233 N 
ATOM     33  C   UNL     1      35.161 -17.373 -22.204  0.00  0.00    +0.257 C 
ATOM     34  C   UNL     1      34.502 -19.435 -23.316  0.00  0.00    +0.072 C 
ATOM     35  C   UNL     1      34.695 -16.666 -23.437  0.00  0.00    +0.059 C 
ATOM     36  C   UNL     1      34.063 -18.778 -24.394  0.00  0.00    +0.017 C 
ATOM     37  C   UNL     1      34.171 -17.350 -24.456  0.00  0.00    +0.006 C 
ENDBRANCH  28  32
ENDBRANCH  21  25
ENDBRANCH   1  22
TORSDOF 7
ENDMDL
MODEL 6
REMARK VINA RESULT:     -10.5      3.440      5.180
REMARK  Name = 11979006
REMARK  7 active torsions:
REMARK  status: ('A' for Active; 'I' for Inactive)
REMARK    1  A    between atoms: C_1  and  N_2
REMARK    2  A    between atoms: C_1  and  C_22
REMARK    3  A    between atoms: C_3  and  N_9
REMARK    4  A    between atoms: C_4  and  O_18
REMARK    5  A    between atoms: C_10  and  C_14
REMARK    6  A    between atoms: N_21  and  C_25
REMARK    7  A    between atoms: C_28  and  N_32
REMARK                            x       y       z     vdW  Elec       q    Type
REMARK                         _______ _______ _______ _____ _____    ______ ____
ROOT
ATOM      1  C   UNL     1      36.195 -20.512 -20.232  0.00  0.00    +0.010 C 
ENDROOT
BRANCH   1   2
ATOM      2  N   UNL     1      35.649 -20.990 -18.970  0.00  0.00    +0.396 N 
ATOM      3  C   UNL     1      35.870 -22.119 -16.965  0.00  0.00    +0.076 C 
ATOM      4  C   UNL     1      34.753 -22.806 -17.753  0.00  0.00    +0.106 C 
ATOM      5  C   UNL     1      36.692 -21.409 -18.033  0.00  0.00    -0.054 C 
ATOM      6  C   UNL     1      34.782 -22.161 -19.140  0.00  0.00    -0.045 C 
ATOM      7  H   UNL     1      35.127 -20.192 -18.609  0.00  0.00    -0.079 HD
BRANCH   3   9
ATOM      8  O   UNL     1      35.127 -23.255 -14.494  0.00  0.00    -0.270 OA
ATOM      9  N   UNL     1      36.654 -23.048 -16.198  0.00  0.00    -0.302 N 
ATOM     10  C   UNL     1      36.215 -23.568 -14.978  0.00  0.00    +0.252 C 
ATOM     11  H   UNL     1      37.532 -23.327 -16.544  0.00  0.00    +0.150 HD
BRANCH  10  14
ATOM     12 CL   UNL     1      40.670 -26.398 -13.516  0.00  0.00    -0.075 Cl
ATOM     13  S   UNL     1      38.751 -24.504 -14.759  0.00  0.00    -0.071 S 
ATOM     14  C   UNL     1      37.115 -24.532 -14.328  0.00  0.00    +0.084 C 
ATOM     15  C   UNL     1      36.790 -25.463 -13.404  0.00  0.00    +0.012 C 
ATOM     16  C   UNL     1      37.942 -26.208 -13.016  0.00  0.00    +0.019 C 
ATOM     17  C   UNL     1      39.075 -25.788 -13.676  0.00  0.00    +0.087 C 
ENDBRANCH  10  14
ENDBRANCH   3   9
BRANCH   4  18
ATOM     18  O   UNL     1      33.508 -22.565 -17.110  0.00  0.00    -0.385 OA
ATOM     19  H   UNL     1      33.591 -22.756 -16.163  0.00  0.00    +0.210 HD
ENDBRANCH   4  18
ENDBRANCH   1   2
BRANCH   1  22
ATOM     20  O   UNL     1      34.198 -19.740 -21.343  0.00  0.00    -0.277 OA
ATOM     21  N   UNL     1      35.818 -18.189 -20.648  0.00  0.00    -0.284 N 
ATOM     22  C   UNL     1      35.269 -19.459 -20.815  0.00  0.00    +0.205 C 
ATOM     23  H   UNL     1      36.692 -18.150 -20.195  0.00  0.00    +0.155 HD
BRANCH  21  25
ATOM     24  F   UNL     1      35.582 -17.527 -23.334  0.00  0.00    -0.203 F 
ATOM     25  C   UNL     1      35.267 -16.949 -21.052  0.00  0.00    +0.078 C 
ATOM     26  C   UNL     1      35.166 -16.657 -22.402  0.00  0.00    +0.155 C 
ATOM     27  C   UNL     1      34.840 -16.054 -20.085  0.00  0.00    +0.018 C 
ATOM     28  C   UNL     1      34.189 -14.521 -21.835  0.00  0.00    +0.061 C 
ATOM     29  C   UNL     1      34.623 -15.434 -22.796  0.00  0.00    +0.046 C 
ATOM     30  C   UNL     1      34.297 -14.831 -20.479  0.00  0.00    +0.017 C 
BRANCH  28  32
ATOM     31  O   UNL     1      31.945 -13.202 -20.574  0.00  0.00    -0.269 OA
ATOM     32  N   UNL     1      33.625 -13.250 -22.246  0.00  0.00    -0.233 N 
ATOM     33  C   UNL     1      32.545 -12.687 -21.517  0.00  0.00    +0.257 C 
ATOM     34  C   UNL     1      34.122 -12.585 -23.369  0.00  0.00    +0.072 C 
ATOM     35  C   UNL     1      32.055 -11.352 -21.980  0.00  0.00    +0.059 C 
ATOM     36  C   UNL     1      33.644 -11.406 -23.782  0.00  0.00    +0.017 C 
ATOM     37  C   UNL     1      32.583 -10.770 -23.059  0.00  0.00    +0.006 C 
ENDBRANCH  28  32
ENDBRANCH  21  25
ENDBRANCH   1  22
TORSDOF 7
ENDMDL
MODEL 7
REMARK VINA RESULT:     -10.5      4.950     11.720
REMARK  Name = 11979006
REMARK  7 active torsions:
REMARK  status: ('A' for Active; 'I' for Inactive)
REMARK    1  A    between atoms: C_1  and  N_2
REMARK    2  A    between atoms: C_1  and  C_22
REMARK    3  A    between atoms: C_3  and  N_9
REMARK    4  A    between atoms: C_4  and  O_18
REMARK    5  A    between atoms: C_10  and  C_14
REMARK    6  A    between atoms: N_21  and  C_25
REMARK    7  A    between atoms: C_28  and  N_32
REMARK                            x       y       z     vdW  Elec       q    Type
REMARK                         _______ _______ _______ _____ _____    ______ ____
ROOT
ATOM      1  C   UNL     1      34.973 -17.703 -23.751  0.00  0.00    +0.010 C 
ENDROOT
BRANCH   1   2
ATOM      2  N   UNL     1      34.279 -16.537 -23.225  0.00  0.00    +0.396 N 
ATOM      3  C   UNL     1      33.804 -14.275 -23.261  0.00  0.00    +0.076 C 
ATOM      4  C   UNL     1      34.390 -14.594 -21.885  0.00  0.00    +0.106 C 
ATOM      5  C   UNL     1      34.311 -15.403 -24.149  0.00  0.00    -0.054 C 
ATOM      6  C   UNL     1      34.874 -16.043 -21.978  0.00  0.00    -0.045 C 
ATOM      7  H   UNL     1      33.325 -16.864 -23.075  0.00  0.00    -0.079 HD
BRANCH   3   9
ATOM      8  O   UNL     1      32.647 -11.815 -22.510  0.00  0.00    -0.270 OA
ATOM      9  N   UNL     1      34.199 -12.980 -23.742  0.00  0.00    -0.302 N 
ATOM     10  C   UNL     1      33.575 -11.802 -23.320  0.00  0.00    +0.252 C 
ATOM     11  H   UNL     1      34.936 -12.919 -24.391  0.00  0.00    +0.150 HD
BRANCH  10  14
ATOM     12 CL   UNL     1      34.723  -6.511 -24.140  0.00  0.00    -0.075 Cl
ATOM     13  S   UNL     1      33.698  -9.102 -23.113  0.00  0.00    -0.071 S 
ATOM     14  C   UNL     1      34.114 -10.553 -23.877  0.00  0.00    +0.084 C 
ATOM     15  C   UNL     1      34.920 -10.414 -24.953  0.00  0.00    +0.012 C 
ATOM     16  C   UNL     1      35.226  -9.040 -25.177  0.00  0.00    +0.019 C 
ATOM     17  C   UNL     1      34.626  -8.219 -24.249  0.00  0.00    +0.087 C 
ENDBRANCH  10  14
ENDBRANCH   3   9
BRANCH   4  18
ATOM     18  O   UNL     1      33.374 -14.463 -20.899  0.00  0.00    -0.385 OA
ATOM     19  H   UNL     1      33.697 -13.905 -20.175  0.00  0.00    +0.210 HD
ENDBRANCH   4  18
ENDBRANCH   1   2
BRANCH   1  22
ATOM     20  O   UNL     1      36.739 -18.591 -22.367  0.00  0.00    -0.277 OA
ATOM     21  N   UNL     1      34.503 -19.122 -21.885  0.00  0.00    -0.284 N 
ATOM     22  C   UNL     1      35.536 -18.517 -22.598  0.00  0.00    +0.205 C 
ATOM     23  H   UNL     1      33.590 -18.948 -22.211  0.00  0.00    +0.155 HD
BRANCH  21  25
ATOM     24  F   UNL     1      32.263 -20.306 -20.751  0.00  0.00    -0.203 F 
ATOM     25  C   UNL     1      34.612 -19.957 -20.748  0.00  0.00    +0.078 C 
ATOM     26  C   UNL     1      33.470 -20.529 -20.212  0.00  0.00    +0.155 C 
ATOM     27  C   UNL     1      35.861 -20.184 -20.195  0.00  0.00    +0.018 C 
ATOM     28  C   UNL     1      34.832 -21.590 -18.521  0.00  0.00    +0.061 C 
ATOM     29  C   UNL     1      33.581 -21.352 -19.091  0.00  0.00    +0.046 C 
ATOM     30  C   UNL     1      35.972 -21.006 -19.074  0.00  0.00    +0.017 C 
BRANCH  28  32
ATOM     31  O   UNL     1      32.722 -23.259 -17.458  0.00  0.00    -0.269 OA
ATOM     32  N   UNL     1      34.946 -22.445 -17.355  0.00  0.00    -0.233 N 
ATOM     33  C   UNL     1      33.846 -23.248 -16.957  0.00  0.00    +0.257 C 
ATOM     34  C   UNL     1      36.124 -22.467 -16.606  0.00  0.00    +0.072 C 
ATOM     35  C   UNL     1      34.064 -24.135 -15.773  0.00  0.00    +0.059 C 
ATOM     36  C   UNL     1      36.283 -23.245 -15.531  0.00  0.00    +0.017 C 
ATOM     37  C   UNL     1      35.221 -24.109 -15.108  0.00  0.00    +0.006 C 
ENDBRANCH  28  32
ENDBRANCH  21  25
ENDBRANCH   1  22
TORSDOF 7
ENDMDL
MODEL 8
REMARK VINA RESULT:     -10.5      5.416     11.798
REMARK  Name = 11979006
REMARK  7 active torsions:
REMARK  status: ('A' for Active; 'I' for Inactive)
REMARK    1  A    between atoms: C_1  and  N_2
REMARK    2  A    between atoms: C_1  and  C_22
REMARK    3  A    between atoms: C_3  and  N_9
REMARK    4  A    between atoms: C_4  and  O_18
REMARK    5  A    between atoms: C_10  and  C_14
REMARK    6  A    between atoms: N_21  and  C_25
REMARK    7  A    between atoms: C_28  and  N_32
REMARK                            x       y       z     vdW  Elec       q    Type
REMARK                         _______ _______ _______ _____ _____    ______ ____
ROOT
ATOM      1  C   UNL     1      33.403 -13.239 -24.937  0.00  0.00    +0.010 C 
ENDROOT
BRANCH   1   2
ATOM      2  N   UNL     1      34.140 -12.037 -24.576  0.00  0.00    +0.396 N 
ATOM      3  C   UNL     1      34.228  -9.903 -23.694  0.00  0.00    +0.076 C 
ATOM      4  C   UNL     1      34.721  -9.817 -25.140  0.00  0.00    +0.106 C 
ATOM      5  C   UNL     1      33.391 -11.173 -23.664  0.00  0.00    -0.054 C 
ATOM      6  C   UNL     1      34.454 -11.199 -25.740  0.00  0.00    -0.045 C 
ATOM      7  H   UNL     1      34.989 -12.391 -24.136  0.00  0.00    -0.079 HD
BRANCH   3   9
ATOM      8  O   UNL     1      35.319  -7.436 -22.871  0.00  0.00    -0.270 OA
ATOM      9  N   UNL     1      33.478  -8.742 -23.298  0.00  0.00    -0.302 N 
ATOM     10  C   UNL     1      34.093  -7.552 -22.902  0.00  0.00    +0.252 C 
ATOM     11  H   UNL     1      32.495  -8.787 -23.307  0.00  0.00    +0.150 HD
BRANCH  10  14
ATOM     12 CL   UNL     1      31.245  -2.879 -23.087  0.00  0.00    -0.075 Cl
ATOM     13  S   UNL     1      33.036  -5.175 -23.666  0.00  0.00    -0.071 S 
ATOM     14  C   UNL     1      33.191  -6.444 -22.557  0.00  0.00    +0.084 C 
ATOM     15  C   UNL     1      32.451  -6.308 -21.435  0.00  0.00    +0.012 C 
ATOM     16  C   UNL     1      31.705  -5.093 -21.470  0.00  0.00    +0.019 C 
ATOM     17  C   UNL     1      31.930  -4.382 -22.628  0.00  0.00    +0.087 C 
ENDBRANCH  10  14
ENDBRANCH   3   9
BRANCH   4  18
ATOM     18  O   UNL     1      36.112  -9.524 -25.146  0.00  0.00    -0.385 OA
ATOM     19  H   UNL     1      36.292  -8.798 -24.529  0.00  0.00    +0.210 HD
ENDBRANCH   4  18
ENDBRANCH   1   2
BRANCH   1  22
ATOM     20  O   UNL     1      32.684 -14.027 -22.773  0.00  0.00    -0.277 OA
ATOM     21  N   UNL     1      34.278 -15.251 -23.987  0.00  0.00    -0.284 N 
ATOM     22  C   UNL     1      33.394 -14.198 -23.759  0.00  0.00    +0.205 C 
ATOM     23  H   UNL     1      34.767 -15.229 -24.842  0.00  0.00    +0.155 HD
BRANCH  21  25
ATOM     24  F   UNL     1      34.077 -17.867 -24.895  0.00  0.00    -0.203 F 
ATOM     25  C   UNL     1      34.556 -16.346 -23.135  0.00  0.00    +0.078 C 
ATOM     26  C   UNL     1      34.444 -17.636 -23.626  0.00  0.00    +0.155 C 
ATOM     27  C   UNL     1      34.936 -16.101 -21.826  0.00  0.00    +0.018 C 
ATOM     28  C   UNL     1      35.102 -18.484 -21.461  0.00  0.00    +0.061 C 
ATOM     29  C   UNL     1      34.719 -18.713 -22.783  0.00  0.00    +0.046 C 
ATOM     30  C   UNL     1      35.210 -17.178 -20.983  0.00  0.00    +0.017 C 
BRANCH  28  32
ATOM     31  O   UNL     1      37.734 -19.274 -20.559  0.00  0.00    -0.269 OA
ATOM     32  N   UNL     1      35.387 -19.604 -20.586  0.00  0.00    -0.233 N 
ATOM     33  C   UNL     1      36.723 -19.864 -20.182  0.00  0.00    +0.257 C 
ATOM     34  C   UNL     1      34.359 -20.444 -20.153  0.00  0.00    +0.072 C 
ATOM     35  C   UNL     1      36.922 -21.009 -19.241  0.00  0.00    +0.059 C 
ATOM     36  C   UNL     1      34.568 -21.482 -19.337  0.00  0.00    +0.017 C 
ATOM     37  C   UNL     1      35.890 -21.766 -18.863  0.00  0.00    +0.006 C 
ENDBRANCH  28  32
ENDBRANCH  21  25
ENDBRANCH   1  22
TORSDOF 7
ENDMDL
MODEL 9
REMARK VINA RESULT:     -10.3      5.846      9.582
REMARK  Name = 11979006
REMARK  7 active torsions:
REMARK  status: ('A' for Active; 'I' for Inactive)
REMARK    1  A    between atoms: C_1  and  N_2
REMARK    2  A    between atoms: C_1  and  C_22
REMARK    3  A    between atoms: C_3  and  N_9
REMARK    4  A    between atoms: C_4  and  O_18
REMARK    5  A    between atoms: C_10  and  C_14
REMARK    6  A    between atoms: N_21  and  C_25
REMARK    7  A    between atoms: C_28  and  N_32
REMARK                            x       y       z     vdW  Elec       q    Type
REMARK                         _______ _______ _______ _____ _____    ______ ____
ROOT
ATOM      1  C   UNL     1      36.101 -23.941 -15.063  0.00  0.00    +0.010 C 
ENDROOT
BRANCH   1   2
ATOM      2  N   UNL     1      34.832 -24.467 -14.585  0.00  0.00    +0.396 N 
ATOM      3  C   UNL     1      32.520 -24.494 -14.587  0.00  0.00    +0.076 C 
ATOM      4  C   UNL     1      32.970 -24.176 -13.159  0.00  0.00    +0.106 C 
ATOM      5  C   UNL     1      33.710 -24.092 -15.447  0.00  0.00    -0.054 C 
ATOM      6  C   UNL     1      34.483 -23.968 -13.250  0.00  0.00    -0.045 C 
ATOM      7  H   UNL     1      34.970 -25.477 -14.578  0.00  0.00    -0.079 HD
BRANCH   3   9
ATOM      8  O   UNL     1      29.924 -25.593 -14.626  0.00  0.00    -0.270 OA
ATOM      9  N   UNL     1      31.318 -23.796 -14.954  0.00  0.00    -0.302 N 
ATOM     10  C   UNL     1      30.064 -24.412 -14.948  0.00  0.00    +0.252 C 
ATOM     11  H   UNL     1      31.380 -22.851 -15.219  0.00  0.00    +0.150 HD
BRANCH  10  14
ATOM     12 CL   UNL     1      26.130 -21.890 -17.802  0.00  0.00    -0.075 Cl
ATOM     13  S   UNL     1      28.418 -23.569 -16.931  0.00  0.00    -0.071 S 
ATOM     14  C   UNL     1      28.925 -23.559 -15.317  0.00  0.00    +0.084 C 
ATOM     15  C   UNL     1      28.214 -22.744 -14.507  0.00  0.00    +0.012 C 
ATOM     16  C   UNL     1      27.187 -22.080 -15.239  0.00  0.00    +0.019 C 
ATOM     17  C   UNL     1      27.186 -22.439 -16.568  0.00  0.00    +0.087 C 
ENDBRANCH  10  14
ENDBRANCH   3   9
BRANCH   4  18
ATOM     18  O   UNL     1      32.661 -25.276 -12.313  0.00  0.00    -0.385 OA
ATOM     19  H   UNL     1      31.861 -25.718 -12.638  0.00  0.00    +0.210 HD
ENDBRANCH   4  18
ENDBRANCH   1   2
BRANCH   1  22
ATOM     20  O   UNL     1      35.700 -21.571 -15.282  0.00  0.00    -0.277 OA
ATOM     21  N   UNL     1      35.848 -22.910 -17.205  0.00  0.00    -0.284 N 
ATOM     22  C   UNL     1      35.856 -22.656 -15.835  0.00  0.00    +0.205 C 
ATOM     23  H   UNL     1      35.995 -23.847 -17.474  0.00  0.00    +0.155 HD
BRANCH  21  25
ATOM     24  F   UNL     1      33.314 -22.386 -18.210  0.00  0.00    -0.203 F 
ATOM     25  C   UNL     1      35.654 -21.982 -18.256  0.00  0.00    +0.078 C 
ATOM     26  C   UNL     1      34.374 -21.749 -18.729  0.00  0.00    +0.155 C 
ATOM     27  C   UNL     1      36.752 -21.327 -18.788  0.00  0.00    +0.018 C 
ATOM     28  C   UNL     1      35.280 -20.165 -20.313  0.00  0.00    +0.061 C 
ATOM     29  C   UNL     1      34.185 -20.833 -19.765  0.00  0.00    +0.046 C 
ATOM     30  C   UNL     1      36.564 -20.412 -19.824  0.00  0.00    +0.017 C 
BRANCH  28  32
ATOM     31  O   UNL     1      35.736 -17.315 -20.130  0.00  0.00    -0.269 OA
ATOM     32  N   UNL     1      35.084 -19.214 -21.390  0.00  0.00    -0.233 N 
ATOM     33  C   UNL     1      35.383 -17.842 -21.184  0.00  0.00    +0.257 C 
ATOM     34  C   UNL     1      34.582 -19.635 -22.623  0.00  0.00    +0.072 C 
ATOM     35  C   UNL     1      35.197 -16.938 -22.361  0.00  0.00    +0.059 C 
ATOM     36  C   UNL     1      34.394 -18.800 -23.650  0.00  0.00    +0.017 C 
ATOM     37  C   UNL     1      34.719 -17.411 -23.514  0.00  0.00    +0.006 C 
ENDBRANCH  28  32
ENDBRANCH  21  25
ENDBRANCH   1  22
TORSDOF 7
ENDMDL
