MODEL 1
REMARK VINA RESULT:     -12.6      0.000      0.000
REMARK  Name = 10407120
REMARK  4 active torsions:
REMARK  status: ('A' for Active; 'I' for Inactive)
REMARK    1  A    between atoms: N_2  and  C_19
REMARK    2  A    between atoms: C_3  and  C_6
REMARK    3  A    between atoms: C_5  and  C_16
REMARK    4  A    between atoms: C_19  and  C_21
REMARK                            x       y       z     vdW  Elec       q    Type
REMARK                         _______ _______ _______ _____ _____    ______ ____
ROOT
ATOM      1  O   UNL     1      34.180 -16.106 -25.418  0.00  0.00    -0.270 OA
ATOM      2  N   UNL     1      33.550 -14.306 -24.089  0.00  0.00    -0.267 N 
ATOM      3  C   UNL     1      34.095 -15.575 -24.310  0.00  0.00    +0.250 C 
ATOM      4  C   UNL     1      33.043 -13.540 -25.219  0.00  0.00    +0.116 C 
ENDROOT
BRANCH   3   6
ATOM      5  C   UNL     1      35.004 -17.586 -23.202  0.00  0.00    +0.006 C 
ATOM      6  C   UNL     1      34.565 -16.309 -23.098  0.00  0.00    +0.058 C 
BRANCH   5  16
ATOM      7  O   UNL     1      36.577 -22.329 -17.340  0.00  0.00    -0.275 OA
ATOM      8  N   UNL     1      36.864 -20.699 -18.932  0.00  0.00    -0.270 N 
ATOM      9  N   UNL     1      37.239 -19.072 -20.607  0.00  0.00    -0.229 NA
ATOM     10  C   UNL     1      34.127 -20.962 -19.620  0.00  0.00    +0.039 C 
ATOM     11  C   UNL     1      35.049 -20.074 -20.398  0.00  0.00    +0.010 C 
ATOM     12  C   UNL     1      34.883 -22.139 -19.025  0.00  0.00    +0.090 C 
ATOM     13  C   UNL     1      36.382 -19.934 -20.012  0.00  0.00    +0.130 C 
ATOM     14  C   UNL     1      34.587 -19.289 -21.455  0.00  0.00    +0.000 C 
ATOM     15  C   UNL     1      36.161 -21.722 -18.326  0.00  0.00    +0.227 C 
ATOM     16  C   UNL     1      35.455 -18.411 -22.096  0.00  0.00    +0.019 C 
ATOM     17  C   UNL     1      36.757 -18.339 -21.636  0.00  0.00    +0.100 C 
ATOM     18  H   UNL     1      37.761 -20.491 -18.586  0.00  0.00    +0.156 HD
ENDBRANCH   5  16
ENDBRANCH   3   6
BRANCH   2  19
ATOM     19  C   UNL     1      33.408 -13.670 -22.780  0.00  0.00    +0.158 C 
BRANCH  19  21
ATOM     20  O   UNL     1      34.363 -11.633 -23.616  0.00  0.00    -0.456 OA
ATOM     21  C   UNL     1      33.370 -12.173 -22.885  0.00  0.00    +0.139 A 
ATOM     22  C   UNL     1      32.521 -11.244 -22.384  0.00  0.00    +0.013 A 
ATOM     23  C   UNL     1      33.018  -9.993 -22.836  0.00  0.00    +0.033 A 
ATOM     24  C   UNL     1      34.151 -10.287 -23.589  0.00  0.00    +0.145 A 
ATOM     25  C   UNL     1      31.329 -11.473 -21.544  0.00  0.00    +0.034 C 
ATOM     26  C   UNL     1      32.637  -8.648 -22.693  0.00  0.00    +0.003 C 
ATOM     27  C   UNL     1      34.942  -9.328 -24.218  0.00  0.00    +0.037 C 
ATOM     28  C   UNL     1      33.413  -7.660 -23.314  0.00  0.00    +0.000 C 
ATOM     29  C   UNL     1      34.545  -7.996 -24.061  0.00  0.00    +0.003 C 
ENDBRANCH  19  21
ENDBRANCH   2  19
TORSDOF 4
ENDMDL
MODEL 2
REMARK VINA RESULT:     -12.2      2.452      9.909
REMARK  Name = 10407120
REMARK  4 active torsions:
REMARK  status: ('A' for Active; 'I' for Inactive)
REMARK    1  A    between atoms: N_2  and  C_19
REMARK    2  A    between atoms: C_3  and  C_6
REMARK    3  A    between atoms: C_5  and  C_16
REMARK    4  A    between atoms: C_19  and  C_21
REMARK                            x       y       z     vdW  Elec       q    Type
REMARK                         _______ _______ _______ _____ _____    ______ ____
ROOT
ATOM      1  O   UNL     1      33.823 -16.619 -25.262  0.00  0.00    -0.270 OA
ATOM      2  N   UNL     1      34.830 -17.457 -23.341  0.00  0.00    -0.267 N 
ATOM      3  C   UNL     1      34.230 -16.456 -24.110  0.00  0.00    +0.250 C 
ATOM      4  C   UNL     1      35.000 -18.788 -23.909  0.00  0.00    +0.116 C 
ENDROOT
BRANCH   3   6
ATOM      5  C   UNL     1      33.288 -14.176 -23.985  0.00  0.00    +0.006 C 
ATOM      6  C   UNL     1      34.120 -15.112 -23.470  0.00  0.00    +0.058 C 
BRANCH   5  16
ATOM      7  O   UNL     1      31.905  -7.396 -20.601  0.00  0.00    -0.275 OA
ATOM      8  N   UNL     1      32.700  -8.928 -22.116  0.00  0.00    -0.270 N 
ATOM      9  N   UNL     1      33.612 -10.472 -23.660  0.00  0.00    -0.229 NA
ATOM     10  C   UNL     1      31.257 -10.950 -20.751  0.00  0.00    +0.039 C 
ATOM     11  C   UNL     1      32.181 -11.275 -21.885  0.00  0.00    +0.010 C 
ATOM     12  C   UNL     1      31.731  -9.712 -20.006  0.00  0.00    +0.090 C 
ATOM     13  C   UNL     1      32.847 -10.256 -22.564  0.00  0.00    +0.130 C 
ATOM     14  C   UNL     1      32.321 -12.580 -22.361  0.00  0.00    +0.000 C 
ATOM     15  C   UNL     1      32.081  -8.567 -20.936  0.00  0.00    +0.227 C 
ATOM     16  C   UNL     1      33.119 -12.829 -23.472  0.00  0.00    +0.019 C 
ATOM     17  C   UNL     1      33.734 -11.750 -24.081  0.00  0.00    +0.100 C 
ATOM     18  H   UNL     1      33.062  -8.210 -22.683  0.00  0.00    +0.156 HD
ENDBRANCH   5  16
ENDBRANCH   3   6
BRANCH   2  19
ATOM     19  C   UNL     1      35.351 -17.278 -21.987  0.00  0.00    +0.158 C 
BRANCH  19  21
ATOM     20  O   UNL     1      34.023 -19.002 -20.976  0.00  0.00    -0.456 OA
ATOM     21  C   UNL     1      35.271 -18.543 -21.183  0.00  0.00    +0.139 A 
ATOM     22  C   UNL     1      36.220 -19.326 -20.617  0.00  0.00    +0.013 A 
ATOM     23  C   UNL     1      35.512 -20.385 -19.989  0.00  0.00    +0.033 A 
ATOM     24  C   UNL     1      34.166 -20.139 -20.238  0.00  0.00    +0.145 A 
ATOM     25  C   UNL     1      37.683 -19.130 -20.642  0.00  0.00    +0.034 C 
ATOM     26  C   UNL     1      35.860 -21.521 -19.239  0.00  0.00    +0.003 C 
ATOM     27  C   UNL     1      33.127 -20.953 -19.791  0.00  0.00    +0.037 C 
ATOM     28  C   UNL     1      34.837 -22.359 -18.774  0.00  0.00    +0.000 C 
ATOM     29  C   UNL     1      33.496 -22.077 -19.045  0.00  0.00    +0.003 C 
ENDBRANCH  19  21
ENDBRANCH   2  19
TORSDOF 4
ENDMDL
MODEL 3
REMARK VINA RESULT:     -12.1      1.262      1.712
REMARK  Name = 10407120
REMARK  4 active torsions:
REMARK  status: ('A' for Active; 'I' for Inactive)
REMARK    1  A    between atoms: N_2  and  C_19
REMARK    2  A    between atoms: C_3  and  C_6
REMARK    3  A    between atoms: C_5  and  C_16
REMARK    4  A    between atoms: C_19  and  C_21
REMARK                            x       y       z     vdW  Elec       q    Type
REMARK                         _______ _______ _______ _____ _____    ______ ____
ROOT
ATOM      1  O   UNL     1      34.393 -17.294 -25.060  0.00  0.00    -0.270 OA
ATOM      2  N   UNL     1      34.344 -15.357 -23.775  0.00  0.00    -0.267 N 
ATOM      3  C   UNL     1      34.574 -16.720 -23.984  0.00  0.00    +0.250 C 
ATOM      4  C   UNL     1      33.860 -14.536 -24.878  0.00  0.00    +0.116 C 
ENDROOT
BRANCH   3   6
ATOM      5  C   UNL     1      34.452 -18.676 -22.482  0.00  0.00    +0.006 C 
ATOM      6  C   UNL     1      35.039 -17.498 -22.798  0.00  0.00    +0.058 C 
BRANCH   5  16
ATOM      7  O   UNL     1      35.402 -23.308 -16.401  0.00  0.00    -0.275 OA
ATOM      8  N   UNL     1      35.902 -21.823 -18.080  0.00  0.00    -0.270 N 
ATOM      9  N   UNL     1      36.487 -20.359 -19.843  0.00  0.00    -0.229 NA
ATOM     10  C   UNL     1      33.143 -21.693 -18.716  0.00  0.00    +0.039 C 
ATOM     11  C   UNL     1      34.174 -20.999 -19.552  0.00  0.00    +0.010 C 
ATOM     12  C   UNL     1      33.721 -22.942 -18.071  0.00  0.00    +0.090 C 
ATOM     13  C   UNL     1      35.520 -21.048 -19.193  0.00  0.00    +0.130 C 
ATOM     14  C   UNL     1      33.816 -20.205 -20.643  0.00  0.00    +0.000 C 
ATOM     15  C   UNL     1      35.063 -22.693 -17.412  0.00  0.00    +0.227 C 
ATOM     16  C   UNL     1      34.794 -19.505 -21.340  0.00  0.00    +0.019 C 
ATOM     17  C   UNL     1      36.101 -19.612 -20.902  0.00  0.00    +0.100 C 
ATOM     18  H   UNL     1      36.827 -21.739 -17.758  0.00  0.00    +0.156 HD
ENDBRANCH   5  16
ENDBRANCH   3   6
BRANCH   2  19
ATOM     19  C   UNL     1      34.518 -14.661 -22.501  0.00  0.00    +0.158 C 
BRANCH  19  21
ATOM     20  O   UNL     1      34.092 -12.491 -23.432  0.00  0.00    -0.456 OA
ATOM     21  C   UNL     1      33.764 -13.364 -22.462  0.00  0.00    +0.139 A 
ATOM     22  C   UNL     1      32.803 -12.891 -21.632  0.00  0.00    +0.013 A 
ATOM     23  C   UNL     1      32.488 -11.595 -22.117  0.00  0.00    +0.033 A 
ATOM     24  C   UNL     1      33.308 -11.396 -23.224  0.00  0.00    +0.145 A 
ATOM     25  C   UNL     1      32.204 -13.572 -20.468  0.00  0.00    +0.034 C 
ATOM     26  C   UNL     1      31.603 -10.569 -21.744  0.00  0.00    +0.003 C 
ATOM     27  C   UNL     1      33.311 -10.236 -23.996  0.00  0.00    +0.037 C 
ATOM     28  C   UNL     1      31.583  -9.390 -22.501  0.00  0.00    +0.000 C 
ATOM     29  C   UNL     1      32.423  -9.228 -23.606  0.00  0.00    +0.003 C 
ENDBRANCH  19  21
ENDBRANCH   2  19
TORSDOF 4
ENDMDL
MODEL 4
REMARK VINA RESULT:     -11.0      6.047     11.962
REMARK  Name = 10407120
REMARK  4 active torsions:
REMARK  status: ('A' for Active; 'I' for Inactive)
REMARK    1  A    between atoms: N_2  and  C_19
REMARK    2  A    between atoms: C_3  and  C_6
REMARK    3  A    between atoms: C_5  and  C_16
REMARK    4  A    between atoms: C_19  and  C_21
REMARK                            x       y       z     vdW  Elec       q    Type
REMARK                         _______ _______ _______ _____ _____    ______ ____
ROOT
ATOM      1  O   UNL     1      38.091 -22.268 -14.502  0.00  0.00    -0.270 OA
ATOM      2  N   UNL     1      36.873 -24.247 -14.548  0.00  0.00    -0.267 N 
ATOM      3  C   UNL     1      37.206 -22.967 -14.999  0.00  0.00    +0.250 C 
ATOM      4  C   UNL     1      37.598 -24.819 -13.422  0.00  0.00    +0.116 C 
ENDROOT
BRANCH   3   6
ATOM      5  C   UNL     1      37.011 -21.934 -17.234  0.00  0.00    +0.006 C 
ATOM      6  C   UNL     1      36.398 -22.439 -16.137  0.00  0.00    +0.058 C 
BRANCH   5  16
ATOM      7  O   UNL     1      34.188 -18.464 -23.505  0.00  0.00    -0.275 OA
ATOM      8  N   UNL     1      34.290 -19.807 -21.644  0.00  0.00    -0.270 N 
ATOM      9  N   UNL     1      34.370 -21.269 -19.787  0.00  0.00    -0.229 NA
ATOM     10  C   UNL     1      36.864 -18.757 -21.091  0.00  0.00    +0.039 C 
ATOM     11  C   UNL     1      36.280 -19.870 -20.277  0.00  0.00    +0.010 C 
ATOM     12  C   UNL     1      36.347 -18.803 -22.520  0.00  0.00    +0.090 C 
ATOM     13  C   UNL     1      34.995 -20.340 -20.548  0.00  0.00    +0.130 C 
ATOM     14  C   UNL     1      36.949 -20.395 -19.171  0.00  0.00    +0.000 C 
ATOM     15  C   UNL     1      34.843 -18.970 -22.594  0.00  0.00    +0.227 C 
ATOM     16  C   UNL     1      36.336 -21.366 -18.387  0.00  0.00    +0.019 C 
ATOM     17  C   UNL     1      35.057 -21.763 -18.733  0.00  0.00    +0.100 C 
ATOM     18  H   UNL     1      33.341 -20.046 -21.740  0.00  0.00    +0.156 HD
ENDBRANCH   5  16
ENDBRANCH   3   6
BRANCH   2  19
ATOM     19  C   UNL     1      35.806 -25.081 -15.100  0.00  0.00    +0.158 C 
BRANCH  19  21
ATOM     20  O   UNL     1      33.762 -24.161 -15.958  0.00  0.00    -0.456 OA
ATOM     21  C   UNL     1      34.448 -24.493 -14.849  0.00  0.00    +0.139 A 
ATOM     22  C   UNL     1      33.765 -24.228 -13.709  0.00  0.00    +0.013 A 
ATOM     23  C   UNL     1      32.527 -23.675 -14.130  0.00  0.00    +0.033 A 
ATOM     24  C   UNL     1      32.575 -23.654 -15.521  0.00  0.00    +0.145 A 
ATOM     25  C   UNL     1      34.205 -24.462 -12.320  0.00  0.00    +0.034 C 
ATOM     26  C   UNL     1      31.373 -23.189 -13.491  0.00  0.00    +0.003 C 
ATOM     27  C   UNL     1      31.546 -23.181 -16.331  0.00  0.00    +0.037 C 
ATOM     28  C   UNL     1      30.321 -22.706 -14.280  0.00  0.00    +0.000 C 
ATOM     29  C   UNL     1      30.408 -22.702 -15.675  0.00  0.00    +0.003 C 
ENDBRANCH  19  21
ENDBRANCH   2  19
TORSDOF 4
ENDMDL
MODEL 5
REMARK VINA RESULT:     -10.9      6.438     13.151
REMARK  Name = 10407120
REMARK  4 active torsions:
REMARK  status: ('A' for Active; 'I' for Inactive)
REMARK    1  A    between atoms: N_2  and  C_19
REMARK    2  A    between atoms: C_3  and  C_6
REMARK    3  A    between atoms: C_5  and  C_16
REMARK    4  A    between atoms: C_19  and  C_21
REMARK                            x       y       z     vdW  Elec       q    Type
REMARK                         _______ _______ _______ _____ _____    ______ ____
ROOT
ATOM      1  O   UNL     1      30.856 -24.545 -15.747  0.00  0.00    -0.270 OA
ATOM      2  N   UNL     1      32.017 -24.154 -13.771  0.00  0.00    -0.267 N 
ATOM      3  C   UNL     1      31.743 -23.956 -15.127  0.00  0.00    +0.250 C 
ATOM      4  C   UNL     1      31.221 -25.112 -13.014  0.00  0.00    +0.116 C 
ENDROOT
BRANCH   3   6
ATOM      5  C   UNL     1      33.252 -23.340 -16.983  0.00  0.00    +0.006 C 
ATOM      6  C   UNL     1      32.622 -22.982 -15.839  0.00  0.00    +0.058 C 
BRANCH   5  16
ATOM      7  O   UNL     1      37.309 -18.606 -21.507  0.00  0.00    -0.275 OA
ATOM      8  N   UNL     1      36.833 -20.131 -19.857  0.00  0.00    -0.270 N 
ATOM      9  N   UNL     1      36.385 -21.638 -18.090  0.00  0.00    -0.229 NA
ATOM     10  C   UNL     1      34.159 -20.230 -20.791  0.00  0.00    +0.039 C 
ATOM     11  C   UNL     1      34.584 -20.956 -19.552  0.00  0.00    +0.010 C 
ATOM     12  C   UNL     1      34.996 -18.978 -20.998  0.00  0.00    +0.090 C 
ATOM     13  C   UNL     1      35.915 -20.922 -19.138  0.00  0.00    +0.130 C 
ATOM     14  C   UNL     1      33.698 -21.766 -18.839  0.00  0.00    +0.000 C 
ATOM     15  C   UNL     1      36.482 -19.235 -20.847  0.00  0.00    +0.227 C 
ATOM     16  C   UNL     1      34.152 -22.495 -17.746  0.00  0.00    +0.019 C 
ATOM     17  C   UNL     1      35.492 -22.399 -17.417  0.00  0.00    +0.100 C 
ATOM     18  H   UNL     1      37.788 -20.223 -19.639  0.00  0.00    +0.156 HD
ENDBRANCH   5  16
ENDBRANCH   3   6
BRANCH   2  19
ATOM     19  C   UNL     1      33.084 -23.492 -13.023  0.00  0.00    +0.158 C 
BRANCH  19  21
ATOM     20  O   UNL     1      34.615 -24.868 -14.258  0.00  0.00    -0.456 OA
ATOM     21  C   UNL     1      34.371 -24.263 -13.080  0.00  0.00    +0.139 A 
ATOM     22  C   UNL     1      35.350 -24.474 -12.169  0.00  0.00    +0.013 A 
ATOM     23  C   UNL     1      36.310 -25.289 -12.825  0.00  0.00    +0.033 A 
ATOM     24  C   UNL     1      35.811 -25.503 -14.106  0.00  0.00    +0.145 A 
ATOM     25  C   UNL     1      35.416 -23.967 -10.783  0.00  0.00    +0.034 C 
ATOM     26  C   UNL     1      37.542 -25.869 -12.478  0.00  0.00    +0.003 C 
ATOM     27  C   UNL     1      36.458 -26.261 -15.080  0.00  0.00    +0.037 C 
ATOM     28  C   UNL     1      38.216 -26.637 -13.437  0.00  0.00    +0.000 C 
ATOM     29  C   UNL     1      37.681 -26.829 -14.713  0.00  0.00    +0.003 C 
ENDBRANCH  19  21
ENDBRANCH   2  19
TORSDOF 4
ENDMDL
MODEL 6
REMARK VINA RESULT:     -10.8      7.535     10.979
REMARK  Name = 10407120
REMARK  4 active torsions:
REMARK  status: ('A' for Active; 'I' for Inactive)
REMARK    1  A    between atoms: N_2  and  C_19
REMARK    2  A    between atoms: C_3  and  C_6
REMARK    3  A    between atoms: C_5  and  C_16
REMARK    4  A    between atoms: C_19  and  C_21
REMARK                            x       y       z     vdW  Elec       q    Type
REMARK                         _______ _______ _______ _____ _____    ______ ____
ROOT
ATOM      1  O   UNL     1      31.949 -22.776 -13.663  0.00  0.00    -0.270 OA
ATOM      2  N   UNL     1      32.092 -23.247 -15.935  0.00  0.00    -0.267 N 
ATOM      3  C   UNL     1      32.532 -23.308 -14.609  0.00  0.00    +0.250 C 
ATOM      4  C   UNL     1      30.872 -22.516 -16.250  0.00  0.00    +0.116 C 
ENDROOT
BRANCH   3   6
ATOM      5  C   UNL     1      34.942 -23.376 -14.076  0.00  0.00    +0.006 C 
ATOM      6  C   UNL     1      33.805 -24.049 -14.372  0.00  0.00    +0.058 C 
BRANCH   5  16
ATOM      7  O   UNL     1      41.629 -27.164 -13.558  0.00  0.00    -0.275 OA
ATOM      8  N   UNL     1      39.984 -25.623 -13.120  0.00  0.00    -0.270 N 
ATOM      9  N   UNL     1      38.357 -23.962 -12.685  0.00  0.00    -0.229 NA
ATOM     10  C   UNL     1      38.306 -26.965 -14.968  0.00  0.00    +0.039 C 
ATOM     11  C   UNL     1      37.888 -25.681 -14.319  0.00  0.00    +0.010 C 
ATOM     12  C   UNL     1      39.817 -27.027 -15.122  0.00  0.00    +0.090 C 
ATOM     13  C   UNL     1      38.718 -25.064 -13.383  0.00  0.00    +0.130 C 
ATOM     14  C   UNL     1      36.629 -25.124 -14.546  0.00  0.00    +0.000 C 
ATOM     15  C   UNL     1      40.551 -26.648 -13.851  0.00  0.00    +0.227 C 
ATOM     16  C   UNL     1      36.244 -23.980 -13.856  0.00  0.00    +0.019 C 
ATOM     17  C   UNL     1      37.135 -23.445 -12.944  0.00  0.00    +0.100 C 
ATOM     18  H   UNL     1      40.498 -25.259 -12.364  0.00  0.00    +0.156 HD
ENDBRANCH   5  16
ENDBRANCH   3   6
BRANCH   2  19
ATOM     19  C   UNL     1      32.784 -23.842 -17.077  0.00  0.00    +0.158 C 
BRANCH  19  21
ATOM     20  O   UNL     1      32.552 -22.262 -18.869  0.00  0.00    -0.456 OA
ATOM     21  C   UNL     1      33.395 -22.799 -17.968  0.00  0.00    +0.139 A 
ATOM     22  C   UNL     1      34.645 -22.283 -18.045  0.00  0.00    +0.013 A 
ATOM     23  C   UNL     1      34.596 -21.327 -19.094  0.00  0.00    +0.033 A 
ATOM     24  C   UNL     1      33.288 -21.353 -19.567  0.00  0.00    +0.145 A 
ATOM     25  C   UNL     1      35.817 -22.634 -17.219  0.00  0.00    +0.034 C 
ATOM     26  C   UNL     1      35.511 -20.445 -19.694  0.00  0.00    +0.003 C 
ATOM     27  C   UNL     1      32.818 -20.553 -20.607  0.00  0.00    +0.037 C 
ATOM     28  C   UNL     1      35.067 -19.628 -20.743  0.00  0.00    +0.000 C 
ATOM     29  C   UNL     1      33.745 -19.684 -21.190  0.00  0.00    +0.003 C 
ENDBRANCH  19  21
ENDBRANCH   2  19
TORSDOF 4
ENDMDL
MODEL 7
REMARK VINA RESULT:     -10.7      2.134      3.505
REMARK  Name = 10407120
REMARK  4 active torsions:
REMARK  status: ('A' for Active; 'I' for Inactive)
REMARK    1  A    between atoms: N_2  and  C_19
REMARK    2  A    between atoms: C_3  and  C_6
REMARK    3  A    between atoms: C_5  and  C_16
REMARK    4  A    between atoms: C_19  and  C_21
REMARK                            x       y       z     vdW  Elec       q    Type
REMARK                         _______ _______ _______ _____ _____    ______ ____
ROOT
ATOM      1  O   UNL     1      34.506 -19.085 -24.006  0.00  0.00    -0.270 OA
ATOM      2  N   UNL     1      34.932 -16.996 -23.078  0.00  0.00    -0.267 N 
ATOM      3  C   UNL     1      34.803 -18.388 -23.034  0.00  0.00    +0.250 C 
ATOM      4  C   UNL     1      34.707 -16.298 -24.337  0.00  0.00    +0.116 C 
ENDROOT
BRANCH   3   6
ATOM      5  C   UNL     1      34.353 -20.159 -21.373  0.00  0.00    +0.006 C 
ATOM      6  C   UNL     1      35.018 -19.026 -21.702  0.00  0.00    +0.058 C 
BRANCH   5  16
ATOM      7  O   UNL     1      35.761 -23.612 -14.632  0.00  0.00    -0.275 OA
ATOM      8  N   UNL     1      34.614 -22.877 -16.482  0.00  0.00    -0.270 N 
ATOM      9  N   UNL     1      33.367 -22.074 -18.324  0.00  0.00    -0.229 NA
ATOM     10  C   UNL     1      37.056 -21.913 -17.550  0.00  0.00    +0.039 C 
ATOM     11  C   UNL     1      35.746 -21.658 -18.232  0.00  0.00    +0.010 C 
ATOM     12  C   UNL     1      36.869 -22.023 -16.045  0.00  0.00    +0.090 C 
ATOM     13  C   UNL     1      34.566 -22.179 -17.704  0.00  0.00    +0.130 C 
ATOM     14  C   UNL     1      35.678 -20.992 -19.456  0.00  0.00    +0.000 C 
ATOM     15  C   UNL     1      35.724 -22.938 -15.662  0.00  0.00    +0.227 C 
ATOM     16  C   UNL     1      34.455 -20.853 -20.102  0.00  0.00    +0.019 C 
ATOM     17  C   UNL     1      33.341 -21.409 -19.500  0.00  0.00    +0.100 C 
ATOM     18  H   UNL     1      33.803 -23.353 -16.192  0.00  0.00    +0.156 HD
ENDBRANCH   5  16
ENDBRANCH   3   6
BRANCH   2  19
ATOM     19  C   UNL     1      35.249 -16.146 -21.933  0.00  0.00    +0.158 C 
BRANCH  19  21
ATOM     20  O   UNL     1      34.649 -14.079 -22.996  0.00  0.00    -0.456 OA
ATOM     21  C   UNL     1      34.443 -14.880 -21.933  0.00  0.00    +0.139 A 
ATOM     22  C   UNL     1      33.534 -14.376 -21.064  0.00  0.00    +0.013 A 
ATOM     23  C   UNL     1      33.121 -13.138 -21.623  0.00  0.00    +0.033 A 
ATOM     24  C   UNL     1      33.836 -13.002 -22.809  0.00  0.00    +0.145 A 
ATOM     25  C   UNL     1      33.066 -14.978 -19.800  0.00  0.00    +0.034 C 
ATOM     26  C   UNL     1      32.225 -12.119 -21.258  0.00  0.00    +0.003 C 
ATOM     27  C   UNL     1      33.721 -11.913 -23.670  0.00  0.00    +0.037 C 
ATOM     28  C   UNL     1      32.088 -11.010 -22.104  0.00  0.00    +0.000 C 
ATOM     29  C   UNL     1      32.824 -10.910 -23.287  0.00  0.00    +0.003 C 
ENDBRANCH  19  21
ENDBRANCH   2  19
TORSDOF 4
ENDMDL
MODEL 8
REMARK VINA RESULT:     -10.5      3.920     11.444
REMARK  Name = 10407120
REMARK  4 active torsions:
REMARK  status: ('A' for Active; 'I' for Inactive)
REMARK    1  A    between atoms: N_2  and  C_19
REMARK    2  A    between atoms: C_3  and  C_6
REMARK    3  A    between atoms: C_5  and  C_16
REMARK    4  A    between atoms: C_19  and  C_21
REMARK                            x       y       z     vdW  Elec       q    Type
REMARK                         _______ _______ _______ _____ _____    ______ ____
ROOT
ATOM      1  O   UNL     1      30.662 -11.030 -20.820  0.00  0.00    -0.270 OA
ATOM      2  N   UNL     1      32.515 -12.169 -21.641  0.00  0.00    -0.267 N 
ATOM      3  C   UNL     1      31.648 -11.075 -21.557  0.00  0.00    +0.250 C 
ATOM      4  C   UNL     1      32.263 -13.344 -20.817  0.00  0.00    +0.116 C 
ENDROOT
BRANCH   3   6
ATOM      5  C   UNL     1      31.946  -8.658 -21.970  0.00  0.00    +0.006 C 
ATOM      6  C   UNL     1      31.955  -9.922 -22.455  0.00  0.00    +0.058 C 
BRANCH   5  16
ATOM      7  O   UNL     1      34.099  -2.623 -26.245  0.00  0.00    -0.275 OA
ATOM      8  N   UNL     1      32.790  -3.980 -24.933  0.00  0.00    -0.270 N 
ATOM      9  N   UNL     1      31.372  -5.377 -23.656  0.00  0.00    -0.229 NA
ATOM     10  C   UNL     1      35.015  -5.701 -24.583  0.00  0.00    +0.039 C 
ATOM     11  C   UNL     1      33.660  -6.052 -24.050  0.00  0.00    +0.010 C 
ATOM     12  C   UNL     1      34.898  -4.846 -25.835  0.00  0.00    +0.090 C 
ATOM     13  C   UNL     1      32.593  -5.168 -24.202  0.00  0.00    +0.130 C 
ATOM     14  C   UNL     1      33.448  -7.211 -23.301  0.00  0.00    +0.000 C 
ATOM     15  C   UNL     1      33.923  -3.698 -25.671  0.00  0.00    +0.227 C 
ATOM     16  C   UNL     1      32.197  -7.459 -22.747  0.00  0.00    +0.019 C 
ATOM     17  C   UNL     1      31.203  -6.518 -22.950  0.00  0.00    +0.100 C 
ATOM     18  H   UNL     1      32.074  -3.306 -24.916  0.00  0.00    +0.156 HD
ENDBRANCH   5  16
ENDBRANCH   3   6
BRANCH   2  19
ATOM     19  C   UNL     1      33.670 -12.259 -22.532  0.00  0.00    +0.158 C 
BRANCH  19  21
ATOM     20  O   UNL     1      34.562 -14.414 -21.967  0.00  0.00    -0.456 OA
ATOM     21  C   UNL     1      33.967 -13.677 -22.924  0.00  0.00    +0.139 A 
ATOM     22  C   UNL     1      33.752 -14.373 -24.066  0.00  0.00    +0.013 A 
ATOM     23  C   UNL     1      34.256 -15.676 -23.816  0.00  0.00    +0.033 A 
ATOM     24  C   UNL     1      34.743 -15.649 -22.513  0.00  0.00    +0.145 A 
ATOM     25  C   UNL     1      33.126 -13.888 -25.312  0.00  0.00    +0.034 C 
ATOM     26  C   UNL     1      34.355 -16.873 -24.545  0.00  0.00    +0.003 C 
ATOM     27  C   UNL     1      35.328 -16.741 -21.874  0.00  0.00    +0.037 C 
ATOM     28  C   UNL     1      34.939 -17.989 -23.930  0.00  0.00    +0.000 C 
ATOM     29  C   UNL     1      35.417 -17.921 -22.619  0.00  0.00    +0.003 C 
ENDBRANCH  19  21
ENDBRANCH   2  19
TORSDOF 4
ENDMDL
MODEL 9
REMARK VINA RESULT:     -10.3      5.902     12.081
REMARK  Name = 10407120
REMARK  4 active torsions:
REMARK  status: ('A' for Active; 'I' for Inactive)
REMARK    1  A    between atoms: N_2  and  C_19
REMARK    2  A    between atoms: C_3  and  C_6
REMARK    3  A    between atoms: C_5  and  C_16
REMARK    4  A    between atoms: C_19  and  C_21
REMARK                            x       y       z     vdW  Elec       q    Type
REMARK                         _______ _______ _______ _____ _____    ______ ____
ROOT
ATOM      1  O   UNL     1      36.191 -24.827 -15.378  0.00  0.00    -0.270 OA
ATOM      2  N   UNL     1      34.630 -23.746 -14.037  0.00  0.00    -0.267 N 
ATOM      3  C   UNL     1      35.287 -24.001 -15.245  0.00  0.00    +0.250 C 
ATOM      4  C   UNL     1      35.017 -24.486 -12.844  0.00  0.00    +0.116 C 
ENDROOT
BRANCH   3   6
ATOM      5  C   UNL     1      35.774 -22.573 -17.200  0.00  0.00    +0.006 C 
ATOM      6  C   UNL     1      34.854 -23.181 -16.414  0.00  0.00    +0.058 C 
BRANCH   5  16
ATOM      7  O   UNL     1      35.067 -17.866 -23.256  0.00  0.00    -0.275 OA
ATOM      8  N   UNL     1      34.493 -19.342 -21.593  0.00  0.00    -0.270 N 
ATOM      9  N   UNL     1      33.864 -20.926 -19.952  0.00  0.00    -0.229 NA
ATOM     10  C   UNL     1      37.136 -19.158 -20.587  0.00  0.00    +0.039 C 
ATOM     11  C   UNL     1      36.142 -20.117 -20.008  0.00  0.00    +0.010 C 
ATOM     12  C   UNL     1      36.860 -18.918 -22.063  0.00  0.00    +0.090 C 
ATOM     13  C   UNL     1      34.837 -20.158 -20.498  0.00  0.00    +0.130 C 
ATOM     14  C   UNL     1      36.454 -20.915 -18.907  0.00  0.00    +0.000 C 
ATOM     15  C   UNL     1      35.401 -18.625 -22.346  0.00  0.00    +0.227 C 
ATOM     16  C   UNL     1      35.477 -21.728 -18.342  0.00  0.00    +0.019 C 
ATOM     17  C   UNL     1      34.210 -21.695 -18.895  0.00  0.00    +0.100 C 
ATOM     18  H   UNL     1      33.542 -19.280 -21.838  0.00  0.00    +0.156 HD
ENDBRANCH   5  16
ENDBRANCH   3   6
BRANCH   2  19
ATOM     19  C   UNL     1      33.578 -22.749 -13.847  0.00  0.00    +0.158 C 
BRANCH  19  21
ATOM     20  O   UNL     1      31.655 -22.545 -15.268  0.00  0.00    -0.456 OA
ATOM     21  C   UNL     1      32.236 -23.258 -14.285  0.00  0.00    +0.139 A 
ATOM     22  C   UNL     1      31.483 -24.309 -13.883  0.00  0.00    +0.013 A 
ATOM     23  C   UNL     1      30.310 -24.264 -14.683  0.00  0.00    +0.033 A 
ATOM     24  C   UNL     1      30.465 -23.161 -15.517  0.00  0.00    +0.145 A 
ATOM     25  C   UNL     1      31.803 -25.299 -12.835  0.00  0.00    +0.034 C 
ATOM     26  C   UNL     1      29.138 -25.030 -14.793  0.00  0.00    +0.003 C 
ATOM     27  C   UNL     1      29.527 -22.761 -16.466  0.00  0.00    +0.037 C 
ATOM     28  C   UNL     1      28.175 -24.653 -15.739  0.00  0.00    +0.000 C 
ATOM     29  C   UNL     1      28.368 -23.538 -16.559  0.00  0.00    +0.003 C 
ENDBRANCH  19  21
ENDBRANCH   2  19
TORSDOF 4
ENDMDL
