MODEL 1
REMARK VINA RESULT:     -12.0      0.000      0.000
REMARK  Name = 6914657
REMARK  8 active torsions:
REMARK  status: ('A' for Active; 'I' for Inactive)
REMARK    1  A    between atoms: C_1  and  C_4
REMARK    2  A    between atoms: C_1  and  C_16
REMARK    3  A    between atoms: C_9  and  C_10
REMARK    4  A    between atoms: C_16  and  C_17
REMARK    5  A    between atoms: C_17  and  C_18
REMARK    6  A    between atoms: C_18  and  N_20
REMARK    7  A    between atoms: C_21  and  C_23
REMARK    8  A    between atoms: C_24  and  C_26
REMARK                            x       y       z     vdW  Elec       q    Type
REMARK                         _______ _______ _______ _____ _____    ______ ____
ROOT
ATOM      1  C   UNL     1      32.171 -13.101 -21.010  0.00  0.00    +0.000 C 
ENDROOT
BRANCH   1   4
ATOM      2  O   UNL     1      33.122  -7.148 -19.453  0.00  0.00    -0.270 OA
ATOM      3  N   UNL     1      32.062  -8.818 -20.699  0.00  0.00    -0.276 N 
ATOM      4  C   UNL     1      31.634 -11.674 -20.916  0.00  0.00    +0.003 C 
ATOM      5  C   UNL     1      32.106 -10.832 -22.112  0.00  0.00    +0.022 C 
ATOM      6  C   UNL     1      32.064 -11.015 -19.595  0.00  0.00    +0.022 C 
ATOM      7  C   UNL     1      31.637  -9.384 -21.985  0.00  0.00    +0.094 C 
ATOM      8  C   UNL     1      31.604  -9.560 -19.525  0.00  0.00    +0.094 C 
ATOM      9  C   UNL     1      32.802  -7.645 -20.531  0.00  0.00    +0.249 C 
BRANCH   9  10
ATOM     10  C   UNL     1      33.256  -6.934 -21.732  0.00  0.00    +0.054 C 
ATOM     11  C   UNL     1      34.430  -7.329 -22.375  0.00  0.00    +0.005 C 
ATOM     12  C   UNL     1      32.515  -5.864 -22.232  0.00  0.00    +0.005 C 
ATOM     13  C   UNL     1      34.862  -6.653 -23.515  0.00  0.00    +0.000 C 
ATOM     14  C   UNL     1      32.946  -5.188 -23.373  0.00  0.00    +0.000 C 
ATOM     15  C   UNL     1      34.121  -5.583 -24.015  0.00  0.00    +0.000 C 
ENDBRANCH   9  10
ENDBRANCH   1   4
BRANCH   1  16
ATOM     16  C   UNL     1      32.902 -13.330 -22.330  0.00  0.00    +0.002 C 
BRANCH  16  17
ATOM     17  C   UNL     1      34.292 -13.920 -22.094  0.00  0.00    +0.021 C 
BRANCH  17  18
ATOM     18  C   UNL     1      34.669 -14.908 -23.190  0.00  0.00    +0.090 C 
BRANCH  18  20
ATOM     19  O   UNL     1      34.697 -17.363 -24.729  0.00  0.00    -0.270 OA
ATOM     20  N   UNL     1      34.749 -16.252 -22.687  0.00  0.00    -0.301 N 
ATOM     21  C   UNL     1      34.757 -17.375 -23.504  0.00  0.00    +0.246 C 
ATOM     22  H   UNL     1      34.802 -16.382 -21.712  0.00  0.00    +0.150 HD
BRANCH  21  23
ATOM     23  C   UNL     1      34.848 -18.639 -22.719  0.00  0.00    +0.058 C 
ATOM     24  C   UNL     1      35.014 -18.592 -21.390  0.00  0.00    +0.006 C 
BRANCH  24  26
ATOM     25  N   UNL     1      36.492 -21.310 -19.262  0.00  0.00    -0.242 NA
ATOM     26  C   UNL     1      35.108 -19.773 -20.515  0.00  0.00    +0.019 C 
ATOM     27  C   UNL     1      33.968 -20.463 -20.116  0.00  0.00    +0.003 C 
ATOM     28  C   UNL     1      36.335 -20.233 -20.065  0.00  0.00    +0.099 C 
ATOM     29  C   UNL     1      34.089 -21.575 -19.290  0.00  0.00    +0.021 C 
ATOM     30  C   UNL     1      35.361 -21.955 -18.895  0.00  0.00    +0.099 C 
ENDBRANCH  24  26
ENDBRANCH  21  23
ENDBRANCH  18  20
ENDBRANCH  17  18
ENDBRANCH  16  17
ENDBRANCH   1  16
TORSDOF 8
ENDMDL
MODEL 2
REMARK VINA RESULT:     -10.9      6.695     14.678
REMARK  Name = 6914657
REMARK  8 active torsions:
REMARK  status: ('A' for Active; 'I' for Inactive)
REMARK    1  A    between atoms: C_1  and  C_4
REMARK    2  A    between atoms: C_1  and  C_16
REMARK    3  A    between atoms: C_9  and  C_10
REMARK    4  A    between atoms: C_16  and  C_17
REMARK    5  A    between atoms: C_17  and  C_18
REMARK    6  A    between atoms: C_18  and  N_20
REMARK    7  A    between atoms: C_21  and  C_23
REMARK    8  A    between atoms: C_24  and  C_26
REMARK                            x       y       z     vdW  Elec       q    Type
REMARK                         _______ _______ _______ _____ _____    ______ ____
ROOT
ATOM      1  C   UNL     1      32.772 -23.421 -15.356  0.00  0.00    +0.000 C 
ENDROOT
BRANCH   1   4
ATOM      2  O   UNL     1      36.781 -26.326 -11.581  0.00  0.00    -0.270 OA
ATOM      3  N   UNL     1      36.194 -24.599 -13.044  0.00  0.00    -0.276 N 
ATOM      4  C   UNL     1      33.983 -23.343 -14.430  0.00  0.00    +0.003 C 
ATOM      5  C   UNL     1      35.263 -23.773 -15.166  0.00  0.00    +0.022 C 
ATOM      6  C   UNL     1      33.771 -24.209 -13.177  0.00  0.00    +0.022 C 
ATOM      7  C   UNL     1      36.466 -23.771 -14.225  0.00  0.00    +0.094 C 
ATOM      8  C   UNL     1      35.009 -24.206 -12.283  0.00  0.00    +0.094 C 
ATOM      9  C   UNL     1      36.985 -25.659 -12.593  0.00  0.00    +0.249 C 
BRANCH   9  10
ATOM     10  C   UNL     1      38.160 -26.034 -13.389  0.00  0.00    +0.054 C 
ATOM     11  C   UNL     1      38.024 -26.916 -14.461  0.00  0.00    +0.005 C 
ATOM     12  C   UNL     1      39.413 -25.508 -13.074  0.00  0.00    +0.005 C 
ATOM     13  C   UNL     1      39.140 -27.273 -15.217  0.00  0.00    +0.000 C 
ATOM     14  C   UNL     1      40.529 -25.864 -13.831  0.00  0.00    +0.000 C 
ATOM     15  C   UNL     1      40.393 -26.747 -14.903  0.00  0.00    +0.000 C 
ENDBRANCH   9  10
ENDBRANCH   1   4
BRANCH   1  16
ATOM     16  C   UNL     1      33.185 -23.802 -16.775  0.00  0.00    +0.002 C 
BRANCH  16  17
ATOM     17  C   UNL     1      33.020 -22.620 -17.731  0.00  0.00    +0.021 C 
BRANCH  17  18
ATOM     18  C   UNL     1      34.182 -22.535 -18.713  0.00  0.00    +0.090 C 
BRANCH  18  20
ATOM     19  O   UNL     1      36.427 -20.986 -19.692  0.00  0.00    -0.270 OA
ATOM     20  N   UNL     1      34.135 -21.323 -19.485  0.00  0.00    -0.301 N 
ATOM     21  C   UNL     1      35.269 -20.646 -19.913  0.00  0.00    +0.246 C 
ATOM     22  H   UNL     1      33.253 -20.956 -19.723  0.00  0.00    +0.150 HD
BRANCH  21  23
ATOM     23  C   UNL     1      34.930 -19.422 -20.695  0.00  0.00    +0.058 C 
ATOM     24  C   UNL     1      35.142 -19.393 -22.018  0.00  0.00    +0.006 C 
BRANCH  24  26
ATOM     25  N   UNL     1      33.816 -17.402 -24.912  0.00  0.00    -0.242 NA
ATOM     26  C   UNL     1      34.837 -18.244 -22.889  0.00  0.00    +0.019 C 
ATOM     27  C   UNL     1      35.251 -16.960 -22.554  0.00  0.00    +0.003 C 
ATOM     28  C   UNL     1      34.129 -18.411 -24.068  0.00  0.00    +0.099 C 
ATOM     29  C   UNL     1      34.948 -15.896 -23.397  0.00  0.00    +0.021 C 
ATOM     30  C   UNL     1      34.236 -16.167 -24.553  0.00  0.00    +0.099 C 
ENDBRANCH  24  26
ENDBRANCH  21  23
ENDBRANCH  18  20
ENDBRANCH  17  18
ENDBRANCH  16  17
ENDBRANCH   1  16
TORSDOF 8
ENDMDL
MODEL 3
REMARK VINA RESULT:     -10.9      8.068     11.842
REMARK  Name = 6914657
REMARK  8 active torsions:
REMARK  status: ('A' for Active; 'I' for Inactive)
REMARK    1  A    between atoms: C_1  and  C_4
REMARK    2  A    between atoms: C_1  and  C_16
REMARK    3  A    between atoms: C_9  and  C_10
REMARK    4  A    between atoms: C_16  and  C_17
REMARK    5  A    between atoms: C_17  and  C_18
REMARK    6  A    between atoms: C_18  and  N_20
REMARK    7  A    between atoms: C_21  and  C_23
REMARK    8  A    between atoms: C_24  and  C_26
REMARK                            x       y       z     vdW  Elec       q    Type
REMARK                         _______ _______ _______ _____ _____    ______ ____
ROOT
ATOM      1  C   UNL     1      36.833 -22.145 -15.654  0.00  0.00    +0.000 C 
ENDROOT
BRANCH   1   4
ATOM      2  O   UNL     1      32.588 -20.699 -19.973  0.00  0.00    -0.270 OA
ATOM      3  N   UNL     1      34.656 -21.566 -19.311  0.00  0.00    -0.276 N 
ATOM      4  C   UNL     1      36.228 -22.412 -17.031  0.00  0.00    +0.003 C 
ATOM      5  C   UNL     1      36.775 -21.420 -18.070  0.00  0.00    +0.022 C 
ATOM      6  C   UNL     1      34.693 -22.337 -16.977  0.00  0.00    +0.022 C 
ATOM      7  C   UNL     1      36.118 -21.631 -19.432  0.00  0.00    +0.094 C 
ATOM      8  C   UNL     1      34.079 -22.519 -18.364  0.00  0.00    +0.094 C 
ATOM      9  C   UNL     1      33.815 -20.724 -20.043  0.00  0.00    +0.249 C 
BRANCH   9  10
ATOM     10  C   UNL     1      34.430 -19.772 -20.975  0.00  0.00    +0.054 C 
ATOM     11  C   UNL     1      34.025 -19.742 -22.311  0.00  0.00    +0.005 C 
ATOM     12  C   UNL     1      35.418 -18.896 -20.528  0.00  0.00    +0.005 C 
ATOM     13  C   UNL     1      34.609 -18.837 -23.196  0.00  0.00    +0.000 C 
ATOM     14  C   UNL     1      36.002 -17.990 -21.414  0.00  0.00    +0.000 C 
ATOM     15  C   UNL     1      35.597 -17.961 -22.749  0.00  0.00    +0.000 C 
ENDBRANCH   9  10
ENDBRANCH   1   4
BRANCH   1  16
ATOM     16  C   UNL     1      37.559 -23.378 -15.122  0.00  0.00    +0.002 C 
BRANCH  16  17
ATOM     17  C   UNL     1      37.159 -23.671 -13.676  0.00  0.00    +0.021 C 
BRANCH  17  18
ATOM     18  C   UNL     1      36.399 -24.987 -13.567  0.00  0.00    +0.090 C 
BRANCH  18  20
ATOM     19  O   UNL     1      34.468 -24.043 -11.624  0.00  0.00    -0.270 OA
ATOM     20  N   UNL     1      34.987 -24.801 -13.761  0.00  0.00    -0.301 N 
ATOM     21  C   UNL     1      34.134 -24.341 -12.766  0.00  0.00    +0.246 C 
ATOM     22  H   UNL     1      34.606 -25.009 -14.644  0.00  0.00    +0.150 HD
BRANCH  21  23
ATOM     23  C   UNL     1      32.723 -24.241 -13.239  0.00  0.00    +0.058 C 
ATOM     24  C   UNL     1      32.466 -23.878 -14.504  0.00  0.00    +0.006 C 
BRANCH  24  26
ATOM     25  N   UNL     1      29.628 -22.656 -16.637  0.00  0.00    -0.242 NA
ATOM     26  C   UNL     1      31.116 -23.756 -15.080  0.00  0.00    +0.019 C 
ATOM     27  C   UNL     1      30.075 -24.574 -14.653  0.00  0.00    +0.003 C 
ATOM     28  C   UNL     1      30.842 -22.821 -16.067  0.00  0.00    +0.099 C 
ATOM     29  C   UNL     1      28.812 -24.434 -15.216  0.00  0.00    +0.021 C 
ATOM     30  C   UNL     1      28.641 -23.469 -16.195  0.00  0.00    +0.099 C 
ENDBRANCH  24  26
ENDBRANCH  21  23
ENDBRANCH  18  20
ENDBRANCH  17  18
ENDBRANCH  16  17
ENDBRANCH   1  16
TORSDOF 8
ENDMDL
MODEL 4
REMARK VINA RESULT:     -10.6      5.486     13.749
REMARK  Name = 6914657
REMARK  8 active torsions:
REMARK  status: ('A' for Active; 'I' for Inactive)
REMARK    1  A    between atoms: C_1  and  C_4
REMARK    2  A    between atoms: C_1  and  C_16
REMARK    3  A    between atoms: C_9  and  C_10
REMARK    4  A    between atoms: C_16  and  C_17
REMARK    5  A    between atoms: C_17  and  C_18
REMARK    6  A    between atoms: C_18  and  N_20
REMARK    7  A    between atoms: C_21  and  C_23
REMARK    8  A    between atoms: C_24  and  C_26
REMARK                            x       y       z     vdW  Elec       q    Type
REMARK                         _______ _______ _______ _____ _____    ______ ____
ROOT
ATOM      1  C   UNL     1      33.452 -23.181 -18.304  0.00  0.00    +0.000 C 
ENDROOT
BRANCH   1   4
ATOM      2  O   UNL     1      33.195 -24.803 -12.298  0.00  0.00    -0.270 OA
ATOM      3  N   UNL     1      33.931 -23.431 -14.043  0.00  0.00    -0.276 N 
ATOM      4  C   UNL     1      33.544 -22.770 -16.836  0.00  0.00    +0.003 C 
ATOM      5  C   UNL     1      34.934 -23.092 -16.264  0.00  0.00    +0.022 C 
ATOM      6  C   UNL     1      32.451 -23.463 -16.006  0.00  0.00    +0.022 C 
ATOM      7  C   UNL     1      35.009 -22.756 -14.777  0.00  0.00    +0.094 C 
ATOM      8  C   UNL     1      32.583 -23.126 -14.522  0.00  0.00    +0.094 C 
ATOM      9  C   UNL     1      34.099 -24.270 -12.939  0.00  0.00    +0.249 C 
BRANCH   9  10
ATOM     10  C   UNL     1      35.467 -24.565 -12.494  0.00  0.00    +0.054 C 
ATOM     11  C   UNL     1      36.234 -25.511 -13.176  0.00  0.00    +0.005 C 
ATOM     12  C   UNL     1      36.001 -23.899 -11.391  0.00  0.00    +0.005 C 
ATOM     13  C   UNL     1      37.533 -25.790 -12.753  0.00  0.00    +0.000 C 
ATOM     14  C   UNL     1      37.301 -24.178 -10.969  0.00  0.00    +0.000 C 
ATOM     15  C   UNL     1      38.066 -25.125 -11.650  0.00  0.00    +0.000 C 
ENDBRANCH   9  10
ENDBRANCH   1   4
BRANCH   1  16
ATOM     16  C   UNL     1      33.924 -22.057 -19.223  0.00  0.00    +0.002 C 
BRANCH  16  17
ATOM     17  C   UNL     1      35.364 -22.288 -19.679  0.00  0.00    +0.021 C 
BRANCH  17  18
ATOM     18  C   UNL     1      36.226 -21.053 -19.443  0.00  0.00    +0.090 C 
BRANCH  18  20
ATOM     19  O   UNL     1      37.654 -18.895 -20.746  0.00  0.00    -0.270 OA
ATOM     20  N   UNL     1      35.663 -19.888 -20.069  0.00  0.00    -0.301 N 
ATOM     21  C   UNL     1      36.430 -18.900 -20.673  0.00  0.00    +0.246 C 
ATOM     22  H   UNL     1      34.684 -19.786 -20.071  0.00  0.00    +0.150 HD
BRANCH  21  23
ATOM     23  C   UNL     1      35.589 -17.808 -21.243  0.00  0.00    +0.058 C 
ATOM     24  C   UNL     1      35.710 -17.476 -22.536  0.00  0.00    +0.006 C 
BRANCH  24  26
ATOM     25  N   UNL     1      33.721 -15.677 -25.165  0.00  0.00    -0.242 NA
ATOM     26  C   UNL     1      34.927 -16.423 -23.206  0.00  0.00    +0.019 C 
ATOM     27  C   UNL     1      34.648 -15.219 -22.567  0.00  0.00    +0.003 C 
ATOM     28  C   UNL     1      34.445 -16.601 -24.493  0.00  0.00    +0.099 C 
ATOM     29  C   UNL     1      33.908 -14.245 -23.226  0.00  0.00    +0.021 C 
ATOM     30  C   UNL     1      33.471 -14.519 -24.512  0.00  0.00    +0.099 C 
ENDBRANCH  24  26
ENDBRANCH  21  23
ENDBRANCH  18  20
ENDBRANCH  17  18
ENDBRANCH  16  17
ENDBRANCH   1  16
TORSDOF 8
ENDMDL
MODEL 5
REMARK VINA RESULT:     -10.5      3.853     12.734
REMARK  Name = 6914657
REMARK  8 active torsions:
REMARK  status: ('A' for Active; 'I' for Inactive)
REMARK    1  A    between atoms: C_1  and  C_4
REMARK    2  A    between atoms: C_1  and  C_16
REMARK    3  A    between atoms: C_9  and  C_10
REMARK    4  A    between atoms: C_16  and  C_17
REMARK    5  A    between atoms: C_17  and  C_18
REMARK    6  A    between atoms: C_18  and  N_20
REMARK    7  A    between atoms: C_21  and  C_23
REMARK    8  A    between atoms: C_24  and  C_26
REMARK                            x       y       z     vdW  Elec       q    Type
REMARK                         _______ _______ _______ _____ _____    ______ ____
ROOT
ATOM      1  C   UNL     1      33.838 -20.520 -20.150  0.00  0.00    +0.000 C 
ENDROOT
BRANCH   1   4
ATOM      2  O   UNL     1      35.443 -22.758 -14.566  0.00  0.00    -0.270 OA
ATOM      3  N   UNL     1      34.464 -22.971 -16.679  0.00  0.00    -0.276 N 
ATOM      4  C   UNL     1      34.190 -21.724 -19.278  0.00  0.00    +0.003 C 
ATOM      5  C   UNL     1      32.968 -22.188 -18.469  0.00  0.00    +0.022 C 
ATOM      6  C   UNL     1      35.360 -21.393 -18.337  0.00  0.00    +0.022 C 
ATOM      7  C   UNL     1      33.332 -23.342 -17.537  0.00  0.00    +0.094 C 
ATOM      8  C   UNL     1      35.667 -22.560 -17.402  0.00  0.00    +0.094 C 
ATOM      9  C   UNL     1      34.481 -23.028 -15.283  0.00  0.00    +0.249 C 
BRANCH   9  10
ATOM     10  C   UNL     1      33.251 -23.433 -14.592  0.00  0.00    +0.054 C 
ATOM     11  C   UNL     1      33.238 -24.588 -13.809  0.00  0.00    +0.005 C 
ATOM     12  C   UNL     1      32.095 -22.663 -14.716  0.00  0.00    +0.005 C 
ATOM     13  C   UNL     1      32.070 -24.973 -13.152  0.00  0.00    +0.000 C 
ATOM     14  C   UNL     1      30.926 -23.047 -14.058  0.00  0.00    +0.000 C 
ATOM     15  C   UNL     1      30.914 -24.203 -13.276  0.00  0.00    +0.000 C 
ENDBRANCH   9  10
ENDBRANCH   1   4
BRANCH   1  16
ATOM     16  C   UNL     1      35.089 -19.904 -20.771  0.00  0.00    +0.002 C 
BRANCH  16  17
ATOM     17  C   UNL     1      34.774 -19.266 -22.125  0.00  0.00    +0.021 C 
BRANCH  17  18
ATOM     18  C   UNL     1      35.792 -18.190 -22.481  0.00  0.00    +0.090 C 
BRANCH  18  20
ATOM     19  O   UNL     1      34.617 -17.309 -24.979  0.00  0.00    -0.270 OA
ATOM     20  N   UNL     1      35.157 -16.929 -22.749  0.00  0.00    -0.301 N 
ATOM     21  C   UNL     1      34.618 -16.591 -23.983  0.00  0.00    +0.246 C 
ATOM     22  H   UNL     1      35.100 -16.271 -22.018  0.00  0.00    +0.150 HD
BRANCH  21  23
ATOM     23  C   UNL     1      34.021 -15.225 -23.981  0.00  0.00    +0.058 C 
ATOM     24  C   UNL     1      33.967 -14.520 -22.842  0.00  0.00    +0.006 C 
BRANCH  24  26
ATOM     25  N   UNL     1      31.905 -11.638 -21.601  0.00  0.00    -0.242 NA
ATOM     26  C   UNL     1      33.410 -13.162 -22.724  0.00  0.00    +0.019 C 
ATOM     27  C   UNL     1      33.822 -12.140 -23.572  0.00  0.00    +0.003 C 
ATOM     28  C   UNL     1      32.457 -12.862 -21.763  0.00  0.00    +0.099 C 
ATOM     29  C   UNL     1      33.277 -10.869 -23.436  0.00  0.00    +0.021 C 
ATOM     30  C   UNL     1      32.331 -10.671 -22.445  0.00  0.00    +0.099 C 
ENDBRANCH  24  26
ENDBRANCH  21  23
ENDBRANCH  18  20
ENDBRANCH  17  18
ENDBRANCH  16  17
ENDBRANCH   1  16
TORSDOF 8
ENDMDL
MODEL 6
REMARK VINA RESULT:     -10.1      1.991      2.892
REMARK  Name = 6914657
REMARK  8 active torsions:
REMARK  status: ('A' for Active; 'I' for Inactive)
REMARK    1  A    between atoms: C_1  and  C_4
REMARK    2  A    between atoms: C_1  and  C_16
REMARK    3  A    between atoms: C_9  and  C_10
REMARK    4  A    between atoms: C_16  and  C_17
REMARK    5  A    between atoms: C_17  and  C_18
REMARK    6  A    between atoms: C_18  and  N_20
REMARK    7  A    between atoms: C_21  and  C_23
REMARK    8  A    between atoms: C_24  and  C_26
REMARK                            x       y       z     vdW  Elec       q    Type
REMARK                         _______ _______ _______ _____ _____    ______ ____
ROOT
ATOM      1  C   UNL     1      33.088 -11.918 -25.623  0.00  0.00    +0.000 C 
ENDROOT
BRANCH   1   4
ATOM      2  O   UNL     1      35.060  -6.359 -23.630  0.00  0.00    -0.270 OA
ATOM      3  N   UNL     1      34.201  -8.503 -23.267  0.00  0.00    -0.276 N 
ATOM      4  C   UNL     1      33.695 -11.072 -24.506  0.00  0.00    +0.003 C 
ATOM      5  C   UNL     1      32.600 -10.310 -23.741  0.00  0.00    +0.022 C 
ATOM      6  C   UNL     1      34.736 -10.090 -25.068  0.00  0.00    +0.022 C 
ATOM      7  C   UNL     1      33.205  -9.403 -22.672  0.00  0.00    +0.094 C 
ATOM      8  C   UNL     1      35.289  -9.180 -23.973  0.00  0.00    +0.094 C 
ATOM      9  C   UNL     1      34.203  -7.110 -23.168  0.00  0.00    +0.249 C 
BRANCH   9  10
ATOM     10  C   UNL     1      33.089  -6.465 -22.463  0.00  0.00    +0.054 C 
ATOM     11  C   UNL     1      32.196  -5.653 -23.164  0.00  0.00    +0.005 C 
ATOM     12  C   UNL     1      32.921  -6.662 -21.093  0.00  0.00    +0.005 C 
ATOM     13  C   UNL     1      31.138  -5.040 -22.495  0.00  0.00    +0.000 C 
ATOM     14  C   UNL     1      31.862  -6.049 -20.423  0.00  0.00    +0.000 C 
ATOM     15  C   UNL     1      30.970  -5.237 -21.125  0.00  0.00    +0.000 C 
ENDBRANCH   9  10
ENDBRANCH   1   4
BRANCH   1  16
ATOM     16  C   UNL     1      33.490 -13.384 -25.485  0.00  0.00    +0.002 C 
BRANCH  16  17
ATOM     17  C   UNL     1      33.220 -13.899 -24.072  0.00  0.00    +0.021 C 
BRANCH  17  18
ATOM     18  C   UNL     1      34.518 -14.134 -23.309  0.00  0.00    +0.090 C 
BRANCH  18  20
ATOM     19  O   UNL     1      34.949 -16.515 -24.903  0.00  0.00    -0.270 OA
ATOM     20  N   UNL     1      34.619 -15.490 -22.842  0.00  0.00    -0.301 N 
ATOM     21  C   UNL     1      34.828 -16.575 -23.684  0.00  0.00    +0.246 C 
ATOM     22  H   UNL     1      34.536 -15.657 -21.875  0.00  0.00    +0.150 HD
BRANCH  21  23
ATOM     23  C   UNL     1      34.892 -17.862 -22.935  0.00  0.00    +0.058 C 
ATOM     24  C   UNL     1      35.371 -17.885 -21.683  0.00  0.00    +0.006 C 
BRANCH  24  26
ATOM     25  N   UNL     1      36.837 -20.557 -19.490  0.00  0.00    -0.242 NA
ATOM     26  C   UNL     1      35.472 -19.094 -20.848  0.00  0.00    +0.019 C 
ATOM     27  C   UNL     1      34.365 -19.903 -20.618  0.00  0.00    +0.003 C 
ATOM     28  C   UNL     1      36.675 -19.462 -20.266  0.00  0.00    +0.099 C 
ATOM     29  C   UNL     1      34.492 -21.038 -19.826  0.00  0.00    +0.021 C 
ATOM     30  C   UNL     1      35.738 -21.319 -19.290  0.00  0.00    +0.099 C 
ENDBRANCH  24  26
ENDBRANCH  21  23
ENDBRANCH  18  20
ENDBRANCH  17  18
ENDBRANCH  16  17
ENDBRANCH   1  16
TORSDOF 8
ENDMDL
MODEL 7
REMARK VINA RESULT:     -10.0      3.785      7.416
REMARK  Name = 6914657
REMARK  8 active torsions:
REMARK  status: ('A' for Active; 'I' for Inactive)
REMARK    1  A    between atoms: C_1  and  C_4
REMARK    2  A    between atoms: C_1  and  C_16
REMARK    3  A    between atoms: C_9  and  C_10
REMARK    4  A    between atoms: C_16  and  C_17
REMARK    5  A    between atoms: C_17  and  C_18
REMARK    6  A    between atoms: C_18  and  N_20
REMARK    7  A    between atoms: C_21  and  C_23
REMARK    8  A    between atoms: C_24  and  C_26
REMARK                            x       y       z     vdW  Elec       q    Type
REMARK                         _______ _______ _______ _____ _____    ______ ____
ROOT
ATOM      1  C   UNL     1      35.135 -19.162 -21.697  0.00  0.00    +0.000 C 
ENDROOT
BRANCH   1   4
ATOM      2  O   UNL     1      32.984 -14.423 -25.115  0.00  0.00    -0.270 OA
ATOM      3  N   UNL     1      34.446 -15.343 -23.540  0.00  0.00    -0.276 N 
ATOM      4  C   UNL     1      35.397 -17.823 -22.383  0.00  0.00    +0.003 C 
ATOM      5  C   UNL     1      34.907 -16.656 -21.510  0.00  0.00    +0.022 C 
ATOM      6  C   UNL     1      34.724 -17.776 -23.765  0.00  0.00    +0.022 C 
ATOM      7  C   UNL     1      35.094 -15.319 -22.223  0.00  0.00    +0.094 C 
ATOM      8  C   UNL     1      34.907 -16.411 -24.426  0.00  0.00    +0.094 C 
ATOM      9  C   UNL     1      33.496 -14.427 -23.997  0.00  0.00    +0.249 C 
BRANCH   9  10
ATOM     10  C   UNL     1      33.047 -13.377 -23.076  0.00  0.00    +0.054 C 
ATOM     11  C   UNL     1      33.132 -12.036 -23.452  0.00  0.00    +0.005 C 
ATOM     12  C   UNL     1      32.536 -13.718 -21.824  0.00  0.00    +0.005 C 
ATOM     13  C   UNL     1      32.706 -11.038 -22.577  0.00  0.00    +0.000 C 
ATOM     14  C   UNL     1      32.108 -12.719 -20.948  0.00  0.00    +0.000 C 
ATOM     15  C   UNL     1      32.194 -11.379 -21.325  0.00  0.00    +0.000 C 
ENDBRANCH   9  10
ENDBRANCH   1   4
BRANCH   1  16
ATOM     16  C   UNL     1      36.156 -19.426 -20.593  0.00  0.00    +0.002 C 
BRANCH  16  17
ATOM     17  C   UNL     1      35.826 -20.711 -19.835  0.00  0.00    +0.021 C 
BRANCH  17  18
ATOM     18  C   UNL     1      34.321 -20.936 -19.753  0.00  0.00    +0.090 C 
BRANCH  18  20
ATOM     19  O   UNL     1      33.915 -23.769 -19.303  0.00  0.00    -0.270 OA
ATOM     20  N   UNL     1      33.948 -21.578 -18.522  0.00  0.00    -0.301 N 
ATOM     21  C   UNL     1      33.775 -22.951 -18.399  0.00  0.00    +0.246 C 
ATOM     22  H   UNL     1      33.809 -21.016 -17.726  0.00  0.00    +0.150 HD
BRANCH  21  23
ATOM     23  C   UNL     1      33.391 -23.346 -17.014  0.00  0.00    +0.058 C 
ATOM     24  C   UNL     1      32.120 -23.216 -16.609  0.00  0.00    +0.006 C 
BRANCH  24  26
ATOM     25  N   UNL     1      31.867 -23.429 -12.868  0.00  0.00    -0.242 NA
ATOM     26  C   UNL     1      31.627 -23.582 -15.269  0.00  0.00    +0.019 C 
ATOM     27  C   UNL     1      30.506 -24.389 -15.113  0.00  0.00    +0.003 C 
ATOM     28  C   UNL     1      32.266 -23.131 -14.125  0.00  0.00    +0.099 C 
ATOM     29  C   UNL     1      30.065 -24.717 -13.836  0.00  0.00    +0.021 C 
ATOM     30  C   UNL     1      30.773 -24.217 -12.756  0.00  0.00    +0.099 C 
ENDBRANCH  24  26
ENDBRANCH  21  23
ENDBRANCH  18  20
ENDBRANCH  17  18
ENDBRANCH  16  17
ENDBRANCH   1  16
TORSDOF 8
ENDMDL
MODEL 8
REMARK VINA RESULT:      -9.9      1.566      2.286
REMARK  Name = 6914657
REMARK  8 active torsions:
REMARK  status: ('A' for Active; 'I' for Inactive)
REMARK    1  A    between atoms: C_1  and  C_4
REMARK    2  A    between atoms: C_1  and  C_16
REMARK    3  A    between atoms: C_9  and  C_10
REMARK    4  A    between atoms: C_16  and  C_17
REMARK    5  A    between atoms: C_17  and  C_18
REMARK    6  A    between atoms: C_18  and  N_20
REMARK    7  A    between atoms: C_21  and  C_23
REMARK    8  A    between atoms: C_24  and  C_26
REMARK                            x       y       z     vdW  Elec       q    Type
REMARK                         _______ _______ _______ _____ _____    ______ ____
ROOT
ATOM      1  C   UNL     1      32.372 -11.160 -21.590  0.00  0.00    +0.000 C 
ENDROOT
BRANCH   1   4
ATOM      2  O   UNL     1      32.790  -4.957 -21.929  0.00  0.00    -0.270 OA
ATOM      3  N   UNL     1      32.011  -7.025 -22.694  0.00  0.00    -0.276 N 
ATOM      4  C   UNL     1      31.759  -9.833 -22.031  0.00  0.00    +0.003 C 
ATOM      5  C   UNL     1      32.365  -9.366 -23.364  0.00  0.00    +0.022 C 
ATOM      6  C   UNL     1      31.952  -8.756 -20.950  0.00  0.00    +0.022 C 
ATOM      7  C   UNL     1      31.813  -8.002 -23.772  0.00  0.00    +0.094 C 
ATOM      8  C   UNL     1      31.418  -7.403 -21.413  0.00  0.00    +0.094 C 
ATOM      9  C   UNL     1      32.660  -5.794 -22.820  0.00  0.00    +0.249 C 
BRANCH   9  10
ATOM     10  C   UNL     1      33.255  -5.455 -24.118  0.00  0.00    +0.054 C 
ATOM     11  C   UNL     1      32.469  -4.880 -25.118  0.00  0.00    +0.005 C 
ATOM     12  C   UNL     1      34.607  -5.706 -24.354  0.00  0.00    +0.005 C 
ATOM     13  C   UNL     1      33.034  -4.557 -26.351  0.00  0.00    +0.000 C 
ATOM     14  C   UNL     1      35.173  -5.383 -25.587  0.00  0.00    +0.000 C 
ATOM     15  C   UNL     1      34.386  -4.809 -26.586  0.00  0.00    +0.000 C 
ENDBRANCH   9  10
ENDBRANCH   1   4
BRANCH   1  16
ATOM     16  C   UNL     1      33.008 -11.893 -22.769  0.00  0.00    +0.002 C 
BRANCH  16  17
ATOM     17  C   UNL     1      32.918 -13.408 -22.588  0.00  0.00    +0.021 C 
BRANCH  17  18
ATOM     18  C   UNL     1      33.766 -14.142 -23.620  0.00  0.00    +0.090 C 
BRANCH  18  20
ATOM     19  O   UNL     1      34.970 -16.281 -25.159  0.00  0.00    -0.270 OA
ATOM     20  N   UNL     1      34.182 -15.432 -23.142  0.00  0.00    -0.301 N 
ATOM     21  C   UNL     1      34.754 -16.400 -23.957  0.00  0.00    +0.246 C 
ATOM     22  H   UNL     1      34.057 -15.638 -22.188  0.00  0.00    +0.150 HD
BRANCH  21  23
ATOM     23  C   UNL     1      35.091 -17.641 -23.202  0.00  0.00    +0.058 C 
ATOM     24  C   UNL     1      35.283 -17.587 -21.877  0.00  0.00    +0.006 C 
BRANCH  24  26
ATOM     25  N   UNL     1      37.250 -19.957 -19.729  0.00  0.00    -0.242 NA
ATOM     26  C   UNL     1      35.610 -18.748 -21.030  0.00  0.00    +0.019 C 
ATOM     27  C   UNL     1      34.651 -19.708 -20.728  0.00  0.00    +0.003 C 
ATOM     28  C   UNL     1      36.883 -18.916 -20.510  0.00  0.00    +0.099 C 
ATOM     29  C   UNL     1      34.990 -20.793 -19.927  0.00  0.00    +0.021 C 
ATOM     30  C   UNL     1      36.291 -20.870 -19.457  0.00  0.00    +0.099 C 
ENDBRANCH  24  26
ENDBRANCH  21  23
ENDBRANCH  18  20
ENDBRANCH  17  18
ENDBRANCH  16  17
ENDBRANCH   1  16
TORSDOF 8
ENDMDL
MODEL 9
REMARK VINA RESULT:      -9.8      5.310     13.419
REMARK  Name = 6914657
REMARK  8 active torsions:
REMARK  status: ('A' for Active; 'I' for Inactive)
REMARK    1  A    between atoms: C_1  and  C_4
REMARK    2  A    between atoms: C_1  and  C_16
REMARK    3  A    between atoms: C_9  and  C_10
REMARK    4  A    between atoms: C_16  and  C_17
REMARK    5  A    between atoms: C_17  and  C_18
REMARK    6  A    between atoms: C_18  and  N_20
REMARK    7  A    between atoms: C_21  and  C_23
REMARK    8  A    between atoms: C_24  and  C_26
REMARK                            x       y       z     vdW  Elec       q    Type
REMARK                         _______ _______ _______ _____ _____    ______ ____
ROOT
ATOM      1  C   UNL     1      36.846 -21.670 -16.079  0.00  0.00    +0.000 C 
ENDROOT
BRANCH   1   4
ATOM      2  O   UNL     1      32.864 -24.590 -12.288  0.00  0.00    -0.270 OA
ATOM      3  N   UNL     1      33.923 -24.301 -14.352  0.00  0.00    -0.276 N 
ATOM      4  C   UNL     1      36.093 -22.946 -15.710  0.00  0.00    +0.003 C 
ATOM      5  C   UNL     1      34.652 -22.904 -16.242  0.00  0.00    +0.022 C 
ATOM      6  C   UNL     1      36.094 -23.159 -14.187  0.00  0.00    +0.022 C 
ATOM      7  C   UNL     1      33.870 -24.142 -15.811  0.00  0.00    +0.094 C 
ATOM      8  C   UNL     1      35.274 -24.387 -13.798  0.00  0.00    +0.094 C 
ATOM      9  C   UNL     1      32.819 -24.416 -13.504  0.00  0.00    +0.249 C 
BRANCH   9  10
ATOM     10  C   UNL     1      31.479 -24.311 -14.094  0.00  0.00    +0.054 C 
ATOM     11  C   UNL     1      30.555 -25.341 -13.913  0.00  0.00    +0.005 C 
ATOM     12  C   UNL     1      31.129 -23.183 -14.835  0.00  0.00    +0.005 C 
ATOM     13  C   UNL     1      29.282 -25.242 -14.473  0.00  0.00    +0.000 C 
ATOM     14  C   UNL     1      29.855 -23.084 -15.395  0.00  0.00    +0.000 C 
ATOM     15  C   UNL     1      28.931 -24.114 -15.214  0.00  0.00    +0.000 C 
ENDBRANCH   9  10
ENDBRANCH   1   4
BRANCH   1  16
ATOM     16  C   UNL     1      37.148 -21.620 -17.575  0.00  0.00    +0.002 C 
BRANCH  16  17
ATOM     17  C   UNL     1      35.860 -21.548 -18.394  0.00  0.00    +0.021 C 
BRANCH  17  18
ATOM     18  C   UNL     1      36.153 -21.286 -19.866  0.00  0.00    +0.090 C 
BRANCH  18  20
ATOM     19  O   UNL     1      37.695 -19.096 -20.972  0.00  0.00    -0.270 OA
ATOM     20  N   UNL     1      35.666 -19.998 -20.281  0.00  0.00    -0.301 N 
ATOM     21  C   UNL     1      36.484 -19.004 -20.803  0.00  0.00    +0.246 C 
ATOM     22  H   UNL     1      34.704 -19.813 -20.191  0.00  0.00    +0.150 HD
BRANCH  21  23
ATOM     23  C   UNL     1      35.718 -17.773 -21.151  0.00  0.00    +0.058 C 
ATOM     24  C   UNL     1      35.597 -17.398 -22.432  0.00  0.00    +0.006 C 
BRANCH  24  26
ATOM     25  N   UNL     1      34.008 -13.996 -22.414  0.00  0.00    -0.242 NA
ATOM     26  C   UNL     1      34.859 -16.209 -22.890  0.00  0.00    +0.019 C 
ATOM     27  C   UNL     1      34.324 -16.146 -24.172  0.00  0.00    +0.003 C 
ATOM     28  C   UNL     1      34.675 -15.117 -22.057  0.00  0.00    +0.099 C 
ATOM     29  C   UNL     1      33.631 -15.011 -24.576  0.00  0.00    +0.021 C 
ATOM     30  C   UNL     1      33.502 -13.973 -23.668  0.00  0.00    +0.099 C 
ENDBRANCH  24  26
ENDBRANCH  21  23
ENDBRANCH  18  20
ENDBRANCH  17  18
ENDBRANCH  16  17
ENDBRANCH   1  16
TORSDOF 8
ENDMDL
