MODEL 1
REMARK VINA RESULT:     -12.4      0.000      0.000
REMARK  Name = 71226662
REMARK  4 active torsions:
REMARK  status: ('A' for Active; 'I' for Inactive)
REMARK    1  A    between atoms: C_5  and  C_15
REMARK    2  A    between atoms: C_7  and  C_23
REMARK    3  A    between atoms: C_19  and  C_20
REMARK    4  A    between atoms: C_28  and  C_31
REMARK                            x       y       z     vdW  Elec       q    Type
REMARK                         _______ _______ _______ _____ _____    ______ ____
ROOT
ATOM      1  N   UNL     1      33.586 -24.186 -14.592  0.00  0.00    -0.251 N 
ATOM      2  N   UNL     1      35.431 -23.566 -15.659  0.00  0.00    -0.392 NA
ATOM      3  N   UNL     1      30.883 -23.768 -15.059  0.00  0.00    -0.231 NA
ATOM      4  N   UNL     1      31.267 -22.530 -16.981  0.00  0.00    -0.344 N 
ATOM      5  C   UNL     1      34.951 -24.223 -14.623  0.00  0.00    +0.182 C 
ATOM      6  C   UNL     1      33.169 -23.459 -15.680  0.00  0.00    +0.185 C 
ATOM      7  C   UNL     1      34.326 -23.086 -16.324  0.00  0.00    +0.136 C 
ATOM      8  C   UNL     1      32.659 -24.715 -13.719  0.00  0.00    +0.089 C 
ATOM      9  C   UNL     1      31.747 -23.248 -15.910  0.00  0.00    +0.128 C 
ATOM     10  C   UNL     1      31.359 -24.492 -13.978  0.00  0.00    +0.116 C 
ATOM     11  H   UNL     1      30.296 -22.413 -17.099  0.00  0.00    +0.143 HD
ATOM     12  H   UNL     1      31.892 -22.134 -17.630  0.00  0.00    +0.143 HD
ENDROOT
BRANCH   5  15
ATOM     13  O   UNL     1      36.183 -27.169 -15.383  0.00  0.00    -0.260 OA
ATOM     14  N   UNL     1      37.052 -25.468 -14.066  0.00  0.00    -0.263 N 
ATOM     15  C   UNL     1      35.775 -24.944 -13.571  0.00  0.00    +0.143 C 
ATOM     16  C   UNL     1      36.180 -24.026 -12.412  0.00  0.00    +0.030 C 
ATOM     17  C   UNL     1      37.575 -23.543 -12.798  0.00  0.00    +0.024 C 
ATOM     18  C   UNL     1      38.185 -24.759 -13.478  0.00  0.00    +0.095 C 
ATOM     19  C   UNL     1      37.139 -26.578 -14.893  0.00  0.00    +0.293 C 
BRANCH  19  20
ATOM     20  C   UNL     1      38.463 -27.074 -15.196  0.00  0.00    -0.007 C 
ATOM     21  C   UNL     1      39.562 -27.486 -15.447  0.00  0.00    -0.081 C 
ATOM     22  C   UNL     1      40.901 -27.988 -15.755  0.00  0.00    +0.090 C 
ENDBRANCH  19  20
ENDBRANCH   5  15
BRANCH   7  23
ATOM     23  C   UNL     1      34.430 -22.309 -17.521  0.00  0.00    +0.028 C 
ATOM     24  C   UNL     1      33.282 -21.976 -18.240  0.00  0.00    +0.002 C 
ATOM     25  C   UNL     1      35.682 -21.886 -17.970  0.00  0.00    +0.002 C 
ATOM     26  C   UNL     1      33.385 -21.220 -19.407  0.00  0.00    +0.005 C 
ATOM     27  C   UNL     1      35.784 -21.130 -19.137  0.00  0.00    +0.005 C 
ATOM     28  C   UNL     1      34.636 -20.797 -19.856  0.00  0.00    +0.054 C 
BRANCH  28  31
ATOM     29  O   UNL     1      34.859 -20.591 -22.162  0.00  0.00    -0.270 OA
ATOM     30  N   UNL     1      34.727 -18.616 -20.903  0.00  0.00    -0.266 N 
ATOM     31  C   UNL     1      34.742 -20.007 -21.072  0.00  0.00    +0.251 C 
ATOM     32  H   UNL     1      34.626 -18.298 -19.976  0.00  0.00    +0.157 HD
ATOM     33  N   UNL     1      34.796 -16.313 -21.497  0.00  0.00    -0.229 NA
ATOM     34  C   UNL     1      34.836 -17.606 -21.890  0.00  0.00    +0.134 C 
ATOM     35  C   UNL     1      34.978 -18.012 -23.207  0.00  0.00    +0.034 C 
ATOM     36  C   UNL     1      35.088 -17.028 -24.184  0.00  0.00    +0.004 C 
ATOM     37  C   UNL     1      34.904 -15.385 -22.474  0.00  0.00    +0.100 C 
ATOM     38  C   UNL     1      35.051 -15.687 -23.818  0.00  0.00    +0.021 C 
ENDBRANCH  28  31
ENDBRANCH   7  23
TORSDOF 4
ENDMDL
MODEL 2
REMARK VINA RESULT:     -11.3      8.956     17.042
REMARK  Name = 71226662
REMARK  4 active torsions:
REMARK  status: ('A' for Active; 'I' for Inactive)
REMARK    1  A    between atoms: C_5  and  C_15
REMARK    2  A    between atoms: C_7  and  C_23
REMARK    3  A    between atoms: C_19  and  C_20
REMARK    4  A    between atoms: C_28  and  C_31
REMARK                            x       y       z     vdW  Elec       q    Type
REMARK                         _______ _______ _______ _____ _____    ______ ____
ROOT
ATOM      1  N   UNL     1      32.593  -6.420 -21.609  0.00  0.00    -0.251 N 
ATOM      2  N   UNL     1      33.120  -7.263 -23.593  0.00  0.00    -0.392 NA
ATOM      3  N   UNL     1      32.060  -7.559 -19.135  0.00  0.00    -0.231 NA
ATOM      4  N   UNL     1      32.371  -9.721 -19.911  0.00  0.00    -0.344 N 
ATOM      5  C   UNL     1      32.894  -6.156 -22.915  0.00  0.00    +0.182 C 
ATOM      6  C   UNL     1      32.631  -7.784 -21.444  0.00  0.00    +0.185 C 
ATOM      7  C   UNL     1      32.958  -8.283 -22.683  0.00  0.00    +0.136 C 
ATOM      8  C   UNL     1      32.287  -5.604 -20.540  0.00  0.00    +0.089 C 
ATOM      9  C   UNL     1      32.349  -8.364 -20.140  0.00  0.00    +0.128 C 
ATOM     10  C   UNL     1      32.036  -6.191 -19.358  0.00  0.00    +0.116 C 
ATOM     11  H   UNL     1      32.174 -10.072 -19.012  0.00  0.00    +0.143 HD
ATOM     12  H   UNL     1      32.585 -10.342 -20.645  0.00  0.00    +0.143 HD
ENDROOT
BRANCH   5  15
ATOM     13  O   UNL     1      35.498  -5.319 -24.730  0.00  0.00    -0.260 OA
ATOM     14  N   UNL     1      33.274  -4.681 -24.903  0.00  0.00    -0.263 N 
ATOM     15  C   UNL     1      32.949  -4.747 -23.474  0.00  0.00    +0.143 C 
ATOM     16  C   UNL     1      31.602  -4.021 -23.371  0.00  0.00    +0.030 C 
ATOM     17  C   UNL     1      30.955  -4.256 -24.732  0.00  0.00    +0.024 C 
ATOM     18  C   UNL     1      32.136  -4.210 -25.689  0.00  0.00    +0.095 C 
ATOM     19  C   UNL     1      34.547  -4.924 -25.396  0.00  0.00    +0.293 C 
BRANCH  19  20
ATOM     20  C   UNL     1      34.765  -4.691 -26.806  0.00  0.00    -0.007 C 
ATOM     21  C   UNL     1      34.946  -4.497 -27.977  0.00  0.00    -0.081 C 
ATOM     22  C   UNL     1      35.166  -4.260 -29.403  0.00  0.00    +0.090 C 
ENDBRANCH  19  20
ENDBRANCH   5  15
BRANCH   7  23
ATOM     23  C   UNL     1      33.122  -9.659 -23.039  0.00  0.00    +0.028 C 
ATOM     24  C   UNL     1      32.322 -10.634 -22.442  0.00  0.00    +0.002 C 
ATOM     25  C   UNL     1      34.084 -10.025 -23.981  0.00  0.00    +0.002 C 
ATOM     26  C   UNL     1      32.484 -11.975 -22.789  0.00  0.00    +0.005 C 
ATOM     27  C   UNL     1      34.244 -11.367 -24.327  0.00  0.00    +0.005 C 
ATOM     28  C   UNL     1      33.445 -12.342 -23.731  0.00  0.00    +0.054 C 
BRANCH  28  31
ATOM     29  O   UNL     1      33.159 -14.141 -25.178  0.00  0.00    -0.270 OA
ATOM     30  N   UNL     1      34.267 -14.543 -23.150  0.00  0.00    -0.266 N 
ATOM     31  C   UNL     1      33.612 -13.741 -24.093  0.00  0.00    +0.251 C 
ATOM     32  H   UNL     1      34.573 -14.084 -22.334  0.00  0.00    +0.157 HD
ATOM     33  N   UNL     1      35.200 -16.506 -22.180  0.00  0.00    -0.229 NA
ATOM     34  C   UNL     1      34.549 -15.930 -23.216  0.00  0.00    +0.134 C 
ATOM     35  C   UNL     1      34.136 -16.613 -24.348  0.00  0.00    +0.034 C 
ATOM     36  C   UNL     1      34.407 -17.975 -24.422  0.00  0.00    +0.004 C 
ATOM     37  C   UNL     1      35.446 -17.831 -22.287  0.00  0.00    +0.100 C 
ATOM     38  C   UNL     1      35.074 -18.603 -23.375  0.00  0.00    +0.021 C 
ENDBRANCH  28  31
ENDBRANCH   7  23
TORSDOF 4
ENDMDL
MODEL 3
REMARK VINA RESULT:      -9.8      1.052      1.239
REMARK  Name = 71226662
REMARK  4 active torsions:
REMARK  status: ('A' for Active; 'I' for Inactive)
REMARK    1  A    between atoms: C_5  and  C_15
REMARK    2  A    between atoms: C_7  and  C_23
REMARK    3  A    between atoms: C_19  and  C_20
REMARK    4  A    between atoms: C_28  and  C_31
REMARK                            x       y       z     vdW  Elec       q    Type
REMARK                         _______ _______ _______ _____ _____    ______ ____
ROOT
ATOM      1  N   UNL     1      34.972 -24.404 -13.976  0.00  0.00    -0.251 N 
ATOM      2  N   UNL     1      36.592 -23.941 -15.419  0.00  0.00    -0.392 NA
ATOM      3  N   UNL     1      32.278 -23.751 -13.861  0.00  0.00    -0.231 NA
ATOM      4  N   UNL     1      32.347 -22.542 -15.838  0.00  0.00    -0.344 N 
ATOM      5  C   UNL     1      36.291 -24.559 -14.296  0.00  0.00    +0.182 C 
ATOM      6  C   UNL     1      34.396 -23.638 -14.960  0.00  0.00    +0.185 C 
ATOM      7  C   UNL     1      35.416 -23.364 -15.840  0.00  0.00    +0.136 C 
ATOM      8  C   UNL     1      34.210 -24.855 -12.918  0.00  0.00    +0.089 C 
ATOM      9  C   UNL     1      32.982 -23.304 -14.884  0.00  0.00    +0.128 C 
ATOM     10  C   UNL     1      32.910 -24.519 -12.897  0.00  0.00    +0.116 C 
ATOM     11  H   UNL     1      31.387 -22.340 -15.748  0.00  0.00    +0.143 HD
ATOM     12  H   UNL     1      32.851 -22.198 -16.611  0.00  0.00    +0.143 HD
ENDROOT
BRANCH   5  15
ATOM     13  O   UNL     1      37.043 -27.612 -15.239  0.00  0.00    -0.260 OA
ATOM     14  N   UNL     1      38.337 -25.999 -14.185  0.00  0.00    -0.263 N 
ATOM     15  C   UNL     1      37.255 -25.354 -13.434  0.00  0.00    +0.143 C 
ATOM     16  C   UNL     1      37.990 -24.476 -12.413  0.00  0.00    +0.030 C 
ATOM     17  C   UNL     1      39.304 -24.131 -13.108  0.00  0.00    +0.024 C 
ATOM     18  C   UNL     1      39.633 -25.402 -13.877  0.00  0.00    +0.095 C 
ATOM     19  C   UNL     1      38.135 -27.115 -14.984  0.00  0.00    +0.293 C 
BRANCH  19  20
ATOM     20  C   UNL     1      39.307 -27.737 -15.559  0.00  0.00    -0.007 C 
ATOM     21  C   UNL     1      40.280 -28.253 -16.036  0.00  0.00    -0.081 C 
ATOM     22  C   UNL     1      41.465 -28.881 -16.618  0.00  0.00    +0.090 C 
ENDBRANCH  19  20
ENDBRANCH   5  15
BRANCH   7  23
ATOM     23  C   UNL     1      35.329 -22.593 -17.043  0.00  0.00    +0.028 C 
ATOM     24  C   UNL     1      34.125 -22.530 -17.746  0.00  0.00    +0.002 C 
ATOM     25  C   UNL     1      36.448 -21.906 -17.513  0.00  0.00    +0.002 C 
ATOM     26  C   UNL     1      34.042 -21.780 -18.918  0.00  0.00    +0.005 C 
ATOM     27  C   UNL     1      36.364 -21.156 -18.685  0.00  0.00    +0.005 C 
ATOM     28  C   UNL     1      35.161 -21.092 -19.388  0.00  0.00    +0.054 C 
BRANCH  28  31
ATOM     29  O   UNL     1      34.972 -20.899 -21.698  0.00  0.00    -0.270 OA
ATOM     30  N   UNL     1      35.133 -18.918 -20.451  0.00  0.00    -0.266 N 
ATOM     31  C   UNL     1      35.072 -20.309 -20.610  0.00  0.00    +0.251 C 
ATOM     32  H   UNL     1      35.212 -18.595 -19.524  0.00  0.00    +0.157 HD
ATOM     33  N   UNL     1      35.170 -16.619 -21.066  0.00  0.00    -0.229 NA
ATOM     34  C   UNL     1      35.096 -17.914 -21.450  0.00  0.00    +0.134 C 
ATOM     35  C   UNL     1      34.985 -18.327 -22.768  0.00  0.00    +0.034 C 
ATOM     36  C   UNL     1      34.949 -17.349 -23.756  0.00  0.00    +0.004 C 
ATOM     37  C   UNL     1      35.131 -15.697 -22.054  0.00  0.00    +0.100 C 
ATOM     38  C   UNL     1      35.022 -16.006 -23.400  0.00  0.00    +0.021 C 
ENDBRANCH  28  31
ENDBRANCH   7  23
TORSDOF 4
ENDMDL
