MODEL 1
REMARK VINA RESULT:     -11.1      0.000      0.000
REMARK  Name = 4369498
REMARK  8 active torsions:
REMARK  status: ('A' for Active; 'I' for Inactive)
REMARK    1  A    between atoms: N_2  and  C_11
REMARK    2  A    between atoms: C_5  and  C_25
REMARK    3  A    between atoms: C_8  and  S_14
REMARK    4  A    between atoms: C_13  and  O_23
REMARK    5  A    between atoms: S_14  and  N_17
REMARK    6  A    between atoms: N_17  and  C_19
REMARK    7  A    between atoms: C_19  and  C_20
REMARK    8  A    between atoms: C_26  and  C_32
REMARK                            x       y       z     vdW  Elec       q    Type
REMARK                         _______ _______ _______ _____ _____    ______ ____
ROOT
ATOM      1  O   UNL     1      34.256 -20.434 -20.427  0.00  0.00    -0.424 OA
ATOM      2  N   UNL     1      34.035 -21.747 -18.555  0.00  0.00    -0.265 N 
ATOM      3  N   UNL     1      36.120 -20.723 -19.180  0.00  0.00    -0.193 NA
ATOM      4  C   UNL     1      34.844 -20.992 -19.333  0.00  0.00    +0.293 C 
ATOM      5  C   UNL     1      35.272 -19.745 -21.018  0.00  0.00    +0.168 C 
ATOM      6  C   UNL     1      36.401 -19.923 -20.257  0.00  0.00    +0.141 C 
ATOM      7  H   UNL     1      33.103 -21.811 -18.865  0.00  0.00    +0.157 HD
ENDROOT
BRANCH   2  11
ATOM      8  C   UNL     1      35.915 -23.191 -15.697  0.00  0.00    +0.123 C 
ATOM      9  C   UNL     1      35.623 -22.489 -16.868  0.00  0.00    +0.038 C 
ATOM     10  C   UNL     1      34.900 -23.865 -15.017  0.00  0.00    +0.023 C 
ATOM     11  C   UNL     1      34.318 -22.464 -17.357  0.00  0.00    +0.087 C 
ATOM     12  C   UNL     1      33.594 -23.838 -15.507  0.00  0.00    +0.040 C 
ATOM     13  C   UNL     1      33.303 -23.137 -16.678  0.00  0.00    +0.152 C 
BRANCH   8  14
ATOM     14  S   UNL     1      37.549 -23.227 -15.084  0.00  0.00    +0.060 S 
ATOM     15  O   UNL     1      38.438 -22.651 -16.085  0.00  0.00    -0.153 OA
ATOM     16  O   UNL     1      37.532 -22.669 -13.739  0.00  0.00    -0.153 OA
BRANCH  14  17
ATOM     17  N   UNL     1      37.864 -24.904 -14.974  0.00  0.00    -0.179 NA
ATOM     18  H   UNL     1      38.134 -25.215 -15.906  0.00  0.00    +0.149 HD
BRANCH  17  19
ATOM     19  C   UNL     1      38.893 -25.396 -14.047  0.00  0.00    +0.091 C 
BRANCH  19  20
ATOM     20  C   UNL     1      38.275 -26.183 -12.940  0.00  0.00    +0.017 C 
ATOM     21  C   UNL     1      37.866 -25.479 -11.678  0.00  0.00    +0.001 C 
ATOM     22  C   UNL     1      36.821 -25.990 -12.625  0.00  0.00    +0.001 C 
ENDBRANCH  19  20
ENDBRANCH  17  19
ENDBRANCH  14  17
ENDBRANCH   8  14
BRANCH  13  23
ATOM     23  O   UNL     1      32.021 -23.125 -17.141  0.00  0.00    -0.470 OA
ATOM     24  C   UNL     1      30.981 -23.093 -16.166  0.00  0.00    +0.253 C 
ENDBRANCH  13  23
ENDBRANCH   2  11
BRANCH   5  25
ATOM     25  C   UNL     1      34.945 -19.034 -22.229  0.00  0.00    +0.036 C 
ATOM     26  C   UNL     1      34.429 -16.968 -23.369  0.00  0.00    +0.002 C 
ATOM     27  C   UNL     1      34.745 -17.654 -22.198  0.00  0.00    +0.003 C 
ATOM     28  C   UNL     1      34.831 -19.727 -23.435  0.00  0.00    +0.003 C 
ATOM     29  C   UNL     1      34.313 -17.662 -24.574  0.00  0.00    +0.000 C 
ATOM     30  C   UNL     1      34.515 -19.042 -24.607  0.00  0.00    +0.000 C 
BRANCH  26  32
ATOM     31  N   UNL     1      33.499 -13.528 -24.473  0.00  0.00    -0.242 NA
ATOM     32  C   UNL     1      34.219 -15.537 -23.336  0.00  0.00    +0.019 C 
ATOM     33  C   UNL     1      34.514 -14.795 -22.198  0.00  0.00    +0.003 C 
ATOM     34  C   UNL     1      33.718 -14.861 -24.438  0.00  0.00    +0.099 C 
ATOM     35  C   UNL     1      34.303 -13.421 -22.197  0.00  0.00    +0.021 C 
ATOM     36  C   UNL     1      33.798 -12.841 -23.349  0.00  0.00    +0.099 C 
ENDBRANCH  26  32
ENDBRANCH   5  25
TORSDOF 8
ENDMDL
MODEL 2
REMARK VINA RESULT:     -11.0      3.424      5.694
REMARK  Name = 4369498
REMARK  8 active torsions:
REMARK  status: ('A' for Active; 'I' for Inactive)
REMARK    1  A    between atoms: N_2  and  C_11
REMARK    2  A    between atoms: C_5  and  C_25
REMARK    3  A    between atoms: C_8  and  S_14
REMARK    4  A    between atoms: C_13  and  O_23
REMARK    5  A    between atoms: S_14  and  N_17
REMARK    6  A    between atoms: N_17  and  C_19
REMARK    7  A    between atoms: C_19  and  C_20
REMARK    8  A    between atoms: C_26  and  C_32
REMARK                            x       y       z     vdW  Elec       q    Type
REMARK                         _______ _______ _______ _____ _____    ______ ____
ROOT
ATOM      1  O   UNL     1      34.644 -16.517 -22.636  0.00  0.00    -0.424 OA
ATOM      2  N   UNL     1      35.208 -18.510 -21.640  0.00  0.00    -0.265 N 
ATOM      3  N   UNL     1      34.986 -16.459 -20.401  0.00  0.00    -0.193 NA
ATOM      4  C   UNL     1      34.962 -17.188 -21.494  0.00  0.00    +0.293 C 
ATOM      5  C   UNL     1      34.451 -15.237 -22.210  0.00  0.00    +0.168 C 
ATOM      6  C   UNL     1      34.659 -15.207 -20.854  0.00  0.00    +0.141 C 
ATOM      7  H   UNL     1      35.130 -18.846 -22.562  0.00  0.00    +0.157 HD
ENDROOT
BRANCH   2  11
ATOM      8  C   UNL     1      34.930 -21.361 -19.278  0.00  0.00    +0.123 C 
ATOM      9  C   UNL     1      34.597 -20.395 -20.229  0.00  0.00    +0.038 C 
ATOM     10  C   UNL     1      36.228 -21.422 -18.772  0.00  0.00    +0.023 C 
ATOM     11  C   UNL     1      35.562 -19.491 -20.672  0.00  0.00    +0.087 C 
ATOM     12  C   UNL     1      37.194 -20.518 -19.216  0.00  0.00    +0.040 C 
ATOM     13  C   UNL     1      36.861 -19.553 -20.166  0.00  0.00    +0.152 C 
BRANCH   8  14
ATOM     14  S   UNL     1      33.721 -22.490 -18.719  0.00  0.00    +0.060 S 
ATOM     15  O   UNL     1      32.427 -21.821 -18.700  0.00  0.00    -0.153 OA
ATOM     16  O   UNL     1      33.877 -23.721 -19.482  0.00  0.00    -0.153 OA
BRANCH  14  17
ATOM     17  N   UNL     1      34.209 -22.783 -17.107  0.00  0.00    -0.179 NA
ATOM     18  H   UNL     1      34.148 -21.893 -16.614  0.00  0.00    +0.149 HD
BRANCH  17  19
ATOM     19  C   UNL     1      33.486 -23.771 -16.292  0.00  0.00    +0.091 C 
BRANCH  19  20
ATOM     20  C   UNL     1      32.486 -23.099 -15.412  0.00  0.00    +0.017 C 
ATOM     21  C   UNL     1      31.022 -23.302 -15.677  0.00  0.00    +0.001 C 
ATOM     22  C   UNL     1      31.660 -23.930 -14.473  0.00  0.00    +0.001 C 
ENDBRANCH  19  20
ENDBRANCH  17  19
ENDBRANCH  14  17
ENDBRANCH   8  14
BRANCH  13  23
ATOM     23  O   UNL     1      37.818 -18.679 -20.586  0.00  0.00    -0.470 OA
ATOM     24  C   UNL     1      38.129 -18.678 -21.978  0.00  0.00    +0.253 C 
ENDBRANCH  13  23
ENDBRANCH   2  11
BRANCH   5  25
ATOM     25  C   UNL     1      34.095 -14.273 -23.222  0.00  0.00    +0.036 C 
ATOM     26  C   UNL     1      33.767 -11.979 -23.905  0.00  0.00    +0.002 C 
ATOM     27  C   UNL     1      34.111 -12.910 -22.926  0.00  0.00    +0.003 C 
ATOM     28  C   UNL     1      33.735 -14.704 -24.500  0.00  0.00    +0.003 C 
ATOM     29  C   UNL     1      33.407 -12.411 -25.182  0.00  0.00    +0.000 C 
ATOM     30  C   UNL     1      33.392 -13.773 -25.479  0.00  0.00    +0.000 C 
BRANCH  26  32
ATOM     31  N   UNL     1      32.700  -8.665 -22.566  0.00  0.00    -0.242 NA
ATOM     32  C   UNL     1      33.782 -10.566 -23.596  0.00  0.00    +0.019 C 
ATOM     33  C   UNL     1      34.835  -9.754 -24.002  0.00  0.00    +0.003 C 
ATOM     34  C   UNL     1      32.747  -9.977 -22.886  0.00  0.00    +0.099 C 
ATOM     35  C   UNL     1      34.822  -8.399 -23.691  0.00  0.00    +0.021 C 
ATOM     36  C   UNL     1      33.741  -7.908 -22.977  0.00  0.00    +0.099 C 
ENDBRANCH  26  32
ENDBRANCH   5  25
TORSDOF 8
ENDMDL
MODEL 3
REMARK VINA RESULT:     -11.0      0.537      1.013
REMARK  Name = 4369498
REMARK  8 active torsions:
REMARK  status: ('A' for Active; 'I' for Inactive)
REMARK    1  A    between atoms: N_2  and  C_11
REMARK    2  A    between atoms: C_5  and  C_25
REMARK    3  A    between atoms: C_8  and  S_14
REMARK    4  A    between atoms: C_13  and  O_23
REMARK    5  A    between atoms: S_14  and  N_17
REMARK    6  A    between atoms: N_17  and  C_19
REMARK    7  A    between atoms: C_19  and  C_20
REMARK    8  A    between atoms: C_26  and  C_32
REMARK                            x       y       z     vdW  Elec       q    Type
REMARK                         _______ _______ _______ _____ _____    ______ ____
ROOT
ATOM      1  O   UNL     1      34.205 -20.460 -20.429  0.00  0.00    -0.424 OA
ATOM      2  N   UNL     1      33.936 -21.763 -18.556  0.00  0.00    -0.265 N 
ATOM      3  N   UNL     1      36.050 -20.786 -19.162  0.00  0.00    -0.193 NA
ATOM      4  C   UNL     1      34.769 -21.028 -19.328  0.00  0.00    +0.293 C 
ATOM      5  C   UNL     1      35.242 -19.795 -21.011  0.00  0.00    +0.168 C 
ATOM      6  C   UNL     1      36.358 -19.995 -20.238  0.00  0.00    +0.141 C 
ATOM      7  H   UNL     1      33.006 -21.808 -18.876  0.00  0.00    +0.157 HD
ENDROOT
BRANCH   2  11
ATOM      8  C   UNL     1      35.757 -23.252 -15.683  0.00  0.00    +0.123 C 
ATOM      9  C   UNL     1      35.493 -22.547 -16.858  0.00  0.00    +0.038 C 
ATOM     10  C   UNL     1      34.719 -23.891 -15.005  0.00  0.00    +0.023 C 
ATOM     11  C   UNL     1      34.191 -22.483 -17.355  0.00  0.00    +0.087 C 
ATOM     12  C   UNL     1      33.417 -23.827 -15.502  0.00  0.00    +0.040 C 
ATOM     13  C   UNL     1      33.153 -23.123 -16.677  0.00  0.00    +0.152 C 
BRANCH   8  14
ATOM     14  S   UNL     1      37.387 -23.336 -15.062  0.00  0.00    +0.060 S 
ATOM     15  O   UNL     1      38.288 -22.710 -16.022  0.00  0.00    -0.153 OA
ATOM     16  O   UNL     1      37.364 -22.855 -13.687  0.00  0.00    -0.153 OA
BRANCH  14  17
ATOM     17  N   UNL     1      37.688 -25.018 -15.046  0.00  0.00    -0.179 NA
ATOM     18  H   UNL     1      38.435 -25.191 -15.718  0.00  0.00    +0.149 HD
BRANCH  17  19
ATOM     19  C   UNL     1      38.084 -25.678 -13.793  0.00  0.00    +0.091 C 
BRANCH  19  20
ATOM     20  C   UNL     1      39.539 -25.483 -13.528  0.00  0.00    +0.017 C 
ATOM     21  C   UNL     1      40.506 -26.567 -13.908  0.00  0.00    +0.001 C 
ATOM     22  C   UNL     1      40.475 -25.284 -14.685  0.00  0.00    +0.001 C 
ENDBRANCH  19  20
ENDBRANCH  17  19
ENDBRANCH  14  17
ENDBRANCH   8  14
BRANCH  13  23
ATOM     23  O   UNL     1      31.875 -23.073 -17.146  0.00  0.00    -0.470 OA
ATOM     24  C   UNL     1      30.832 -22.993 -16.177  0.00  0.00    +0.253 C 
ENDBRANCH  13  23
ENDBRANCH   2  11
BRANCH   5  25
ATOM     25  C   UNL     1      34.942 -19.080 -22.227  0.00  0.00    +0.036 C 
ATOM     26  C   UNL     1      34.451 -17.009 -23.372  0.00  0.00    +0.002 C 
ATOM     27  C   UNL     1      34.740 -17.700 -22.195  0.00  0.00    +0.003 C 
ATOM     28  C   UNL     1      34.856 -19.769 -23.437  0.00  0.00    +0.003 C 
ATOM     29  C   UNL     1      34.365 -17.699 -24.581  0.00  0.00    +0.000 C 
ATOM     30  C   UNL     1      34.568 -19.079 -24.614  0.00  0.00    +0.000 C 
BRANCH  26  32
ATOM     31  N   UNL     1      33.528 -13.569 -24.479  0.00  0.00    -0.242 NA
ATOM     32  C   UNL     1      34.240 -15.579 -23.338  0.00  0.00    +0.019 C 
ATOM     33  C   UNL     1      34.524 -14.838 -22.197  0.00  0.00    +0.003 C 
ATOM     34  C   UNL     1      33.748 -14.902 -24.444  0.00  0.00    +0.099 C 
ATOM     35  C   UNL     1      34.311 -13.464 -22.195  0.00  0.00    +0.021 C 
ATOM     36  C   UNL     1      33.816 -12.883 -23.351  0.00  0.00    +0.099 C 
ENDBRANCH  26  32
ENDBRANCH   5  25
TORSDOF 8
ENDMDL
MODEL 4
REMARK VINA RESULT:     -11.0      2.474      5.289
REMARK  Name = 4369498
REMARK  8 active torsions:
REMARK  status: ('A' for Active; 'I' for Inactive)
REMARK    1  A    between atoms: N_2  and  C_11
REMARK    2  A    between atoms: C_5  and  C_25
REMARK    3  A    between atoms: C_8  and  S_14
REMARK    4  A    between atoms: C_13  and  O_23
REMARK    5  A    between atoms: S_14  and  N_17
REMARK    6  A    between atoms: N_17  and  C_19
REMARK    7  A    between atoms: C_19  and  C_20
REMARK    8  A    between atoms: C_26  and  C_32
REMARK                            x       y       z     vdW  Elec       q    Type
REMARK                         _______ _______ _______ _____ _____    ______ ____
ROOT
ATOM      1  O   UNL     1      36.273 -21.144 -18.128  0.00  0.00    -0.424 OA
ATOM      2  N   UNL     1      36.069 -22.373 -16.198  0.00  0.00    -0.265 N 
ATOM      3  N   UNL     1      34.533 -22.586 -18.037  0.00  0.00    -0.193 NA
ATOM      4  C   UNL     1      35.582 -22.084 -17.426  0.00  0.00    +0.293 C 
ATOM      5  C   UNL     1      35.582 -21.049 -19.299  0.00  0.00    +0.168 C 
ATOM      6  C   UNL     1      34.528 -21.926 -19.239  0.00  0.00    +0.141 C 
ATOM      7  H   UNL     1      36.876 -21.869 -15.943  0.00  0.00    +0.157 HD
ENDROOT
BRANCH   2  11
ATOM      8  C   UNL     1      33.772 -24.205 -13.929  0.00  0.00    +0.123 C 
ATOM      9  C   UNL     1      34.244 -23.314 -14.893  0.00  0.00    +0.038 C 
ATOM     10  C   UNL     1      34.656 -25.073 -13.289  0.00  0.00    +0.023 C 
ATOM     11  C   UNL     1      35.601 -23.290 -15.215  0.00  0.00    +0.087 C 
ATOM     12  C   UNL     1      36.014 -25.048 -13.610  0.00  0.00    +0.040 C 
ATOM     13  C   UNL     1      36.486 -24.157 -14.574  0.00  0.00    +0.152 C 
BRANCH   8  14
ATOM     14  S   UNL     1      32.073 -24.234 -13.523  0.00  0.00    +0.060 S 
ATOM     15  O   UNL     1      31.641 -25.622 -13.411  0.00  0.00    -0.153 OA
ATOM     16  O   UNL     1      31.871 -23.331 -12.398  0.00  0.00    -0.153 OA
BRANCH  14  17
ATOM     17  N   UNL     1      31.351 -23.546 -14.911  0.00  0.00    -0.179 NA
ATOM     18  H   UNL     1      32.000 -23.692 -15.684  0.00  0.00    +0.149 HD
BRANCH  17  19
ATOM     19  C   UNL     1      30.036 -24.023 -15.364  0.00  0.00    +0.091 C 
BRANCH  19  20
ATOM     20  C   UNL     1      29.193 -22.884 -15.831  0.00  0.00    +0.017 C 
ATOM     21  C   UNL     1      28.017 -23.160 -16.723  0.00  0.00    +0.001 C 
ATOM     22  C   UNL     1      27.796 -22.739 -15.300  0.00  0.00    +0.001 C 
ENDBRANCH  19  20
ENDBRANCH  17  19
ENDBRANCH  14  17
ENDBRANCH   8  14
BRANCH  13  23
ATOM     23  O   UNL     1      37.815 -24.148 -14.873  0.00  0.00    -0.470 OA
ATOM     24  C   UNL     1      38.621 -25.159 -14.270  0.00  0.00    +0.253 C 
ENDBRANCH  13  23
ENDBRANCH   2  11
BRANCH   5  25
ATOM     25  C   UNL     1      36.088 -20.108 -20.267  0.00  0.00    +0.036 C 
ATOM     26  C   UNL     1      35.728 -18.665 -22.171  0.00  0.00    +0.002 C 
ATOM     27  C   UNL     1      35.238 -19.575 -21.236  0.00  0.00    +0.003 C 
ATOM     28  C   UNL     1      37.431 -19.728 -20.234  0.00  0.00    +0.003 C 
ATOM     29  C   UNL     1      37.070 -18.287 -22.138  0.00  0.00    +0.000 C 
ATOM     30  C   UNL     1      37.922 -18.818 -21.169  0.00  0.00    +0.000 C 
BRANCH  26  32
ATOM     31  N   UNL     1      33.104 -18.471 -24.816  0.00  0.00    -0.242 NA
ATOM     32  C   UNL     1      34.846 -18.114 -23.176  0.00  0.00    +0.019 C 
ATOM     33  C   UNL     1      34.864 -16.758 -23.481  0.00  0.00    +0.003 C 
ATOM     34  C   UNL     1      33.955 -18.921 -23.866  0.00  0.00    +0.099 C 
ATOM     35  C   UNL     1      34.004 -16.258 -24.452  0.00  0.00    +0.021 C 
ATOM     36  C   UNL     1      33.151 -17.148 -25.084  0.00  0.00    +0.099 C 
ENDBRANCH  26  32
ENDBRANCH   5  25
TORSDOF 8
ENDMDL
MODEL 5
REMARK VINA RESULT:     -10.9      5.041      9.848
REMARK  Name = 4369498
REMARK  8 active torsions:
REMARK  status: ('A' for Active; 'I' for Inactive)
REMARK    1  A    between atoms: N_2  and  C_11
REMARK    2  A    between atoms: C_5  and  C_25
REMARK    3  A    between atoms: C_8  and  S_14
REMARK    4  A    between atoms: C_13  and  O_23
REMARK    5  A    between atoms: S_14  and  N_17
REMARK    6  A    between atoms: N_17  and  C_19
REMARK    7  A    between atoms: C_19  and  C_20
REMARK    8  A    between atoms: C_26  and  C_32
REMARK                            x       y       z     vdW  Elec       q    Type
REMARK                         _______ _______ _______ _____ _____    ______ ____
ROOT
ATOM      1  O   UNL     1      33.542 -11.314 -22.244  0.00  0.00    -0.424 OA
ATOM      2  N   UNL     1      34.251 -13.382 -22.951  0.00  0.00    -0.265 N 
ATOM      3  N   UNL     1      32.072 -13.015 -21.998  0.00  0.00    -0.193 NA
ATOM      4  C   UNL     1      33.264 -12.637 -22.401  0.00  0.00    +0.293 C 
ATOM      5  C   UNL     1      32.405 -10.814 -21.683  0.00  0.00    +0.168 C 
ATOM      6  C   UNL     1      31.517 -11.849 -21.536  0.00  0.00    +0.141 C 
ATOM      7  H   UNL     1      35.068 -12.882 -23.179  0.00  0.00    +0.157 HD
ENDROOT
BRANCH   2  11
ATOM      8  C   UNL     1      34.994 -17.007 -22.656  0.00  0.00    +0.123 C 
ATOM      9  C   UNL     1      34.940 -15.642 -22.372  0.00  0.00    +0.038 C 
ATOM     10  C   UNL     1      34.401 -17.502 -23.818  0.00  0.00    +0.023 C 
ATOM     11  C   UNL     1      34.295 -14.773 -23.251  0.00  0.00    +0.087 C 
ATOM     12  C   UNL     1      33.755 -16.631 -24.696  0.00  0.00    +0.040 C 
ATOM     13  C   UNL     1      33.702 -15.267 -24.413  0.00  0.00    +0.152 C 
BRANCH   8  14
ATOM     14  S   UNL     1      35.805 -18.097 -21.558  0.00  0.00    +0.060 S 
ATOM     15  O   UNL     1      37.082 -18.487 -22.143  0.00  0.00    -0.153 OA
ATOM     16  O   UNL     1      35.782 -17.491 -20.234  0.00  0.00    -0.153 OA
BRANCH  14  17
ATOM     17  N   UNL     1      34.767 -19.455 -21.554  0.00  0.00    -0.179 NA
ATOM     18  H   UNL     1      35.218 -20.172 -22.123  0.00  0.00    +0.149 HD
BRANCH  17  19
ATOM     19  C   UNL     1      34.400 -20.091 -20.281  0.00  0.00    +0.091 C 
BRANCH  19  20
ATOM     20  C   UNL     1      35.314 -21.231 -19.976  0.00  0.00    +0.017 C 
ATOM     21  C   UNL     1      36.396 -21.050 -18.952  0.00  0.00    +0.001 C 
ATOM     22  C   UNL     1      35.211 -21.918 -18.646  0.00  0.00    +0.001 C 
ENDBRANCH  19  20
ENDBRANCH  17  19
ENDBRANCH  14  17
ENDBRANCH   8  14
BRANCH  13  23
ATOM     23  O   UNL     1      33.068 -14.434 -25.285  0.00  0.00    -0.470 OA
ATOM     24  C   UNL     1      33.863 -13.435 -25.920  0.00  0.00    +0.253 C 
ENDBRANCH  13  23
ENDBRANCH   2  11
BRANCH   5  25
ATOM     25  C   UNL     1      32.402  -9.401 -21.393  0.00  0.00    +0.036 C 
ATOM     26  C   UNL     1      32.782  -7.119 -22.090  0.00  0.00    +0.002 C 
ATOM     27  C   UNL     1      32.787  -8.485 -22.372  0.00  0.00    +0.003 C 
ATOM     28  C   UNL     1      32.011  -8.950 -20.132  0.00  0.00    +0.003 C 
ATOM     29  C   UNL     1      32.392  -6.669 -20.828  0.00  0.00    +0.000 C 
ATOM     30  C   UNL     1      32.006  -7.585 -19.849  0.00  0.00    +0.000 C 
BRANCH  26  32
ATOM     31  N   UNL     1      32.708  -4.149 -24.345  0.00  0.00    -0.242 NA
ATOM     32  C   UNL     1      33.183  -6.170 -23.105  0.00  0.00    +0.019 C 
ATOM     33  C   UNL     1      34.373  -6.328 -23.806  0.00  0.00    +0.003 C 
ATOM     34  C   UNL     1      32.392  -5.072 -23.410  0.00  0.00    +0.099 C 
ATOM     35  C   UNL     1      34.731  -5.399 -24.776  0.00  0.00    +0.021 C 
ATOM     36  C   UNL     1      33.871  -4.337 -25.006  0.00  0.00    +0.099 C 
ENDBRANCH  26  32
ENDBRANCH   5  25
TORSDOF 8
ENDMDL
MODEL 6
REMARK VINA RESULT:     -10.4      8.951     16.126
REMARK  Name = 4369498
REMARK  8 active torsions:
REMARK  status: ('A' for Active; 'I' for Inactive)
REMARK    1  A    between atoms: N_2  and  C_11
REMARK    2  A    between atoms: C_5  and  C_25
REMARK    3  A    between atoms: C_8  and  S_14
REMARK    4  A    between atoms: C_13  and  O_23
REMARK    5  A    between atoms: S_14  and  N_17
REMARK    6  A    between atoms: N_17  and  C_19
REMARK    7  A    between atoms: C_19  and  C_20
REMARK    8  A    between atoms: C_26  and  C_32
REMARK                            x       y       z     vdW  Elec       q    Type
REMARK                         _______ _______ _______ _____ _____    ______ ____
ROOT
ATOM      1  O   UNL     1      32.447  -9.954 -23.663  0.00  0.00    -0.424 OA
ATOM      2  N   UNL     1      31.671  -7.857 -23.136  0.00  0.00    -0.265 N 
ATOM      3  N   UNL     1      34.015  -8.355 -23.350  0.00  0.00    -0.193 NA
ATOM      4  C   UNL     1      32.737  -8.657 -23.369  0.00  0.00    +0.293 C 
ATOM      5  C   UNL     1      33.672 -10.521 -23.847  0.00  0.00    +0.168 C 
ATOM      6  C   UNL     1      34.620  -9.547 -23.656  0.00  0.00    +0.141 C 
ATOM      7  H   UNL     1      30.796  -8.302 -23.206  0.00  0.00    +0.157 HD
ENDROOT
BRANCH   2  11
ATOM      8  C   UNL     1      31.519  -4.167 -23.521  0.00  0.00    +0.123 C 
ATOM      9  C   UNL     1      31.572  -5.527 -23.830  0.00  0.00    +0.038 C 
ATOM     10  C   UNL     1      31.509  -3.755 -22.188  0.00  0.00    +0.023 C 
ATOM     11  C   UNL     1      31.615  -6.473 -22.806  0.00  0.00    +0.087 C 
ATOM     12  C   UNL     1      31.552  -4.702 -21.165  0.00  0.00    +0.040 C 
ATOM     13  C   UNL     1      31.604  -6.061 -21.474  0.00  0.00    +0.152 C 
BRANCH   8  14
ATOM     14  S   UNL     1      31.468  -2.981 -24.801  0.00  0.00    +0.060 S 
ATOM     15  O   UNL     1      30.083  -2.583 -25.018  0.00  0.00    -0.153 OA
ATOM     16  O   UNL     1      32.465  -1.962 -24.502  0.00  0.00    -0.153 OA
BRANCH  14  17
ATOM     17  N   UNL     1      31.997  -3.879 -26.156  0.00  0.00    -0.179 NA
ATOM     18  H   UNL     1      31.325  -3.709 -26.904  0.00  0.00    +0.149 HD
BRANCH  17  19
ATOM     19  C   UNL     1      33.332  -3.634 -26.721  0.00  0.00    +0.091 C 
BRANCH  19  20
ATOM     20  C   UNL     1      34.213  -4.823 -26.531  0.00  0.00    +0.017 C 
ATOM     21  C   UNL     1      35.689  -4.621 -26.339  0.00  0.00    +0.001 C 
ATOM     22  C   UNL     1      34.837  -5.068 -25.188  0.00  0.00    +0.001 C 
ENDBRANCH  19  20
ENDBRANCH  17  19
ENDBRANCH  14  17
ENDBRANCH   8  14
BRANCH  13  23
ATOM     23  O   UNL     1      31.647  -6.970 -20.459  0.00  0.00    -0.470 OA
ATOM     24  C   UNL     1      32.916  -7.199 -19.848  0.00  0.00    +0.253 C 
ENDBRANCH  13  23
ENDBRANCH   2  11
BRANCH   5  25
ATOM     25  C   UNL     1      33.686 -11.924 -24.178  0.00  0.00    +0.036 C 
ATOM     26  C   UNL     1      34.096 -14.220 -23.547  0.00  0.00    +0.002 C 
ATOM     27  C   UNL     1      34.083 -12.864 -23.227  0.00  0.00    +0.003 C 
ATOM     28  C   UNL     1      33.300 -12.344 -25.452  0.00  0.00    +0.003 C 
ATOM     29  C   UNL     1      33.710 -14.639 -24.821  0.00  0.00    +0.000 C 
ATOM     30  C   UNL     1      33.312 -13.701 -25.773  0.00  0.00    +0.000 C 
BRANCH  26  32
ATOM     31  N   UNL     1      34.836 -15.765 -20.233  0.00  0.00    -0.242 NA
ATOM     32  C   UNL     1      34.509 -15.194 -22.560  0.00  0.00    +0.019 C 
ATOM     33  C   UNL     1      34.964 -16.452 -22.939  0.00  0.00    +0.003 C 
ATOM     34  C   UNL     1      34.465 -14.902 -21.206  0.00  0.00    +0.099 C 
ATOM     35  C   UNL     1      35.355 -17.366 -21.968  0.00  0.00    +0.021 C 
ATOM     36  C   UNL     1      35.272 -16.977 -20.640  0.00  0.00    +0.099 C 
ENDBRANCH  26  32
ENDBRANCH   5  25
TORSDOF 8
ENDMDL
MODEL 7
REMARK VINA RESULT:     -10.4      1.416      1.760
REMARK  Name = 4369498
REMARK  8 active torsions:
REMARK  status: ('A' for Active; 'I' for Inactive)
REMARK    1  A    between atoms: N_2  and  C_11
REMARK    2  A    between atoms: C_5  and  C_25
REMARK    3  A    between atoms: C_8  and  S_14
REMARK    4  A    between atoms: C_13  and  O_23
REMARK    5  A    between atoms: S_14  and  N_17
REMARK    6  A    between atoms: N_17  and  C_19
REMARK    7  A    between atoms: C_19  and  C_20
REMARK    8  A    between atoms: C_26  and  C_32
REMARK                            x       y       z     vdW  Elec       q    Type
REMARK                         _______ _______ _______ _____ _____    ______ ____
ROOT
ATOM      1  O   UNL     1      33.576 -20.616 -20.335  0.00  0.00    -0.424 OA
ATOM      2  N   UNL     1      32.942 -21.843 -18.499  0.00  0.00    -0.265 N 
ATOM      3  N   UNL     1      35.226 -21.200 -18.902  0.00  0.00    -0.193 NA
ATOM      4  C   UNL     1      33.944 -21.250 -19.187  0.00  0.00    +0.293 C 
ATOM      5  C   UNL     1      34.751 -20.120 -20.816  0.00  0.00    +0.168 C 
ATOM      6  C   UNL     1      35.748 -20.477 -19.943  0.00  0.00    +0.141 C 
ATOM      7  H   UNL     1      32.050 -21.751 -18.905  0.00  0.00    +0.157 HD
ENDROOT
BRANCH   2  11
ATOM      8  C   UNL     1      34.235 -23.799 -15.620  0.00  0.00    +0.123 C 
ATOM      9  C   UNL     1      34.190 -23.073 -16.811  0.00  0.00    +0.038 C 
ATOM     10  C   UNL     1      33.063 -24.029 -14.900  0.00  0.00    +0.023 C 
ATOM     11  C   UNL     1      32.974 -22.579 -17.281  0.00  0.00    +0.087 C 
ATOM     12  C   UNL     1      31.846 -23.535 -15.370  0.00  0.00    +0.040 C 
ATOM     13  C   UNL     1      31.802 -22.809 -16.560  0.00  0.00    +0.152 C 
BRANCH   8  14
ATOM     14  S   UNL     1      35.757 -24.422 -15.033  0.00  0.00    +0.060 S 
ATOM     15  O   UNL     1      35.789 -25.863 -15.249  0.00  0.00    -0.153 OA
ATOM     16  O   UNL     1      36.819 -23.593 -15.586  0.00  0.00    -0.153 OA
BRANCH  14  17
ATOM     17  N   UNL     1      35.653 -24.123 -13.353  0.00  0.00    -0.179 NA
ATOM     18  H   UNL     1      35.654 -25.032 -12.891  0.00  0.00    +0.149 HD
BRANCH  17  19
ATOM     19  C   UNL     1      36.682 -23.308 -12.690  0.00  0.00    +0.091 C 
BRANCH  19  20
ATOM     20  C   UNL     1      37.877 -24.136 -12.355  0.00  0.00    +0.017 C 
ATOM     21  C   UNL     1      38.060 -24.627 -10.948  0.00  0.00    +0.001 C 
ATOM     22  C   UNL     1      37.697 -25.592 -12.038  0.00  0.00    +0.001 C 
ENDBRANCH  19  20
ENDBRANCH  17  19
ENDBRANCH  14  17
ENDBRANCH   8  14
BRANCH  13  23
ATOM     23  O   UNL     1      30.603 -22.336 -17.003  0.00  0.00    -0.470 OA
ATOM     24  C   UNL     1      29.438 -22.772 -16.306  0.00  0.00    +0.253 C 
ENDBRANCH  13  23
ENDBRANCH   2  11
BRANCH   5  25
ATOM     25  C   UNL     1      34.676 -19.382 -22.052  0.00  0.00    +0.036 C 
ATOM     26  C   UNL     1      34.460 -17.282 -23.228  0.00  0.00    +0.002 C 
ATOM     27  C   UNL     1      34.531 -17.995 -22.032  0.00  0.00    +0.003 C 
ATOM     28  C   UNL     1      34.750 -20.057 -23.272  0.00  0.00    +0.003 C 
ATOM     29  C   UNL     1      34.533 -17.958 -24.447  0.00  0.00    +0.000 C 
ATOM     30  C   UNL     1      34.679 -19.345 -24.469  0.00  0.00    +0.000 C 
BRANCH  26  32
ATOM     31  N   UNL     1      34.588 -13.756 -22.019  0.00  0.00    -0.242 NA
ATOM     32  C   UNL     1      34.308 -15.844 -23.206  0.00  0.00    +0.019 C 
ATOM     33  C   UNL     1      33.764 -15.163 -24.289  0.00  0.00    +0.003 C 
ATOM     34  C   UNL     1      34.701 -15.100 -22.104  0.00  0.00    +0.099 C 
ATOM     35  C   UNL     1      33.630 -13.780 -24.238  0.00  0.00    +0.021 C 
ATOM     36  C   UNL     1      34.054 -13.130 -23.090  0.00  0.00    +0.099 C 
ENDBRANCH  26  32
ENDBRANCH   5  25
TORSDOF 8
ENDMDL
MODEL 8
REMARK VINA RESULT:     -10.3      6.085     13.776
REMARK  Name = 4369498
REMARK  8 active torsions:
REMARK  status: ('A' for Active; 'I' for Inactive)
REMARK    1  A    between atoms: N_2  and  C_11
REMARK    2  A    between atoms: C_5  and  C_25
REMARK    3  A    between atoms: C_8  and  S_14
REMARK    4  A    between atoms: C_13  and  O_23
REMARK    5  A    between atoms: S_14  and  N_17
REMARK    6  A    between atoms: N_17  and  C_19
REMARK    7  A    between atoms: C_19  and  C_20
REMARK    8  A    between atoms: C_26  and  C_32
REMARK                            x       y       z     vdW  Elec       q    Type
REMARK                         _______ _______ _______ _____ _____    ______ ____
ROOT
ATOM      1  O   UNL     1      34.369 -14.412 -23.699  0.00  0.00    -0.424 OA
ATOM      2  N   UNL     1      34.159 -12.159 -24.095  0.00  0.00    -0.265 N 
ATOM      3  N   UNL     1      34.389 -13.068 -21.880  0.00  0.00    -0.193 NA
ATOM      4  C   UNL     1      34.303 -13.151 -23.188  0.00  0.00    +0.293 C 
ATOM      5  C   UNL     1      34.511 -15.196 -22.593  0.00  0.00    +0.168 C 
ATOM      6  C   UNL     1      34.522 -14.377 -21.493  0.00  0.00    +0.141 C 
ATOM      7  H   UNL     1      34.117 -12.457 -25.033  0.00  0.00    +0.157 HD
ENDROOT
BRANCH   2  11
ATOM      8  C   UNL     1      32.976  -8.866 -22.854  0.00  0.00    +0.123 C 
ATOM      9  C   UNL     1      33.090 -10.244 -23.042  0.00  0.00    +0.038 C 
ATOM     10  C   UNL     1      33.831  -7.997 -23.532  0.00  0.00    +0.023 C 
ATOM     11  C   UNL     1      34.056 -10.751 -23.910  0.00  0.00    +0.087 C 
ATOM     12  C   UNL     1      34.798  -8.505 -24.400  0.00  0.00    +0.040 C 
ATOM     13  C   UNL     1      34.911  -9.882 -24.589  0.00  0.00    +0.152 C 
BRANCH   8  14
ATOM     14  S   UNL     1      31.764  -8.228 -21.770  0.00  0.00    +0.060 S 
ATOM     15  O   UNL     1      30.575  -7.893 -22.543  0.00  0.00    -0.153 OA
ATOM     16  O   UNL     1      31.648  -9.145 -20.645  0.00  0.00    -0.153 OA
BRANCH  14  17
ATOM     17  N   UNL     1      32.486  -6.780 -21.221  0.00  0.00    -0.179 NA
ATOM     18  H   UNL     1      33.367  -6.679 -21.726  0.00  0.00    +0.149 HD
BRANCH  17  19
ATOM     19  C   UNL     1      31.768  -5.505 -21.362  0.00  0.00    +0.091 C 
BRANCH  19  20
ATOM     20  C   UNL     1      32.250  -4.756 -22.559  0.00  0.00    +0.017 C 
ATOM     21  C   UNL     1      31.454  -4.815 -23.831  0.00  0.00    +0.001 C 
ATOM     22  C   UNL     1      31.488  -3.550 -23.025  0.00  0.00    +0.001 C 
ENDBRANCH  19  20
ENDBRANCH  17  19
ENDBRANCH  14  17
ENDBRANCH   8  14
BRANCH  13  23
ATOM     23  O   UNL     1      35.861 -10.358 -25.442  0.00  0.00    -0.470 OA
ATOM     24  C   UNL     1      35.431 -10.722 -26.752  0.00  0.00    +0.253 C 
ENDBRANCH  13  23
ENDBRANCH   2  11
BRANCH   5  25
ATOM     25  C   UNL     1      34.609 -16.616 -22.824  0.00  0.00    +0.036 C 
ATOM     26  C   UNL     1      34.948 -18.856 -21.983  0.00  0.00    +0.002 C 
ATOM     27  C   UNL     1      34.853 -17.483 -21.759  0.00  0.00    +0.003 C 
ATOM     28  C   UNL     1      34.457 -17.125 -24.115  0.00  0.00    +0.003 C 
ATOM     29  C   UNL     1      34.797 -19.363 -23.274  0.00  0.00    +0.000 C 
ATOM     30  C   UNL     1      34.551 -18.498 -24.340  0.00  0.00    +0.000 C 
BRANCH  26  32
ATOM     31  N   UNL     1      36.778 -20.696 -19.303  0.00  0.00    -0.242 NA
ATOM     32  C   UNL     1      35.203 -19.754 -20.878  0.00  0.00    +0.019 C 
ATOM     33  C   UNL     1      34.183 -20.521 -20.326  0.00  0.00    +0.003 C 
ATOM     34  C   UNL     1      36.472 -19.877 -20.334  0.00  0.00    +0.099 C 
ATOM     35  C   UNL     1      34.459 -21.375 -19.265  0.00  0.00    +0.021 C 
ATOM     36  C   UNL     1      35.761 -21.425 -18.794  0.00  0.00    +0.099 C 
ENDBRANCH  26  32
ENDBRANCH   5  25
TORSDOF 8
ENDMDL
MODEL 9
REMARK VINA RESULT:     -10.2      4.374      8.309
REMARK  Name = 4369498
REMARK  8 active torsions:
REMARK  status: ('A' for Active; 'I' for Inactive)
REMARK    1  A    between atoms: N_2  and  C_11
REMARK    2  A    between atoms: C_5  and  C_25
REMARK    3  A    between atoms: C_8  and  S_14
REMARK    4  A    between atoms: C_13  and  O_23
REMARK    5  A    between atoms: S_14  and  N_17
REMARK    6  A    between atoms: N_17  and  C_19
REMARK    7  A    between atoms: C_19  and  C_20
REMARK    8  A    between atoms: C_26  and  C_32
REMARK                            x       y       z     vdW  Elec       q    Type
REMARK                         _______ _______ _______ _____ _____    ______ ____
ROOT
ATOM      1  O   UNL     1      34.195 -13.396 -23.917  0.00  0.00    -0.424 OA
ATOM      2  N   UNL     1      34.539 -15.668 -23.935  0.00  0.00    -0.265 N 
ATOM      3  N   UNL     1      33.936 -14.464 -21.941  0.00  0.00    -0.193 NA
ATOM      4  C   UNL     1      34.222 -14.565 -23.219  0.00  0.00    +0.293 C 
ATOM      5  C   UNL     1      33.857 -12.471 -22.976  0.00  0.00    +0.168 C 
ATOM      6  C   UNL     1      33.701 -13.123 -21.779  0.00  0.00    +0.141 C 
ATOM      7  H   UNL     1      34.717 -15.505 -24.890  0.00  0.00    +0.157 HD
ENDROOT
BRANCH   2  11
ATOM      8  C   UNL     1      35.670 -18.687 -22.094  0.00  0.00    +0.123 C 
ATOM      9  C   UNL     1      35.542 -17.358 -22.502  0.00  0.00    +0.038 C 
ATOM     10  C   UNL     1      34.912 -19.682 -22.713  0.00  0.00    +0.023 C 
ATOM     11  C   UNL     1      34.657 -17.026 -23.528  0.00  0.00    +0.087 C 
ATOM     12  C   UNL     1      34.028 -19.349 -23.739  0.00  0.00    +0.040 C 
ATOM     13  C   UNL     1      33.900 -18.021 -24.146  0.00  0.00    +0.152 C 
BRANCH   8  14
ATOM     14  S   UNL     1      36.780 -19.105 -20.812  0.00  0.00    +0.060 S 
ATOM     15  O   UNL     1      38.133 -19.123 -21.352  0.00  0.00    -0.153 OA
ATOM     16  O   UNL     1      36.478 -18.254 -19.669  0.00  0.00    -0.153 OA
BRANCH  14  17
ATOM     17  N   UNL     1      36.319 -20.707 -20.435  0.00  0.00    -0.179 NA
ATOM     18  H   UNL     1      37.180 -21.244 -20.329  0.00  0.00    +0.149 HD
BRANCH  17  19
ATOM     19  C   UNL     1      35.504 -20.972 -19.241  0.00  0.00    +0.091 C 
BRANCH  19  20
ATOM     20  C   UNL     1      34.214 -21.622 -19.615  0.00  0.00    +0.017 C 
ATOM     21  C   UNL     1      33.107 -21.692 -18.603  0.00  0.00    +0.001 C 
ATOM     22  C   UNL     1      32.987 -20.775 -19.784  0.00  0.00    +0.001 C 
ENDBRANCH  19  20
ENDBRANCH  17  19
ENDBRANCH  14  17
ENDBRANCH   8  14
BRANCH  13  23
ATOM     23  O   UNL     1      33.031 -17.717 -25.151  0.00  0.00    -0.470 OA
ATOM     24  C   UNL     1      31.948 -18.620 -25.365  0.00  0.00    +0.253 C 
ENDBRANCH  13  23
ENDBRANCH   2  11
BRANCH   5  25
ATOM     25  C   UNL     1      33.749 -11.106 -23.430  0.00  0.00    +0.036 C 
ATOM     26  C   UNL     1      33.048  -8.824 -23.055  0.00  0.00    +0.002 C 
ATOM     27  C   UNL     1      33.151 -10.144 -22.616  0.00  0.00    +0.003 C 
ATOM     28  C   UNL     1      34.246 -10.747 -24.683  0.00  0.00    +0.003 C 
ATOM     29  C   UNL     1      33.544  -8.466 -24.309  0.00  0.00    +0.000 C 
ATOM     30  C   UNL     1      34.144  -9.427 -25.123  0.00  0.00    +0.000 C 
BRANCH  26  32
ATOM     31  N   UNL     1      32.138  -6.876 -20.007  0.00  0.00    -0.242 NA
ATOM     32  C   UNL     1      32.426  -7.827 -22.212  0.00  0.00    +0.019 C 
ATOM     33  C   UNL     1      31.550  -6.885 -22.740  0.00  0.00    +0.003 C 
ATOM     34  C   UNL     1      32.685  -7.780 -20.850  0.00  0.00    +0.099 C 
ATOM     35  C   UNL     1      30.968  -5.940 -21.904  0.00  0.00    +0.021 C 
ATOM     36  C   UNL     1      31.292  -5.977 -20.557  0.00  0.00    +0.099 C 
ENDBRANCH  26  32
ENDBRANCH   5  25
TORSDOF 8
ENDMDL
