MODEL 1
REMARK VINA RESULT:     -12.3      0.000      0.000
REMARK  Name = 23629645
REMARK  6 active torsions:
REMARK  status: ('A' for Active; 'I' for Inactive)
REMARK    1  A    between atoms: N_1  and  C_6
REMARK    2  A    between atoms: N_1  and  C_21
REMARK    3  A    between atoms: C_3  and  C_16
REMARK    4  A    between atoms: C_11  and  C_18
REMARK    5  A    between atoms: C_18  and  O_19
REMARK    6  A    between atoms: C_21  and  C_28
REMARK                            x       y       z     vdW  Elec       q    Type
REMARK                         _______ _______ _______ _____ _____    ______ ____
ROOT
ATOM      1  N   UNL     1      35.697 -19.187 -21.799  0.00  0.00    -0.300 N 
ATOM      2  C   UNL     1      36.910 -18.428 -21.571  0.00  0.00    +0.113 C 
ENDROOT
BRANCH   1   6
ATOM      3  C   UNL     1      34.130 -21.646 -18.783  0.00  0.00    +0.054 C 
ATOM      4  C   UNL     1      35.508 -21.552 -18.953  0.00  0.00    +0.006 C 
ATOM      5  C   UNL     1      33.269 -20.929 -19.608  0.00  0.00    +0.006 C 
ATOM      6  C   UNL     1      35.170 -20.014 -20.784  0.00  0.00    +0.048 C 
ATOM      7  C   UNL     1      36.030 -20.735 -19.956  0.00  0.00    +0.015 C 
ATOM      8  C   UNL     1      33.789 -20.111 -20.611  0.00  0.00    +0.015 C 
BRANCH   3  16
ATOM      9  O   UNL     1      32.371 -22.720 -17.775  0.00  0.00    -0.270 OA
ATOM     10  N   UNL     1      34.457 -23.005 -16.760  0.00  0.00    -0.276 N 
ATOM     11  C   UNL     1      35.748 -22.949 -14.163  0.00  0.00    +0.102 C 
ATOM     12  C   UNL     1      34.268 -23.310 -14.330  0.00  0.00    +0.033 C 
ATOM     13  C   UNL     1      36.288 -22.147 -15.353  0.00  0.00    +0.033 C 
ATOM     14  C   UNL     1      33.953 -23.886 -15.710  0.00  0.00    +0.094 C 
ATOM     15  C   UNL     1      35.901 -22.753 -16.702  0.00  0.00    +0.094 C 
ATOM     16  C   UNL     1      33.581 -22.508 -17.727  0.00  0.00    +0.249 C 
BRANCH  11  18
ATOM     17  O   UNL     1      36.082 -25.278 -13.644  0.00  0.00    -0.250 OA
ATOM     18  C   UNL     1      36.560 -24.190 -13.933  0.00  0.00    +0.317 C 
BRANCH  18  19
ATOM     19  O   UNL     1      37.884 -23.906 -14.097  0.00  0.00    -0.444 OA
ATOM     20  C   UNL     1      38.738 -25.039 -14.279  0.00  0.00    +0.256 C 
ENDBRANCH  18  19
ENDBRANCH  11  18
ENDBRANCH   3  16
ENDBRANCH   1   6
BRANCH   1  21
ATOM     21  C   UNL     1      35.039 -19.098 -23.088  0.00  0.00    +0.148 C 
BRANCH  21  28
ATOM     22  N   UNL     1      34.682 -16.789 -22.439  0.00  0.00    -0.392 NA
ATOM     23  N   UNL     1      34.009 -16.081 -25.029  0.00  0.00    -0.200 NA
ATOM     24  N   UNL     1      33.680 -13.889 -24.359  0.00  0.00    -0.271 NA
ATOM     25  N   UNL     1      34.004 -13.235 -22.075  0.00  0.00    -0.310 NA
ATOM     26  N   UNL     1      34.668 -14.848 -20.481  0.00  0.00    -0.329 N 
ATOM     27  N   UNL     1      33.347 -11.665 -23.684  0.00  0.00    -0.283 N 
ATOM     28  C   UNL     1      34.670 -17.679 -23.432  0.00  0.00    +0.133 C 
ATOM     29  C   UNL     1      34.341 -17.346 -24.707  0.00  0.00    +0.193 C 
ATOM     30  C   UNL     1      34.349 -15.524 -22.762  0.00  0.00    +0.248 C 
ATOM     31  C   UNL     1      34.007 -15.153 -24.064  0.00  0.00    +0.131 C 
ATOM     32  C   UNL     1      34.327 -14.515 -21.819  0.00  0.00    +0.231 C 
ATOM     33  C   UNL     1      33.694 -12.994 -23.354  0.00  0.00    +0.207 C 
ATOM     34  H   UNL     1      34.662 -14.153 -19.784  0.00  0.00    +0.145 HD
ATOM     35  H   UNL     1      34.911 -15.774 -20.251  0.00  0.00    +0.145 HD
ATOM     36  H   UNL     1      33.110 -11.435 -24.612  0.00  0.00    +0.156 HD
ATOM     37  H   UNL     1      33.340 -10.971 -22.987  0.00  0.00    +0.156 HD
ENDBRANCH  21  28
ENDBRANCH   1  21
TORSDOF 6
ENDMDL
MODEL 2
REMARK VINA RESULT:     -11.8      1.029      2.000
REMARK  Name = 23629645
REMARK  6 active torsions:
REMARK  status: ('A' for Active; 'I' for Inactive)
REMARK    1  A    between atoms: N_1  and  C_6
REMARK    2  A    between atoms: N_1  and  C_21
REMARK    3  A    between atoms: C_3  and  C_16
REMARK    4  A    between atoms: C_11  and  C_18
REMARK    5  A    between atoms: C_18  and  O_19
REMARK    6  A    between atoms: C_21  and  C_28
REMARK                            x       y       z     vdW  Elec       q    Type
REMARK                         _______ _______ _______ _____ _____    ______ ____
ROOT
ATOM      1  N   UNL     1      35.083 -19.086 -22.176  0.00  0.00    -0.300 N 
ATOM      2  C   UNL     1      34.582 -19.331 -23.513  0.00  0.00    +0.113 C 
ENDROOT
BRANCH   1   6
ATOM      3  C   UNL     1      33.895 -21.533 -18.981  0.00  0.00    +0.054 C 
ATOM      4  C   UNL     1      35.249 -21.371 -19.264  0.00  0.00    +0.006 C 
ATOM      5  C   UNL     1      32.934 -20.887 -19.753  0.00  0.00    +0.006 C 
ATOM      6  C   UNL     1      34.684 -19.909 -21.101  0.00  0.00    +0.048 C 
ATOM      7  C   UNL     1      35.644 -20.557 -20.325  0.00  0.00    +0.015 C 
ATOM      8  C   UNL     1      33.328 -20.073 -20.815  0.00  0.00    +0.015 C 
BRANCH   3  16
ATOM      9  O   UNL     1      32.277 -22.633 -17.784  0.00  0.00    -0.270 OA
ATOM     10  N   UNL     1      34.462 -22.849 -16.983  0.00  0.00    -0.276 N 
ATOM     11  C   UNL     1      36.009 -22.718 -14.532  0.00  0.00    +0.102 C 
ATOM     12  C   UNL     1      34.529 -23.118 -14.543  0.00  0.00    +0.033 C 
ATOM     13  C   UNL     1      36.403 -21.922 -15.783  0.00  0.00    +0.033 C 
ATOM     14  C   UNL     1      34.091 -23.725 -15.876  0.00  0.00    +0.094 C 
ATOM     15  C   UNL     1      35.898 -22.560 -17.076  0.00  0.00    +0.094 C 
ATOM     16  C   UNL     1      33.479 -22.390 -17.863  0.00  0.00    +0.249 C 
BRANCH  11  18
ATOM     17  O   UNL     1      36.704 -24.980 -14.981  0.00  0.00    -0.250 OA
ATOM     18  C   UNL     1      36.872 -23.934 -14.370  0.00  0.00    +0.317 C 
BRANCH  18  19
ATOM     19  O   UNL     1      37.847 -23.681 -13.451  0.00  0.00    -0.444 OA
ATOM     20  C   UNL     1      37.384 -23.340 -12.140  0.00  0.00    +0.256 C 
ENDBRANCH  18  19
ENDBRANCH  11  18
ENDBRANCH   3  16
ENDBRANCH   1   6
BRANCH   1  21
ATOM     21  C   UNL     1      35.989 -17.977 -21.952  0.00  0.00    +0.148 C 
BRANCH  21  28
ATOM     22  N   UNL     1      34.795 -16.045 -22.802  0.00  0.00    -0.392 NA
ATOM     23  N   UNL     1      34.410 -15.057 -20.246  0.00  0.00    -0.200 NA
ATOM     24  N   UNL     1      33.277 -13.230 -21.108  0.00  0.00    -0.271 NA
ATOM     25  N   UNL     1      32.953 -12.983 -23.471  0.00  0.00    -0.310 NA
ATOM     26  N   UNL     1      33.801 -14.623 -24.944  0.00  0.00    -0.329 N 
ATOM     27  N   UNL     1      32.127 -11.378 -21.978  0.00  0.00    -0.283 N 
ATOM     28  C   UNL     1      35.250 -16.685 -21.724  0.00  0.00    +0.133 C 
ATOM     29  C   UNL     1      35.070 -16.211 -20.464  0.00  0.00    +0.193 C 
ATOM     30  C   UNL     1      34.136 -14.891 -22.583  0.00  0.00    +0.248 C 
ATOM     31  C   UNL     1      33.935 -14.380 -21.299  0.00  0.00    +0.131 C 
ATOM     32  C   UNL     1      33.618 -14.141 -23.622  0.00  0.00    +0.231 C 
ATOM     33  C   UNL     1      32.819 -12.589 -22.199  0.00  0.00    +0.207 C 
ATOM     34  H   UNL     1      33.444 -14.113 -25.707  0.00  0.00    +0.145 HD
ATOM     35  H   UNL     1      34.282 -15.468 -25.099  0.00  0.00    +0.145 HD
ATOM     36  H   UNL     1      32.001 -11.044 -21.060  0.00  0.00    +0.156 HD
ATOM     37  H   UNL     1      31.772 -10.868 -22.741  0.00  0.00    +0.156 HD
ENDBRANCH  21  28
ENDBRANCH   1  21
TORSDOF 6
ENDMDL
MODEL 3
REMARK VINA RESULT:     -11.5      4.795      8.837
REMARK  Name = 23629645
REMARK  6 active torsions:
REMARK  status: ('A' for Active; 'I' for Inactive)
REMARK    1  A    between atoms: N_1  and  C_6
REMARK    2  A    between atoms: N_1  and  C_21
REMARK    3  A    between atoms: C_3  and  C_16
REMARK    4  A    between atoms: C_11  and  C_18
REMARK    5  A    between atoms: C_18  and  O_19
REMARK    6  A    between atoms: C_21  and  C_28
REMARK                            x       y       z     vdW  Elec       q    Type
REMARK                         _______ _______ _______ _____ _____    ______ ____
ROOT
ATOM      1  N   UNL     1      33.078 -10.966 -23.013  0.00  0.00    -0.300 N 
ATOM      2  C   UNL     1      33.862  -9.914 -23.627  0.00  0.00    +0.113 C 
ENDROOT
BRANCH   1   6
ATOM      3  C   UNL     1      33.947 -14.996 -23.794  0.00  0.00    +0.054 C 
ATOM      4  C   UNL     1      33.719 -14.118 -24.851  0.00  0.00    +0.006 C 
ATOM      5  C   UNL     1      33.887 -14.542 -22.479  0.00  0.00    +0.006 C 
ATOM      6  C   UNL     1      33.370 -12.321 -23.276  0.00  0.00    +0.048 C 
ATOM      7  C   UNL     1      33.430 -12.779 -24.592  0.00  0.00    +0.015 C 
ATOM      8  C   UNL     1      33.599 -13.203 -22.219  0.00  0.00    +0.015 C 
BRANCH   3  16
ATOM      9  O   UNL     1      33.778 -16.872 -25.103  0.00  0.00    -0.270 OA
ATOM     10  N   UNL     1      35.027 -17.105 -23.142  0.00  0.00    -0.276 N 
ATOM     11  C   UNL     1      35.384 -18.874 -20.870  0.00  0.00    +0.102 C 
ATOM     12  C   UNL     1      34.904 -19.384 -22.234  0.00  0.00    +0.033 C 
ATOM     13  C   UNL     1      35.142 -17.370 -20.695  0.00  0.00    +0.033 C 
ATOM     14  C   UNL     1      35.371 -18.502 -23.392  0.00  0.00    +0.094 C 
ATOM     15  C   UNL     1      35.591 -16.552 -21.905  0.00  0.00    +0.094 C 
ATOM     16  C   UNL     1      34.249 -16.407 -24.067  0.00  0.00    +0.249 C 
BRANCH  11  18
ATOM     17  O   UNL     1      37.725 -18.892 -21.441  0.00  0.00    -0.250 OA
ATOM     18  C   UNL     1      36.832 -19.216 -20.670  0.00  0.00    +0.317 C 
BRANCH  18  19
ATOM     19  O   UNL     1      36.977 -19.928 -19.517  0.00  0.00    -0.444 OA
ATOM     20  C   UNL     1      36.243 -21.156 -19.456  0.00  0.00    +0.256 C 
ENDBRANCH  18  19
ENDBRANCH  11  18
ENDBRANCH   3  16
ENDBRANCH   1   6
BRANCH   1  21
ATOM     21  C   UNL     1      31.980 -10.609 -22.136  0.00  0.00    +0.148 C 
BRANCH  21  28
ATOM     22  N   UNL     1      31.606  -8.332 -22.880  0.00  0.00    -0.392 NA
ATOM     23  N   UNL     1      32.195  -7.329 -20.368  0.00  0.00    -0.200 NA
ATOM     24  N   UNL     1      31.827  -5.173 -21.127  0.00  0.00    -0.271 NA
ATOM     25  N   UNL     1      31.190  -4.758 -23.402  0.00  0.00    -0.310 NA
ATOM     26  N   UNL     1      30.934  -6.573 -24.893  0.00  0.00    -0.329 N 
ATOM     27  N   UNL     1      31.453  -2.985 -21.893  0.00  0.00    -0.283 N 
ATOM     28  C   UNL     1      31.937  -9.129 -21.863  0.00  0.00    +0.133 C 
ATOM     29  C   UNL     1      32.230  -8.651 -20.626  0.00  0.00    +0.193 C 
ATOM     30  C   UNL     1      31.572  -7.010 -22.621  0.00  0.00    +0.248 C 
ATOM     31  C   UNL     1      31.867  -6.490 -21.359  0.00  0.00    +0.131 C 
ATOM     32  C   UNL     1      31.241  -6.088 -23.594  0.00  0.00    +0.231 C 
ATOM     33  C   UNL     1      31.491  -4.372 -22.156  0.00  0.00    +0.207 C 
ATOM     34  H   UNL     1      30.694  -5.941 -25.609  0.00  0.00    +0.145 HD
ATOM     35  H   UNL     1      30.960  -7.539 -25.076  0.00  0.00    +0.145 HD
ATOM     36  H   UNL     1      31.666  -2.650 -20.992  0.00  0.00    +0.156 HD
ATOM     37  H   UNL     1      31.215  -2.355 -22.610  0.00  0.00    +0.156 HD
ENDBRANCH  21  28
ENDBRANCH   1  21
TORSDOF 6
ENDMDL
MODEL 4
REMARK VINA RESULT:     -11.5      4.763      8.593
REMARK  Name = 23629645
REMARK  6 active torsions:
REMARK  status: ('A' for Active; 'I' for Inactive)
REMARK    1  A    between atoms: N_1  and  C_6
REMARK    2  A    between atoms: N_1  and  C_21
REMARK    3  A    between atoms: C_3  and  C_16
REMARK    4  A    between atoms: C_11  and  C_18
REMARK    5  A    between atoms: C_18  and  O_19
REMARK    6  A    between atoms: C_21  and  C_28
REMARK                            x       y       z     vdW  Elec       q    Type
REMARK                         _______ _______ _______ _____ _____    ______ ____
ROOT
ATOM      1  N   UNL     1      33.221 -11.118 -23.200  0.00  0.00    -0.300 N 
ATOM      2  C   UNL     1      33.910 -10.099 -23.965  0.00  0.00    +0.113 C 
ENDROOT
BRANCH   1   6
ATOM      3  C   UNL     1      34.033 -15.182 -23.855  0.00  0.00    +0.054 C 
ATOM      4  C   UNL     1      33.626 -14.377 -24.916  0.00  0.00    +0.006 C 
ATOM      5  C   UNL     1      34.171 -14.645 -22.577  0.00  0.00    +0.006 C 
ATOM      6  C   UNL     1      33.494 -12.485 -23.420  0.00  0.00    +0.048 C 
ATOM      7  C   UNL     1      33.357 -13.026 -24.698  0.00  0.00    +0.015 C 
ATOM      8  C   UNL     1      33.901 -13.294 -22.359  0.00  0.00    +0.015 C 
BRANCH   3  16
ATOM      9  O   UNL     1      33.854 -17.091 -25.114  0.00  0.00    -0.270 OA
ATOM     10  N   UNL     1      35.067 -17.290 -23.126  0.00  0.00    -0.276 N 
ATOM     11  C   UNL     1      35.356 -19.001 -20.801  0.00  0.00    +0.102 C 
ATOM     12  C   UNL     1      34.890 -19.541 -22.158  0.00  0.00    +0.033 C 
ATOM     13  C   UNL     1      35.136 -17.488 -20.671  0.00  0.00    +0.033 C 
ATOM     14  C   UNL     1      35.391 -18.699 -23.331  0.00  0.00    +0.094 C 
ATOM     15  C   UNL     1      35.619 -16.712 -21.895  0.00  0.00    +0.094 C 
ATOM     16  C   UNL     1      34.316 -16.605 -24.084  0.00  0.00    +0.249 C 
BRANCH  11  18
ATOM     17  O   UNL     1      37.716 -18.999 -21.285  0.00  0.00    -0.250 OA
ATOM     18  C   UNL     1      36.794 -19.360 -20.567  0.00  0.00    +0.317 C 
BRANCH  18  19
ATOM     19  O   UNL     1      36.894 -20.137 -19.451  0.00  0.00    -0.444 OA
ATOM     20  C   UNL     1      35.952 -21.211 -19.362  0.00  0.00    +0.256 C 
ENDBRANCH  18  19
ENDBRANCH  11  18
ENDBRANCH   3  16
ENDBRANCH   1   6
BRANCH   1  21
ATOM     21  C   UNL     1      32.236 -10.717 -22.214  0.00  0.00    +0.148 C 
BRANCH  21  28
ATOM     22  N   UNL     1      32.125  -8.469 -21.312  0.00  0.00    -0.392 NA
ATOM     23  N   UNL     1      30.951  -7.511 -23.628  0.00  0.00    -0.200 NA
ATOM     24  N   UNL     1      30.867  -5.382 -22.721  0.00  0.00    -0.271 NA
ATOM     25  N   UNL     1      31.694  -4.949 -20.512  0.00  0.00    -0.310 NA
ATOM     26  N   UNL     1      32.609  -6.717 -19.240  0.00  0.00    -0.329 N 
ATOM     27  N   UNL     1      30.781  -3.222 -21.804  0.00  0.00    -0.283 N 
ATOM     28  C   UNL     1      31.865  -9.264 -22.350  0.00  0.00    +0.133 C 
ATOM     29  C   UNL     1      31.288  -8.808 -23.493  0.00  0.00    +0.193 C 
ATOM     30  C   UNL     1      31.787  -7.172 -21.448  0.00  0.00    +0.248 C 
ATOM     31  C   UNL     1      31.194  -6.675 -22.610  0.00  0.00    +0.131 C 
ATOM     32  C   UNL     1      32.009  -6.254 -20.440  0.00  0.00    +0.231 C 
ATOM     33  C   UNL     1      31.132  -4.583 -21.670  0.00  0.00    +0.207 C 
ATOM     34  H   UNL     1      32.781  -6.088 -18.501  0.00  0.00    +0.145 HD
ATOM     35  H   UNL     1      32.855  -7.665 -19.146  0.00  0.00    +0.145 HD
ATOM     36  H   UNL     1      30.365  -2.902 -22.637  0.00  0.00    +0.156 HD
ATOM     37  H   UNL     1      30.952  -2.595 -21.066  0.00  0.00    +0.156 HD
ENDBRANCH  21  28
ENDBRANCH   1  21
TORSDOF 6
ENDMDL
MODEL 5
REMARK VINA RESULT:     -11.0      1.839      3.479
REMARK  Name = 23629645
REMARK  6 active torsions:
REMARK  status: ('A' for Active; 'I' for Inactive)
REMARK    1  A    between atoms: N_1  and  C_6
REMARK    2  A    between atoms: N_1  and  C_21
REMARK    3  A    between atoms: C_3  and  C_16
REMARK    4  A    between atoms: C_11  and  C_18
REMARK    5  A    between atoms: C_18  and  O_19
REMARK    6  A    between atoms: C_21  and  C_28
REMARK                            x       y       z     vdW  Elec       q    Type
REMARK                         _______ _______ _______ _____ _____    ______ ____
ROOT
ATOM      1  N   UNL     1      34.151 -21.016 -19.702  0.00  0.00    -0.300 N 
ATOM      2  C   UNL     1      32.892 -20.614 -20.295  0.00  0.00    +0.113 C 
ENDROOT
BRANCH   1   6
ATOM      3  C   UNL     1      34.211 -23.249 -16.150  0.00  0.00    +0.054 C 
ATOM      4  C   UNL     1      33.011 -23.064 -16.832  0.00  0.00    +0.006 C 
ATOM      5  C   UNL     1      35.391 -22.696 -16.640  0.00  0.00    +0.006 C 
ATOM      6  C   UNL     1      34.171 -21.767 -18.507  0.00  0.00    +0.048 C 
ATOM      7  C   UNL     1      32.991 -22.322 -18.013  0.00  0.00    +0.015 C 
ATOM      8  C   UNL     1      35.372 -21.954 -17.821  0.00  0.00    +0.015 C 
BRANCH   3  16
ATOM      9  O   UNL     1      33.138 -24.271 -14.399  0.00  0.00    -0.270 OA
ATOM     10  N   UNL     1      35.470 -24.423 -14.395  0.00  0.00    -0.276 N 
ATOM     11  C   UNL     1      37.766 -24.119 -12.648  0.00  0.00    +0.102 C 
ATOM     12  C   UNL     1      36.386 -24.524 -12.118  0.00  0.00    +0.033 C 
ATOM     13  C   UNL     1      37.681 -23.410 -14.005  0.00  0.00    +0.033 C 
ATOM     14  C   UNL     1      35.530 -25.223 -13.175  0.00  0.00    +0.094 C 
ATOM     15  C   UNL     1      36.777 -24.136 -14.999  0.00  0.00    +0.094 C 
ATOM     16  C   UNL     1      34.232 -24.030 -14.906  0.00  0.00    +0.249 C 
BRANCH  11  18
ATOM     17  O   UNL     1      38.409 -26.398 -12.206  0.00  0.00    -0.250 OA
ATOM     18  C   UNL     1      38.666 -25.318 -12.719  0.00  0.00    +0.317 C 
BRANCH  18  19
ATOM     19  O   UNL     1      39.785 -25.006 -13.432  0.00  0.00    -0.444 OA
ATOM     20  C   UNL     1      40.457 -26.116 -14.037  0.00  0.00    +0.256 C 
ENDBRANCH  18  19
ENDBRANCH  11  18
ENDBRANCH   3  16
ENDBRANCH   1   6
BRANCH   1  21
ATOM     21  C   UNL     1      35.392 -20.625 -20.343  0.00  0.00    +0.148 C 
BRANCH  21  28
ATOM     22  N   UNL     1      34.706 -19.405 -22.322  0.00  0.00    -0.392 NA
ATOM     23  N   UNL     1      35.537 -17.002 -21.227  0.00  0.00    -0.200 NA
ATOM     24  N   UNL     1      34.866 -15.882 -23.140  0.00  0.00    -0.271 NA
ATOM     25  N   UNL     1      33.887 -17.064 -24.982  0.00  0.00    -0.310 NA
ATOM     26  N   UNL     1      33.601 -19.406 -24.848  0.00  0.00    -0.329 N 
ATOM     27  N   UNL     1      34.186 -14.743 -25.077  0.00  0.00    -0.283 N 
ATOM     28  C   UNL     1      35.247 -19.335 -21.105  0.00  0.00    +0.133 C 
ATOM     29  C   UNL     1      35.660 -18.163 -20.556  0.00  0.00    +0.193 C 
ATOM     30  C   UNL     1      34.583 -18.242 -22.993  0.00  0.00    +0.248 C 
ATOM     31  C   UNL     1      34.998 -17.023 -22.453  0.00  0.00    +0.131 C 
ATOM     32  C   UNL     1      34.036 -18.189 -24.260  0.00  0.00    +0.231 C 
ATOM     33  C   UNL     1      34.318 -15.957 -24.367  0.00  0.00    +0.207 C 
ATOM     34  H   UNL     1      33.207 -19.403 -25.750  0.00  0.00    +0.145 HD
ATOM     35  H   UNL     1      33.693 -20.252 -24.353  0.00  0.00    +0.145 HD
ATOM     36  H   UNL     1      34.488 -13.900 -24.668  0.00  0.00    +0.156 HD
ATOM     37  H   UNL     1      33.793 -14.741 -25.979  0.00  0.00    +0.156 HD
ENDBRANCH  21  28
ENDBRANCH   1  21
TORSDOF 6
ENDMDL
MODEL 6
REMARK VINA RESULT:     -10.8      4.241     10.453
REMARK  Name = 23629645
REMARK  6 active torsions:
REMARK  status: ('A' for Active; 'I' for Inactive)
REMARK    1  A    between atoms: N_1  and  C_6
REMARK    2  A    between atoms: N_1  and  C_21
REMARK    3  A    between atoms: C_3  and  C_16
REMARK    4  A    between atoms: C_11  and  C_18
REMARK    5  A    between atoms: C_18  and  O_19
REMARK    6  A    between atoms: C_21  and  C_28
REMARK                            x       y       z     vdW  Elec       q    Type
REMARK                         _______ _______ _______ _____ _____    ______ ____
ROOT
ATOM      1  N   UNL     1      36.241 -20.249 -20.034  0.00  0.00    -0.300 N 
ATOM      2  C   UNL     1      37.105 -19.823 -18.952  0.00  0.00    +0.113 C 
ENDROOT
BRANCH   1   6
ATOM      3  C   UNL     1      34.919 -17.492 -22.908  0.00  0.00    +0.054 C 
ATOM      4  C   UNL     1      34.579 -18.837 -23.029  0.00  0.00    +0.006 C 
ATOM      5  C   UNL     1      35.697 -17.058 -21.838  0.00  0.00    +0.006 C 
ATOM      6  C   UNL     1      35.796 -19.322 -21.001  0.00  0.00    +0.048 C 
ATOM      7  C   UNL     1      35.017 -19.753 -22.074  0.00  0.00    +0.015 C 
ATOM      8  C   UNL     1      36.137 -17.974 -20.882  0.00  0.00    +0.015 C 
BRANCH   3  16
ATOM      9  O   UNL     1      34.609 -16.855 -25.089  0.00  0.00    -0.270 OA
ATOM     10  N   UNL     1      33.900 -15.326 -23.469  0.00  0.00    -0.276 N 
ATOM     11  C   UNL     1      34.024 -12.508 -22.795  0.00  0.00    +0.102 C 
ATOM     12  C   UNL     1      34.096 -13.003 -24.243  0.00  0.00    +0.033 C 
ATOM     13  C   UNL     1      34.409 -13.599 -21.788  0.00  0.00    +0.033 C 
ATOM     14  C   UNL     1      33.406 -14.354 -24.439  0.00  0.00    +0.094 C 
ATOM     15  C   UNL     1      33.719 -14.933 -22.067  0.00  0.00    +0.094 C 
ATOM     16  C   UNL     1      34.457 -16.527 -23.914  0.00  0.00    +0.249 C 
BRANCH  11  18
ATOM     17  O   UNL     1      31.812 -12.545 -21.842  0.00  0.00    -0.250 OA
ATOM     18  C   UNL     1      32.658 -11.959 -22.502  0.00  0.00    +0.317 C 
BRANCH  18  19
ATOM     19  O   UNL     1      32.527 -10.732 -23.081  0.00  0.00    -0.444 OA
ATOM     20  C   UNL     1      31.877  -9.740 -22.280  0.00  0.00    +0.256 C 
ENDBRANCH  18  19
ENDBRANCH  11  18
ENDBRANCH   3  16
ENDBRANCH   1   6
BRANCH   1  21
ATOM     21  C   UNL     1      35.829 -21.637 -20.105  0.00  0.00    +0.148 C 
BRANCH  21  28
ATOM     22  N   UNL     1      35.027 -22.503 -17.987  0.00  0.00    -0.392 NA
ATOM     23  N   UNL     1      32.405 -21.900 -18.641  0.00  0.00    -0.200 NA
ATOM     24  N   UNL     1      31.690 -22.740 -16.605  0.00  0.00    -0.271 NA
ATOM     25  N   UNL     1      33.252 -23.640 -15.024  0.00  0.00    -0.310 NA
ATOM     26  N   UNL     1      35.556 -23.672 -15.547  0.00  0.00    -0.329 N 
ATOM     27  N   UNL     1      30.961 -23.590 -14.542  0.00  0.00    -0.283 N 
ATOM     28  C   UNL     1      34.703 -21.937 -19.151  0.00  0.00    +0.133 C 
ATOM     29  C   UNL     1      33.421 -21.637 -19.485  0.00  0.00    +0.193 C 
ATOM     30  C   UNL     1      34.009 -22.767 -17.144  0.00  0.00    +0.248 C 
ATOM     31  C   UNL     1      32.682 -22.468 -17.460  0.00  0.00    +0.131 C 
ATOM     32  C   UNL     1      34.222 -23.351 -15.910  0.00  0.00    +0.231 C 
ATOM     33  C   UNL     1      32.021 -23.311 -15.432  0.00  0.00    +0.207 C 
ATOM     34  H   UNL     1      35.742 -24.089 -14.675  0.00  0.00    +0.145 HD
ATOM     35  H   UNL     1      36.295 -23.476 -16.167  0.00  0.00    +0.145 HD
ATOM     36  H   UNL     1      30.036 -23.368 -14.794  0.00  0.00    +0.156 HD
ATOM     37  H   UNL     1      31.147 -24.008 -13.671  0.00  0.00    +0.156 HD
ENDBRANCH  21  28
ENDBRANCH   1  21
TORSDOF 6
ENDMDL
MODEL 7
REMARK VINA RESULT:     -10.7      1.647      2.929
REMARK  Name = 23629645
REMARK  6 active torsions:
REMARK  status: ('A' for Active; 'I' for Inactive)
REMARK    1  A    between atoms: N_1  and  C_6
REMARK    2  A    between atoms: N_1  and  C_21
REMARK    3  A    between atoms: C_3  and  C_16
REMARK    4  A    between atoms: C_11  and  C_18
REMARK    5  A    between atoms: C_18  and  O_19
REMARK    6  A    between atoms: C_21  and  C_28
REMARK                            x       y       z     vdW  Elec       q    Type
REMARK                         _______ _______ _______ _____ _____    ______ ____
ROOT
ATOM      1  N   UNL     1      35.284 -19.854 -20.848  0.00  0.00    -0.300 N 
ATOM      2  C   UNL     1      33.890 -19.888 -21.238  0.00  0.00    +0.113 C 
ENDROOT
BRANCH   1   6
ATOM      3  C   UNL     1      36.573 -21.854 -17.391  0.00  0.00    +0.054 C 
ATOM      4  C   UNL     1      35.371 -22.216 -17.994  0.00  0.00    +0.006 C 
ATOM      5  C   UNL     1      37.349 -20.831 -17.930  0.00  0.00    +0.006 C 
ATOM      6  C   UNL     1      35.718 -20.527 -19.685  0.00  0.00    +0.048 C 
ATOM      7  C   UNL     1      34.942 -21.552 -19.143  0.00  0.00    +0.015 C 
ATOM      8  C   UNL     1      36.921 -20.166 -19.079  0.00  0.00    +0.015 C 
BRANCH   3  16
ATOM      9  O   UNL     1      38.229 -22.778 -16.102  0.00  0.00    -0.270 OA
ATOM     10  N   UNL     1      36.064 -22.913 -15.232  0.00  0.00    -0.276 N 
ATOM     11  C   UNL     1      34.226 -24.782 -13.990  0.00  0.00    +0.102 C 
ATOM     12  C   UNL     1      35.746 -24.921 -13.853  0.00  0.00    +0.033 C 
ATOM     13  C   UNL     1      33.827 -23.945 -15.211  0.00  0.00    +0.033 C 
ATOM     14  C   UNL     1      36.476 -23.586 -14.004  0.00  0.00    +0.094 C 
ATOM     15  C   UNL     1      34.624 -22.646 -15.326  0.00  0.00    +0.094 C 
ATOM     16  C   UNL     1      37.023 -22.553 -16.181  0.00  0.00    +0.249 C 
BRANCH  11  18
ATOM     17  O   UNL     1      34.295 -23.964 -11.725  0.00  0.00    -0.250 OA
ATOM     18  C   UNL     1      33.643 -24.214 -12.729  0.00  0.00    +0.317 C 
BRANCH  18  19
ATOM     19  O   UNL     1      32.302 -24.029 -12.890  0.00  0.00    -0.444 OA
ATOM     20  C   UNL     1      31.532 -25.224 -13.058  0.00  0.00    +0.256 C 
ENDBRANCH  18  19
ENDBRANCH  11  18
ENDBRANCH   3  16
ENDBRANCH   1   6
BRANCH   1  21
ATOM     21  C   UNL     1      36.228 -19.110 -21.659  0.00  0.00    +0.148 C 
BRANCH  21  28
ATOM     22  N   UNL     1      35.299 -16.919 -22.125  0.00  0.00    -0.392 NA
ATOM     23  N   UNL     1      34.550 -17.690 -24.676  0.00  0.00    -0.200 NA
ATOM     24  N   UNL     1      33.677 -15.582 -25.071  0.00  0.00    -0.271 NA
ATOM     25  N   UNL     1      33.765 -13.875 -23.390  0.00  0.00    -0.310 NA
ATOM     26  N   UNL     1      34.755 -14.347 -21.297  0.00  0.00    -0.329 N 
ATOM     27  N   UNL     1      32.792 -13.446 -25.477  0.00  0.00    -0.283 N 
ATOM     28  C   UNL     1      35.534 -18.148 -22.587  0.00  0.00    +0.133 C 
ATOM     29  C   UNL     1      35.171 -18.540 -23.836  0.00  0.00    +0.193 C 
ATOM     30  C   UNL     1      34.678 -16.070 -22.966  0.00  0.00    +0.248 C 
ATOM     31  C   UNL     1      34.294 -16.445 -24.255  0.00  0.00    +0.131 C 
ATOM     32  C   UNL     1      34.383 -14.771 -22.600  0.00  0.00    +0.231 C 
ATOM     33  C   UNL     1      33.443 -14.343 -24.601  0.00  0.00    +0.207 C 
ATOM     34  H   UNL     1      34.559 -13.427 -21.004  0.00  0.00    +0.145 HD
ATOM     35  H   UNL     1      35.210 -14.971 -20.687  0.00  0.00    +0.145 HD
ATOM     36  H   UNL     1      32.534 -13.741 -26.380  0.00  0.00    +0.156 HD
ATOM     37  H   UNL     1      32.596 -12.527 -25.183  0.00  0.00    +0.156 HD
ENDBRANCH  21  28
ENDBRANCH   1  21
TORSDOF 6
ENDMDL
MODEL 8
REMARK VINA RESULT:     -10.5      5.134     11.483
REMARK  Name = 23629645
REMARK  6 active torsions:
REMARK  status: ('A' for Active; 'I' for Inactive)
REMARK    1  A    between atoms: N_1  and  C_6
REMARK    2  A    between atoms: N_1  and  C_21
REMARK    3  A    between atoms: C_3  and  C_16
REMARK    4  A    between atoms: C_11  and  C_18
REMARK    5  A    between atoms: C_18  and  O_19
REMARK    6  A    between atoms: C_21  and  C_28
REMARK                            x       y       z     vdW  Elec       q    Type
REMARK                         _______ _______ _______ _____ _____    ______ ____
ROOT
ATOM      1  N   UNL     1      35.229 -17.245 -22.722  0.00  0.00    -0.300 N 
ATOM      2  C   UNL     1      34.851 -18.131 -23.804  0.00  0.00    +0.113 C 
ENDROOT
BRANCH   1   6
ATOM      3  C   UNL     1      33.204 -13.617 -22.138  0.00  0.00    +0.054 C 
ATOM      4  C   UNL     1      33.236 -14.197 -23.404  0.00  0.00    +0.006 C 
ATOM      5  C   UNL     1      33.842 -14.234 -21.066  0.00  0.00    +0.006 C 
ATOM      6  C   UNL     1      34.548 -16.025 -22.526  0.00  0.00    +0.048 C 
ATOM      7  C   UNL     1      33.908 -15.403 -23.598  0.00  0.00    +0.015 C 
ATOM      8  C   UNL     1      34.515 -15.441 -21.259  0.00  0.00    +0.015 C 
BRANCH   3  16
ATOM      9  O   UNL     1      31.418 -12.414 -21.347  0.00  0.00    -0.270 OA
ATOM     10  N   UNL     1      33.084 -11.178 -22.424  0.00  0.00    -0.276 N 
ATOM     11  C   UNL     1      33.444  -9.097 -24.413  0.00  0.00    +0.102 C 
ATOM     12  C   UNL     1      32.177  -9.195 -23.555  0.00  0.00    +0.033 C 
ATOM     13  C   UNL     1      34.197 -10.431 -24.491  0.00  0.00    +0.033 C 
ATOM     14  C   UNL     1      32.423  -9.893 -22.217  0.00  0.00    +0.094 C 
ATOM     15  C   UNL     1      34.371 -11.095 -23.126  0.00  0.00    +0.094 C 
ATOM     16  C   UNL     1      32.496 -12.346 -21.934  0.00  0.00    +0.249 C 
BRANCH  11  18
ATOM     17  O   UNL     1      35.341  -8.195 -23.232  0.00  0.00    -0.250 OA
ATOM     18  C   UNL     1      34.333  -8.003 -23.899  0.00  0.00    +0.317 C 
BRANCH  18  19
ATOM     19  O   UNL     1      33.841  -6.793 -24.291  0.00  0.00    -0.444 OA
ATOM     20  C   UNL     1      34.794  -5.726 -24.334  0.00  0.00    +0.256 C 
ENDBRANCH  18  19
ENDBRANCH  11  18
ENDBRANCH   3  16
ENDBRANCH   1   6
BRANCH   1  21
ATOM     21  C   UNL     1      36.325 -17.621 -21.851  0.00  0.00    +0.148 C 
BRANCH  21  28
ATOM     22  N   UNL     1      34.712 -19.215 -20.994  0.00  0.00    -0.392 NA
ATOM     23  N   UNL     1      36.664 -20.529 -19.537  0.00  0.00    -0.200 NA
ATOM     24  N   UNL     1      35.084 -22.027 -18.745  0.00  0.00    -0.271 NA
ATOM     25  N   UNL     1      32.785 -21.856 -19.403  0.00  0.00    -0.310 NA
ATOM     26  N   UNL     1      32.116 -20.137 -20.880  0.00  0.00    -0.329 N 
ATOM     27  N   UNL     1      33.486 -23.547 -17.942  0.00  0.00    -0.283 N 
ATOM     28  C   UNL     1      35.986 -18.820 -21.007  0.00  0.00    +0.133 C 
ATOM     29  C   UNL     1      36.954 -19.455 -20.296  0.00  0.00    +0.193 C 
ATOM     30  C   UNL     1      34.423 -20.289 -20.234  0.00  0.00    +0.248 C 
ATOM     31  C   UNL     1      35.397 -20.962 -19.493  0.00  0.00    +0.131 C 
ATOM     32  C   UNL     1      33.139 -20.790 -20.143  0.00  0.00    +0.231 C 
ATOM     33  C   UNL     1      33.797 -22.421 -18.736  0.00  0.00    +0.207 C 
ATOM     34  H   UNL     1      31.190 -20.468 -20.837  0.00  0.00    +0.145 HD
ATOM     35  H   UNL     1      32.333 -19.353 -21.434  0.00  0.00    +0.145 HD
ATOM     36  H   UNL     1      34.196 -23.999 -17.432  0.00  0.00    +0.156 HD
ATOM     37  H   UNL     1      32.560 -23.877 -17.899  0.00  0.00    +0.156 HD
ENDBRANCH  21  28
ENDBRANCH   1  21
TORSDOF 6
ENDMDL
MODEL 9
REMARK VINA RESULT:     -10.3      4.400     10.875
REMARK  Name = 23629645
REMARK  6 active torsions:
REMARK  status: ('A' for Active; 'I' for Inactive)
REMARK    1  A    between atoms: N_1  and  C_6
REMARK    2  A    between atoms: N_1  and  C_21
REMARK    3  A    between atoms: C_3  and  C_16
REMARK    4  A    between atoms: C_11  and  C_18
REMARK    5  A    between atoms: C_18  and  O_19
REMARK    6  A    between atoms: C_21  and  C_28
REMARK                            x       y       z     vdW  Elec       q    Type
REMARK                         _______ _______ _______ _____ _____    ______ ____
ROOT
ATOM      1  N   UNL     1      35.827 -19.835 -20.714  0.00  0.00    -0.300 N 
ATOM      2  C   UNL     1      37.038 -19.649 -19.941  0.00  0.00    +0.113 C 
ENDROOT
BRANCH   1   6
ATOM      3  C   UNL     1      34.540 -16.870 -23.390  0.00  0.00    +0.054 C 
ATOM      4  C   UNL     1      34.233 -18.206 -23.636  0.00  0.00    +0.006 C 
ATOM      5  C   UNL     1      35.272 -16.513 -22.261  0.00  0.00    +0.006 C 
ATOM      6  C   UNL     1      35.394 -18.838 -21.614  0.00  0.00    +0.048 C 
ATOM      7  C   UNL     1      34.661 -19.192 -22.746  0.00  0.00    +0.015 C 
ATOM      8  C   UNL     1      35.700 -17.498 -21.371  0.00  0.00    +0.015 C 
BRANCH   3  16
ATOM      9  O   UNL     1      34.192 -16.101 -25.523  0.00  0.00    -0.270 OA
ATOM     10  N   UNL     1      33.600 -14.636 -23.800  0.00  0.00    -0.276 N 
ATOM     11  C   UNL     1      33.866 -11.867 -22.978  0.00  0.00    +0.102 C 
ATOM     12  C   UNL     1      33.872 -12.284 -24.453  0.00  0.00    +0.033 C 
ATOM     13  C   UNL     1      34.233 -13.027 -22.045  0.00  0.00    +0.033 C 
ATOM     14  C   UNL     1      33.119 -13.591 -24.699  0.00  0.00    +0.094 C 
ATOM     15  C   UNL     1      33.478 -14.314 -22.373  0.00  0.00    +0.094 C 
ATOM     16  C   UNL     1      34.090 -15.832 -24.327  0.00  0.00    +0.249 C 
BRANCH  11  18
ATOM     17  O   UNL     1      31.734 -11.813 -21.858  0.00  0.00    -0.250 OA
ATOM     18  C   UNL     1      32.535 -11.278 -22.612  0.00  0.00    +0.317 C 
BRANCH  18  19
ATOM     19  O   UNL     1      32.376 -10.081 -23.245  0.00  0.00    -0.444 OA
ATOM     20  C   UNL     1      32.294  -8.938 -22.387  0.00  0.00    +0.256 C 
ENDBRANCH  18  19
ENDBRANCH  11  18
ENDBRANCH   3  16
ENDBRANCH   1   6
BRANCH   1  21
ATOM     21  C   UNL     1      35.058 -21.052 -20.543  0.00  0.00    +0.148 C 
BRANCH  21  28
ATOM     22  N   UNL     1      34.088 -22.045 -18.555  0.00  0.00    -0.392 NA
ATOM     23  N   UNL     1      36.558 -22.168 -17.313  0.00  0.00    -0.200 NA
ATOM     24  N   UNL     1      35.583 -23.114 -15.437  0.00  0.00    -0.271 NA
ATOM     25  N   UNL     1      33.224 -23.532 -15.352  0.00  0.00    -0.310 NA
ATOM     26  N   UNL     1      31.870 -22.972 -17.205  0.00  0.00    -0.329 N 
ATOM     27  N   UNL     1      34.599 -24.075 -13.535  0.00  0.00    -0.283 N 
ATOM     28  C   UNL     1      35.199 -21.614 -19.153  0.00  0.00    +0.133 C 
ATOM     29  C   UNL     1      36.418 -21.668 -18.555  0.00  0.00    +0.193 C 
ATOM     30  C   UNL     1      34.230 -22.545 -17.312  0.00  0.00    +0.248 C 
ATOM     31  C   UNL     1      35.469 -22.613 -16.673  0.00  0.00    +0.131 C 
ATOM     32  C   UNL     1      33.150 -23.022 -16.594  0.00  0.00    +0.231 C 
ATOM     33  C   UNL     1      34.459 -23.549 -14.838  0.00  0.00    +0.207 C 
ATOM     34  H   UNL     1      31.080 -23.304 -16.720  0.00  0.00    +0.145 HD
ATOM     35  H   UNL     1      31.773 -22.606 -18.114  0.00  0.00    +0.145 HD
ATOM     36  H   UNL     1      35.487 -24.109 -13.111  0.00  0.00    +0.156 HD
ATOM     37  H   UNL     1      33.809 -24.405 -13.051  0.00  0.00    +0.156 HD
ENDBRANCH  21  28
ENDBRANCH   1  21
TORSDOF 6
ENDMDL
