MODEL 1
REMARK VINA RESULT:     -11.6      0.000      0.000
REMARK  Name = 23586146
REMARK  5 active torsions:
REMARK  status: ('A' for Active; 'I' for Inactive)
REMARK    1  A    between atoms: N_1  and  C_12
REMARK    2  A    between atoms: C_8  and  N_18
REMARK    3  A    between atoms: N_18  and  C_20
REMARK    4  A    between atoms: C_23  and  S_26
REMARK    5  A    between atoms: S_26  and  N_29
REMARK                            x       y       z     vdW  Elec       q    Type
REMARK                         _______ _______ _______ _____ _____    ______ ____
ROOT
ATOM      1  N   UNL     1      35.362 -24.335 -14.314  0.00  0.00    -0.309 N 
ATOM      2  N   UNL     1      33.099 -23.980 -14.161  0.00  0.00    -0.321 NA
ATOM      3  N   UNL     1      31.909 -23.228 -16.108  0.00  0.00    -0.106 N 
ATOM      4  N   UNL     1      30.633 -22.908 -16.452  0.00  0.00    -0.139 NA
ATOM      5  N   UNL     1      30.720 -23.532 -14.264  0.00  0.00    -0.145 NA
ATOM      6  C   UNL     1      34.198 -23.974 -14.878  0.00  0.00    +0.196 C 
ATOM      7  C   UNL     1      34.222 -23.573 -16.329  0.00  0.00    +0.081 C 
ATOM      8  C   UNL     1      33.062 -23.211 -16.897  0.00  0.00    +0.140 C 
ATOM      9  C   UNL     1      31.938 -23.608 -14.765  0.00  0.00    +0.176 C 
ATOM     10  C   UNL     1      29.974 -23.109 -15.315  0.00  0.00    +0.230 C 
ATOM     11  H   UNL     1      36.179 -24.309 -14.861  0.00  0.00    +0.149 HD
ENDROOT
BRANCH   1  12
ATOM     12  C   UNL     1      35.466 -24.762 -12.931  0.00  0.00    +0.071 C 
ATOM     13  C   UNL     1      36.429 -25.948 -12.817  0.00  0.00    +0.020 C 
ATOM     14  C   UNL     1      35.911 -23.589 -12.052  0.00  0.00    +0.020 C 
ATOM     15  C   UNL     1      37.888 -25.549 -13.043  0.00  0.00    +0.002 C 
ATOM     16  C   UNL     1      37.371 -23.199 -12.280  0.00  0.00    +0.002 C 
ATOM     17  C   UNL     1      38.304 -24.398 -12.134  0.00  0.00    +0.000 C 
ENDBRANCH   1  12
BRANCH   8  18
ATOM     18  N   UNL     1      32.933 -22.824 -18.200  0.00  0.00    -0.299 N 
ATOM     19  H   UNL     1      32.209 -23.258 -18.706  0.00  0.00    +0.153 HD
BRANCH  18  20
ATOM     20  C   UNL     1      33.697 -21.889 -18.907  0.00  0.00    +0.049 C 
ATOM     21  C   UNL     1      33.068 -20.944 -19.718  0.00  0.00    +0.016 C 
ATOM     22  C   UNL     1      35.088 -21.902 -18.802  0.00  0.00    +0.016 C 
ATOM     23  C   UNL     1      35.221 -20.026 -20.317  0.00  0.00    +0.122 C 
ATOM     24  C   UNL     1      33.830 -20.012 -20.423  0.00  0.00    +0.021 C 
ATOM     25  C   UNL     1      35.849 -20.970 -19.507  0.00  0.00    +0.021 C 
BRANCH  23  26
ATOM     26  S   UNL     1      36.174 -18.859 -21.199  0.00  0.00    +0.057 S 
ATOM     27  O   UNL     1      37.576 -19.060 -20.861  0.00  0.00    -0.153 OA
ATOM     28  O   UNL     1      35.756 -18.879 -22.595  0.00  0.00    -0.153 OA
BRANCH  26  29
ATOM     29  N   UNL     1      35.641 -17.399 -20.489  0.00  0.00    -0.203 NA
ATOM     30  H   UNL     1      34.705 -17.527 -20.108  0.00  0.00    +0.144 HD
ATOM     31  H   UNL     1      35.622 -16.663 -21.196  0.00  0.00    +0.144 HD
ENDBRANCH  26  29
ENDBRANCH  23  26
ENDBRANCH  18  20
ENDBRANCH   8  18
TORSDOF 5
ENDMDL
MODEL 2
REMARK VINA RESULT:     -10.1      1.750      4.702
REMARK  Name = 23586146
REMARK  5 active torsions:
REMARK  status: ('A' for Active; 'I' for Inactive)
REMARK    1  A    between atoms: N_1  and  C_12
REMARK    2  A    between atoms: C_8  and  N_18
REMARK    3  A    between atoms: N_18  and  C_20
REMARK    4  A    between atoms: C_23  and  S_26
REMARK    5  A    between atoms: S_26  and  N_29
REMARK                            x       y       z     vdW  Elec       q    Type
REMARK                         _______ _______ _______ _____ _____    ______ ____
ROOT
ATOM      1  N   UNL     1      31.118 -22.934 -15.510  0.00  0.00    -0.309 N 
ATOM      2  N   UNL     1      33.178 -23.153 -14.522  0.00  0.00    -0.321 NA
ATOM      3  N   UNL     1      35.141 -23.083 -15.905  0.00  0.00    -0.106 N 
ATOM      4  N   UNL     1      36.489 -23.167 -15.752  0.00  0.00    -0.139 NA
ATOM      5  N   UNL     1      35.459 -23.359 -13.731  0.00  0.00    -0.145 NA
ATOM      6  C   UNL     1      32.456 -22.987 -15.605  0.00  0.00    +0.196 C 
ATOM      7  C   UNL     1      33.063 -22.853 -16.976  0.00  0.00    +0.081 C 
ATOM      8  C   UNL     1      34.399 -22.907 -17.076  0.00  0.00    +0.140 C 
ATOM      9  C   UNL     1      34.531 -23.203 -14.655  0.00  0.00    +0.176 C 
ATOM     10  C   UNL     1      36.616 -23.331 -14.439  0.00  0.00    +0.230 C 
ATOM     11  H   UNL     1      30.591 -22.825 -16.334  0.00  0.00    +0.149 HD
ENDROOT
BRANCH   1  12
ATOM     12  C   UNL     1      30.415 -23.029 -14.244  0.00  0.00    +0.071 C 
ATOM     13  C   UNL     1      28.904 -22.931 -14.472  0.00  0.00    +0.020 C 
ATOM     14  C   UNL     1      30.793 -24.331 -13.530  0.00  0.00    +0.020 C 
ATOM     15  C   UNL     1      28.325 -24.175 -15.148  0.00  0.00    +0.002 C 
ATOM     16  C   UNL     1      30.207 -25.569 -14.209  0.00  0.00    +0.002 C 
ATOM     17  C   UNL     1      28.698 -25.448 -14.398  0.00  0.00    +0.000 C 
ENDBRANCH   1  12
BRANCH   8  18
ATOM     18  N   UNL     1      35.086 -22.800 -18.251  0.00  0.00    -0.299 N 
ATOM     19  H   UNL     1      35.569 -23.608 -18.541  0.00  0.00    +0.153 HD
BRANCH  18  20
ATOM     20  C   UNL     1      35.191 -21.691 -19.097  0.00  0.00    +0.049 C 
ATOM     21  C   UNL     1      36.441 -21.125 -19.354  0.00  0.00    +0.016 C 
ATOM     22  C   UNL     1      34.047 -21.149 -19.684  0.00  0.00    +0.016 C 
ATOM     23  C   UNL     1      35.400 -19.478 -20.784  0.00  0.00    +0.122 C 
ATOM     24  C   UNL     1      36.545 -20.019 -20.198  0.00  0.00    +0.021 C 
ATOM     25  C   UNL     1      34.152 -20.044 -20.527  0.00  0.00    +0.021 C 
BRANCH  23  26
ATOM     26  S   UNL     1      35.532 -18.094 -21.840  0.00  0.00    +0.057 S 
ATOM     27  O   UNL     1      34.673 -18.314 -22.995  0.00  0.00    -0.153 OA
ATOM     28  O   UNL     1      35.376 -16.886 -21.042  0.00  0.00    -0.153 OA
BRANCH  26  29
ATOM     29  N   UNL     1      37.163 -18.217 -22.336  0.00  0.00    -0.203 NA
ATOM     30  H   UNL     1      37.677 -17.395 -22.023  0.00  0.00    +0.144 HD
ATOM     31  H   UNL     1      37.205 -18.277 -23.354  0.00  0.00    +0.144 HD
ENDBRANCH  26  29
ENDBRANCH  23  26
ENDBRANCH  18  20
ENDBRANCH   8  18
TORSDOF 5
ENDMDL
MODEL 3
REMARK VINA RESULT:      -9.9      1.774      5.034
REMARK  Name = 23586146
REMARK  5 active torsions:
REMARK  status: ('A' for Active; 'I' for Inactive)
REMARK    1  A    between atoms: N_1  and  C_12
REMARK    2  A    between atoms: C_8  and  N_18
REMARK    3  A    between atoms: N_18  and  C_20
REMARK    4  A    between atoms: C_23  and  S_26
REMARK    5  A    between atoms: S_26  and  N_29
REMARK                            x       y       z     vdW  Elec       q    Type
REMARK                         _______ _______ _______ _____ _____    ______ ____
ROOT
ATOM      1  N   UNL     1      31.238 -23.641 -15.934  0.00  0.00    -0.309 N 
ATOM      2  N   UNL     1      33.153 -23.489 -14.678  0.00  0.00    -0.321 NA
ATOM      3  N   UNL     1      35.237 -23.051 -15.790  0.00  0.00    -0.106 N 
ATOM      4  N   UNL     1      36.546 -22.889 -15.457  0.00  0.00    -0.139 NA
ATOM      5  N   UNL     1      35.308 -23.284 -13.588  0.00  0.00    -0.145 NA
ATOM      6  C   UNL     1      32.564 -23.449 -15.850  0.00  0.00    +0.196 C 
ATOM      7  C   UNL     1      33.314 -23.194 -17.130  0.00  0.00    +0.081 C 
ATOM      8  C   UNL     1      34.639 -23.002 -17.051  0.00  0.00    +0.140 C 
ATOM      9  C   UNL     1      34.499 -23.291 -14.629  0.00  0.00    +0.176 C 
ATOM     10  C   UNL     1      36.524 -23.039 -14.137  0.00  0.00    +0.230 C 
ATOM     11  H   UNL     1      30.814 -23.623 -16.821  0.00  0.00    +0.149 HD
ENDROOT
BRANCH   1  12
ATOM     12  C   UNL     1      30.402 -23.874 -14.770  0.00  0.00    +0.071 C 
ATOM     13  C   UNL     1      29.697 -22.577 -14.361  0.00  0.00    +0.020 C 
ATOM     14  C   UNL     1      29.397 -24.992 -15.062  0.00  0.00    +0.020 C 
ATOM     15  C   UNL     1      28.605 -22.160 -15.347  0.00  0.00    +0.002 C 
ATOM     16  C   UNL     1      28.306 -24.567 -16.044  0.00  0.00    +0.002 C 
ATOM     17  C   UNL     1      27.608 -23.287 -15.593  0.00  0.00    +0.000 C 
ENDBRANCH   1  12
BRANCH   8  18
ATOM     18  N   UNL     1      35.445 -22.762 -18.126  0.00  0.00    -0.299 N 
ATOM     19  H   UNL     1      36.118 -23.454 -18.321  0.00  0.00    +0.153 HD
BRANCH  18  20
ATOM     20  C   UNL     1      35.437 -21.659 -18.988  0.00  0.00    +0.049 C 
ATOM     21  C   UNL     1      36.629 -20.997 -19.285  0.00  0.00    +0.016 C 
ATOM     22  C   UNL     1      34.238 -21.221 -19.549  0.00  0.00    +0.016 C 
ATOM     23  C   UNL     1      35.420 -19.461 -20.705  0.00  0.00    +0.122 C 
ATOM     24  C   UNL     1      36.621 -19.899 -20.145  0.00  0.00    +0.021 C 
ATOM     25  C   UNL     1      34.230 -20.123 -20.408  0.00  0.00    +0.021 C 
BRANCH  23  26
ATOM     26  S   UNL     1      35.411 -18.086 -21.780  0.00  0.00    +0.057 S 
ATOM     27  O   UNL     1      34.517 -18.378 -22.892  0.00  0.00    -0.153 OA
ATOM     28  O   UNL     1      35.210 -16.880 -20.989  0.00  0.00    -0.153 OA
BRANCH  26  29
ATOM     29  N   UNL     1      37.022 -18.106 -22.350  0.00  0.00    -0.203 NA
ATOM     30  H   UNL     1      37.477 -17.225 -22.115  0.00  0.00    +0.144 HD
ATOM     31  H   UNL     1      37.024 -18.231 -23.362  0.00  0.00    +0.144 HD
ENDBRANCH  26  29
ENDBRANCH  23  26
ENDBRANCH  18  20
ENDBRANCH   8  18
TORSDOF 5
ENDMDL
MODEL 4
REMARK VINA RESULT:      -9.4      5.394     10.989
REMARK  Name = 23586146
REMARK  5 active torsions:
REMARK  status: ('A' for Active; 'I' for Inactive)
REMARK    1  A    between atoms: N_1  and  C_12
REMARK    2  A    between atoms: C_8  and  N_18
REMARK    3  A    between atoms: N_18  and  C_20
REMARK    4  A    between atoms: C_23  and  S_26
REMARK    5  A    between atoms: S_26  and  N_29
REMARK                            x       y       z     vdW  Elec       q    Type
REMARK                         _______ _______ _______ _____ _____    ______ ____
ROOT
ATOM      1  N   UNL     1      34.159 -13.890 -23.126  0.00  0.00    -0.309 N 
ATOM      2  N   UNL     1      33.596 -15.834 -24.209  0.00  0.00    -0.321 NA
ATOM      3  N   UNL     1      34.495 -17.911 -23.405  0.00  0.00    -0.106 N 
ATOM      4  N   UNL     1      34.431 -19.232 -23.724  0.00  0.00    -0.139 NA
ATOM      5  N   UNL     1      33.159 -18.015 -25.169  0.00  0.00    -0.145 NA
ATOM      6  C   UNL     1      34.248 -15.224 -23.247  0.00  0.00    +0.196 C 
ATOM      7  C   UNL     1      35.109 -15.958 -22.255  0.00  0.00    +0.081 C 
ATOM      8  C   UNL     1      35.201 -17.291 -22.372  0.00  0.00    +0.140 C 
ATOM      9  C   UNL     1      33.709 -17.186 -24.303  0.00  0.00    +0.176 C 
ATOM     10  C   UNL     1      33.622 -19.230 -24.780  0.00  0.00    +0.230 C 
ATOM     11  H   UNL     1      34.667 -13.447 -22.409  0.00  0.00    +0.149 HD
ENDROOT
BRANCH   1  12
ATOM     12  C   UNL     1      33.345 -13.073 -24.007  0.00  0.00    +0.071 C 
ATOM     13  C   UNL     1      32.059 -12.649 -23.292  0.00  0.00    +0.020 C 
ATOM     14  C   UNL     1      34.147 -11.859 -24.487  0.00  0.00    +0.020 C 
ATOM     15  C   UNL     1      32.306 -11.619 -22.189  0.00  0.00    +0.002 C 
ATOM     16  C   UNL     1      34.387 -10.832 -23.381  0.00  0.00    +0.002 C 
ATOM     17  C   UNL     1      33.083 -10.414 -22.708  0.00  0.00    +0.000 C 
ENDBRANCH   1  12
BRANCH   8  18
ATOM     18  N   UNL     1      35.944 -18.085 -21.546  0.00  0.00    -0.299 N 
ATOM     19  H   UNL     1      36.895 -17.848 -21.464  0.00  0.00    +0.153 HD
BRANCH  18  20
ATOM     20  C   UNL     1      35.524 -19.192 -20.799  0.00  0.00    +0.049 C 
ATOM     21  C   UNL     1      34.163 -19.475 -20.676  0.00  0.00    +0.016 C 
ATOM     22  C   UNL     1      36.466 -20.011 -20.177  0.00  0.00    +0.016 C 
ATOM     23  C   UNL     1      34.688 -21.398 -19.310  0.00  0.00    +0.122 C 
ATOM     24  C   UNL     1      33.745 -20.579 -19.933  0.00  0.00    +0.021 C 
ATOM     25  C   UNL     1      36.047 -21.114 -19.433  0.00  0.00    +0.021 C 
BRANCH  23  26
ATOM     26  S   UNL     1      34.164 -22.779 -18.380  0.00  0.00    +0.057 S 
ATOM     27  O   UNL     1      34.111 -23.935 -19.263  0.00  0.00    -0.153 OA
ATOM     28  O   UNL     1      34.951 -22.839 -17.156  0.00  0.00    -0.153 OA
BRANCH  26  29
ATOM     29  N   UNL     1      32.567 -22.317 -17.982  0.00  0.00    -0.203 NA
ATOM     30  H   UNL     1      32.540 -21.978 -17.022  0.00  0.00    +0.144 HD
ATOM     31  H   UNL     1      31.947 -23.122 -18.076  0.00  0.00    +0.144 HD
ENDBRANCH  26  29
ENDBRANCH  23  26
ENDBRANCH  18  20
ENDBRANCH   8  18
TORSDOF 5
ENDMDL
MODEL 5
REMARK VINA RESULT:      -9.3      9.273     14.502
REMARK  Name = 23586146
REMARK  5 active torsions:
REMARK  status: ('A' for Active; 'I' for Inactive)
REMARK    1  A    between atoms: N_1  and  C_12
REMARK    2  A    between atoms: C_8  and  N_18
REMARK    3  A    between atoms: N_18  and  C_20
REMARK    4  A    between atoms: C_23  and  S_26
REMARK    5  A    between atoms: S_26  and  N_29
REMARK                            x       y       z     vdW  Elec       q    Type
REMARK                         _______ _______ _______ _____ _____    ______ ____
ROOT
ATOM      1  N   UNL     1      34.248  -8.220 -23.891  0.00  0.00    -0.309 N 
ATOM      2  N   UNL     1      32.909  -9.226 -22.320  0.00  0.00    -0.321 NA
ATOM      3  N   UNL     1      32.522 -11.592 -22.470  0.00  0.00    -0.106 N 
ATOM      4  N   UNL     1      31.834 -12.549 -21.792  0.00  0.00    -0.139 NA
ATOM      5  N   UNL     1      31.542 -10.521 -20.796  0.00  0.00    -0.145 NA
ATOM      6  C   UNL     1      33.660  -9.320 -23.392  0.00  0.00    +0.196 C 
ATOM      7  C   UNL     1      33.900 -10.623 -24.107  0.00  0.00    +0.081 C 
ATOM      8  C   UNL     1      33.315 -11.724 -23.613  0.00  0.00    +0.140 C 
ATOM      9  C   UNL     1      32.329 -10.359 -21.843  0.00  0.00    +0.176 C 
ATOM     10  C   UNL     1      31.273 -11.851 -20.808  0.00  0.00    +0.230 C 
ATOM     11  H   UNL     1      34.795  -8.306 -24.704  0.00  0.00    +0.149 HD
ENDROOT
BRANCH   1  12
ATOM     12  C   UNL     1      34.112  -6.911 -23.281  0.00  0.00    +0.071 C 
ATOM     13  C   UNL     1      34.984  -5.892 -24.020  0.00  0.00    +0.020 C 
ATOM     14  C   UNL     1      32.639  -6.487 -23.271  0.00  0.00    +0.020 C 
ATOM     15  C   UNL     1      34.449  -5.553 -25.412  0.00  0.00    +0.002 C 
ATOM     16  C   UNL     1      32.112  -6.145 -24.664  0.00  0.00    +0.002 C 
ATOM     17  C   UNL     1      32.991  -5.111 -25.361  0.00  0.00    +0.000 C 
ENDBRANCH   1  12
BRANCH   8  18
ATOM     18  N   UNL     1      33.443 -12.970 -24.155  0.00  0.00    -0.299 N 
ATOM     19  H   UNL     1      33.158 -13.062 -25.093  0.00  0.00    +0.153 HD
BRANCH  18  20
ATOM     20  C   UNL     1      33.927 -14.135 -23.548  0.00  0.00    +0.049 C 
ATOM     21  C   UNL     1      34.329 -14.110 -22.212  0.00  0.00    +0.016 C 
ATOM     22  C   UNL     1      34.009 -15.320 -24.279  0.00  0.00    +0.016 C 
ATOM     23  C   UNL     1      34.893 -16.456 -22.339  0.00  0.00    +0.122 C 
ATOM     24  C   UNL     1      34.811 -15.271 -21.608  0.00  0.00    +0.021 C 
ATOM     25  C   UNL     1      34.491 -16.480 -23.674  0.00  0.00    +0.021 C 
BRANCH  23  26
ATOM     26  S   UNL     1      35.497 -17.908 -21.582  0.00  0.00    +0.057 S 
ATOM     27  O   UNL     1      35.744 -17.624 -20.175  0.00  0.00    -0.153 OA
ATOM     28  O   UNL     1      34.632 -19.020 -21.954  0.00  0.00    -0.153 OA
BRANCH  26  29
ATOM     29  N   UNL     1      36.998 -18.092 -22.379  0.00  0.00    -0.203 NA
ATOM     30  H   UNL     1      36.865 -18.626 -23.236  0.00  0.00    +0.144 HD
ATOM     31  H   UNL     1      37.649 -18.585 -21.767  0.00  0.00    +0.144 HD
ENDBRANCH  26  29
ENDBRANCH  23  26
ENDBRANCH  18  20
ENDBRANCH   8  18
TORSDOF 5
ENDMDL
MODEL 6
REMARK VINA RESULT:      -8.9      2.723      3.893
REMARK  Name = 23586146
REMARK  5 active torsions:
REMARK  status: ('A' for Active; 'I' for Inactive)
REMARK    1  A    between atoms: N_1  and  C_12
REMARK    2  A    between atoms: C_8  and  N_18
REMARK    3  A    between atoms: N_18  and  C_20
REMARK    4  A    between atoms: C_23  and  S_26
REMARK    5  A    between atoms: S_26  and  N_29
REMARK                            x       y       z     vdW  Elec       q    Type
REMARK                         _______ _______ _______ _____ _____    ______ ____
ROOT
ATOM      1  N   UNL     1      36.331 -23.010 -16.062  0.00  0.00    -0.309 N 
ATOM      2  N   UNL     1      34.438 -22.565 -17.283  0.00  0.00    -0.321 NA
ATOM      3  N   UNL     1      34.612 -21.151 -19.218  0.00  0.00    -0.106 N 
ATOM      4  N   UNL     1      33.793 -20.650 -20.181  0.00  0.00    -0.139 NA
ATOM      5  N   UNL     1      32.601 -21.943 -18.734  0.00  0.00    -0.145 NA
ATOM      6  C   UNL     1      35.728 -22.407 -17.100  0.00  0.00    +0.196 C 
ATOM      7  C   UNL     1      36.584 -21.569 -18.011  0.00  0.00    +0.081 C 
ATOM      8  C   UNL     1      35.986 -20.965 -19.049  0.00  0.00    +0.140 C 
ATOM      9  C   UNL     1      33.860 -21.940 -18.344  0.00  0.00    +0.176 C 
ATOM     10  C   UNL     1      32.612 -21.156 -19.840  0.00  0.00    +0.230 C 
ATOM     11  H   UNL     1      37.296 -22.869 -15.931  0.00  0.00    +0.149 HD
ENDROOT
BRANCH   1  12
ATOM     12  C   UNL     1      35.620 -23.861 -15.126  0.00  0.00    +0.071 C 
ATOM     13  C   UNL     1      36.287 -25.238 -15.055  0.00  0.00    +0.020 C 
ATOM     14  C   UNL     1      35.562 -23.193 -13.749  0.00  0.00    +0.020 C 
ATOM     15  C   UNL     1      37.643 -25.203 -14.348  0.00  0.00    +0.002 C 
ATOM     16  C   UNL     1      36.919 -23.165 -13.046  0.00  0.00    +0.002 C 
ATOM     17  C   UNL     1      37.543 -24.556 -12.971  0.00  0.00    +0.000 C 
ENDBRANCH   1  12
BRANCH   8  18
ATOM     18  N   UNL     1      36.635 -20.175 -19.955  0.00  0.00    -0.299 N 
ATOM     19  H   UNL     1      37.618 -20.193 -19.914  0.00  0.00    +0.153 HD
BRANCH  18  20
ATOM     20  C   UNL     1      36.080 -19.345 -20.935  0.00  0.00    +0.049 C 
ATOM     21  C   UNL     1      35.897 -17.985 -20.677  0.00  0.00    +0.016 C 
ATOM     22  C   UNL     1      35.710 -19.875 -22.171  0.00  0.00    +0.016 C 
ATOM     23  C   UNL     1      34.975 -17.689 -22.890  0.00  0.00    +0.122 C 
ATOM     24  C   UNL     1      35.345 -17.158 -21.654  0.00  0.00    +0.021 C 
ATOM     25  C   UNL     1      35.157 -19.047 -23.148  0.00  0.00    +0.021 C 
BRANCH  23  26
ATOM     26  S   UNL     1      34.284 -16.652 -24.113  0.00  0.00    +0.057 S 
ATOM     27  O   UNL     1      33.660 -15.514 -23.451  0.00  0.00    -0.153 OA
ATOM     28  O   UNL     1      35.282 -16.429 -25.149  0.00  0.00    -0.153 OA
BRANCH  26  29
ATOM     29  N   UNL     1      33.057 -17.663 -24.742  0.00  0.00    -0.203 NA
ATOM     30  H   UNL     1      33.204 -18.618 -24.420  0.00  0.00    +0.144 HD
ATOM     31  H   UNL     1      33.086 -17.639 -25.761  0.00  0.00    +0.144 HD
ENDBRANCH  26  29
ENDBRANCH  23  26
ENDBRANCH  18  20
ENDBRANCH   8  18
TORSDOF 5
ENDMDL
MODEL 7
REMARK VINA RESULT:      -8.9     10.437     15.342
REMARK  Name = 23586146
REMARK  5 active torsions:
REMARK  status: ('A' for Active; 'I' for Inactive)
REMARK    1  A    between atoms: N_1  and  C_12
REMARK    2  A    between atoms: C_8  and  N_18
REMARK    3  A    between atoms: N_18  and  C_20
REMARK    4  A    between atoms: C_23  and  S_26
REMARK    5  A    between atoms: S_26  and  N_29
REMARK                            x       y       z     vdW  Elec       q    Type
REMARK                         _______ _______ _______ _____ _____    ______ ____
ROOT
ATOM      1  N   UNL     1      33.403  -7.401 -23.575  0.00  0.00    -0.309 N 
ATOM      2  N   UNL     1      32.879  -7.649 -21.354  0.00  0.00    -0.321 NA
ATOM      3  N   UNL     1      32.030  -9.763 -20.592  0.00  0.00    -0.106 N 
ATOM      4  N   UNL     1      31.613 -10.324 -19.425  0.00  0.00    -0.139 NA
ATOM      5  N   UNL     1      32.251  -8.167 -19.072  0.00  0.00    -0.145 NA
ATOM      6  C   UNL     1      32.952  -8.158 -22.561  0.00  0.00    +0.196 C 
ATOM      7  C   UNL     1      32.548  -9.573 -22.875  0.00  0.00    +0.081 C 
ATOM      8  C   UNL     1      32.097 -10.333 -21.866  0.00  0.00    +0.140 C 
ATOM      9  C   UNL     1      32.416  -8.443 -20.351  0.00  0.00    +0.176 C 
ATOM     10  C   UNL     1      31.768  -9.327 -18.560  0.00  0.00    +0.230 C 
ATOM     11  H   UNL     1      33.437  -7.793 -24.477  0.00  0.00    +0.149 HD
ENDROOT
BRANCH   1  12
ATOM     12  C   UNL     1      33.843  -6.030 -23.397  0.00  0.00    +0.071 C 
ATOM     13  C   UNL     1      35.030  -5.734 -24.319  0.00  0.00    +0.020 C 
ATOM     14  C   UNL     1      32.679  -5.068 -23.655  0.00  0.00    +0.020 C 
ATOM     15  C   UNL     1      34.631  -5.657 -25.793  0.00  0.00    +0.002 C 
ATOM     16  C   UNL     1      32.288  -4.992 -25.130  0.00  0.00    +0.002 C 
ATOM     17  C   UNL     1      33.489  -4.672 -26.016  0.00  0.00    +0.000 C 
ENDBRANCH   1  12
BRANCH   8  18
ATOM     18  N   UNL     1      31.696 -11.631 -22.001  0.00  0.00    -0.299 N 
ATOM     19  H   UNL     1      30.768 -11.823 -21.735  0.00  0.00    +0.153 HD
BRANCH  18  20
ATOM     20  C   UNL     1      32.434 -12.722 -22.472  0.00  0.00    +0.049 C 
ATOM     21  C   UNL     1      33.152 -13.517 -21.577  0.00  0.00    +0.016 C 
ATOM     22  C   UNL     1      32.453 -13.016 -23.835  0.00  0.00    +0.016 C 
ATOM     23  C   UNL     1      33.906 -14.899 -23.410  0.00  0.00    +0.122 C 
ATOM     24  C   UNL     1      33.887 -14.605 -22.046  0.00  0.00    +0.021 C 
ATOM     25  C   UNL     1      33.189 -14.104 -24.303  0.00  0.00    +0.021 C 
BRANCH  23  26
ATOM     26  S   UNL     1      34.827 -16.261 -23.996  0.00  0.00    +0.057 S 
ATOM     27  O   UNL     1      35.684 -15.803 -25.081  0.00  0.00    -0.153 OA
ATOM     28  O   UNL     1      35.412 -16.951 -22.854  0.00  0.00    -0.153 OA
BRANCH  26  29
ATOM     29  N   UNL     1      33.586 -17.237 -24.649  0.00  0.00    -0.203 NA
ATOM     30  H   UNL     1      32.752 -17.160 -24.070  0.00  0.00    +0.144 HD
ATOM     31  H   UNL     1      33.895 -18.209 -24.674  0.00  0.00    +0.144 HD
ENDBRANCH  26  29
ENDBRANCH  23  26
ENDBRANCH  18  20
ENDBRANCH   8  18
TORSDOF 5
ENDMDL
