MODEL 1
REMARK VINA RESULT:     -11.7      0.000      0.000
REMARK  Name = 24748573
REMARK  3 active torsions:
REMARK  status: ('A' for Active; 'I' for Inactive)
REMARK    1  A    between atoms: N_2  and  C_18
REMARK    2  A    between atoms: C_13  and  C_25
REMARK    3  A    between atoms: C_25  and  O_26
REMARK                            x       y       z     vdW  Elec       q    Type
REMARK                         _______ _______ _______ _____ _____    ______ ____
ROOT
ATOM      1  N   UNL     1      34.604 -23.243 -16.448  0.00  0.00    -0.391 NA
ATOM      2  N   UNL     1      32.854 -22.592 -17.873  0.00  0.00    -0.288 N 
ATOM      3  N   UNL     1      30.443 -23.939 -13.648  0.00  0.00    -0.243 NA
ATOM      4  C   UNL     1      34.190 -24.025 -14.199  0.00  0.00    +0.098 C 
ATOM      5  C   UNL     1      32.782 -23.845 -14.400  0.00  0.00    +0.011 C 
ATOM      6  C   UNL     1      32.323 -23.361 -15.638  0.00  0.00    +0.044 C 
ATOM      7  C   UNL     1      35.053 -23.703 -15.271  0.00  0.00    +0.119 C 
ATOM      8  C   UNL     1      33.273 -23.082 -16.611  0.00  0.00    +0.183 C 
ATOM      9  C   UNL     1      34.765 -24.505 -12.997  0.00  0.00    -0.015 C 
ATOM     10  C   UNL     1      36.427 -23.868 -15.110  0.00  0.00    +0.035 C 
ATOM     11  C   UNL     1      30.955 -23.172 -15.872  0.00  0.00    +0.024 C 
ATOM     12  C   UNL     1      31.774 -24.110 -13.454  0.00  0.00    +0.095 C 
ATOM     13  C   UNL     1      36.976 -24.342 -13.919  0.00  0.00    +0.077 C 
ATOM     14  C   UNL     1      36.143 -24.661 -12.860  0.00  0.00    +0.003 C 
ATOM     15  C   UNL     1      30.069 -23.473 -14.855  0.00  0.00    +0.099 C 
ATOM     16  H   UNL     1      31.961 -22.905 -18.144  0.00  0.00    +0.155 HD
ENDROOT
BRANCH   2  18
ATOM     17 CL   UNL     1      37.182 -20.718 -19.876  0.00  0.00    -0.082 Cl
ATOM     18  C   UNL     1      33.466 -21.747 -18.812  0.00  0.00    +0.051 C 
ATOM     19  C   UNL     1      34.858 -21.660 -18.869  0.00  0.00    +0.026 C 
ATOM     20  C   UNL     1      32.684 -20.997 -19.690  0.00  0.00    +0.015 C 
ATOM     21  C   UNL     1      35.467 -20.824 -19.804  0.00  0.00    +0.059 C 
ATOM     22  C   UNL     1      33.294 -20.160 -20.626  0.00  0.00    +0.002 C 
ATOM     23  C   UNL     1      34.685 -20.075 -20.683  0.00  0.00    +0.011 C 
ENDBRANCH   2  18
BRANCH  13  25
ATOM     24  O   UNL     1      39.014 -24.791 -12.750  0.00  0.00    -0.245 OA
ATOM     25  C   UNL     1      38.415 -24.498 -13.791  0.00  0.00    +0.338 C 
BRANCH  25  26
ATOM     26  O   UNL     1      39.069 -24.285 -14.966  0.00  0.00    -0.477 OA
ATOM     27  H   UNL     1      38.583 -24.172 -15.759  0.00  0.00    +0.295 HD
ENDBRANCH  25  26
ENDBRANCH  13  25
TORSDOF 3
ENDMDL
MODEL 2
REMARK VINA RESULT:     -10.9      2.898      6.163
REMARK  Name = 24748573
REMARK  3 active torsions:
REMARK  status: ('A' for Active; 'I' for Inactive)
REMARK    1  A    between atoms: N_2  and  C_18
REMARK    2  A    between atoms: C_13  and  C_25
REMARK    3  A    between atoms: C_25  and  O_26
REMARK                            x       y       z     vdW  Elec       q    Type
REMARK                         _______ _______ _______ _____ _____    ______ ____
ROOT
ATOM      1  N   UNL     1      35.260 -23.339 -15.599  0.00  0.00    -0.391 NA
ATOM      2  N   UNL     1      35.348 -24.470 -13.543  0.00  0.00    -0.288 N 
ATOM      3  N   UNL     1      30.413 -24.417 -14.605  0.00  0.00    -0.243 NA
ATOM      4  C   UNL     1      33.168 -22.934 -16.741  0.00  0.00    +0.098 C 
ATOM      5  C   UNL     1      32.466 -23.597 -15.681  0.00  0.00    +0.011 C 
ATOM      6  C   UNL     1      33.196 -24.119 -14.598  0.00  0.00    +0.044 C 
ATOM      7  C   UNL     1      34.575 -22.838 -16.638  0.00  0.00    +0.119 C 
ATOM      8  C   UNL     1      34.574 -23.958 -14.615  0.00  0.00    +0.183 C 
ATOM      9  C   UNL     1      32.540 -22.371 -17.879  0.00  0.00    -0.015 C 
ATOM     10  C   UNL     1      35.287 -22.198 -17.650  0.00  0.00    +0.035 C 
ATOM     11  C   UNL     1      32.545 -24.774 -13.544  0.00  0.00    +0.024 C 
ATOM     12  C   UNL     1      31.073 -23.789 -15.609  0.00  0.00    +0.095 C 
ATOM     13  C   UNL     1      34.652 -21.650 -18.763  0.00  0.00    +0.077 C 
ATOM     14  C   UNL     1      33.274 -21.737 -18.878  0.00  0.00    +0.003 C 
ATOM     15  C   UNL     1      31.169 -24.893 -13.596  0.00  0.00    +0.099 C 
ATOM     16  H   UNL     1      34.873 -24.483 -12.681  0.00  0.00    +0.155 HD
ENDROOT
BRANCH   2  18
ATOM     17 CL   UNL     1      38.961 -27.542 -15.483  0.00  0.00    -0.082 Cl
ATOM     18  C   UNL     1      36.661 -24.960 -13.472  0.00  0.00    +0.051 C 
ATOM     19  C   UNL     1      37.106 -25.900 -14.403  0.00  0.00    +0.026 C 
ATOM     20  C   UNL     1      37.523 -24.505 -12.474  0.00  0.00    +0.015 C 
ATOM     21  C   UNL     1      38.412 -26.384 -14.335  0.00  0.00    +0.059 C 
ATOM     22  C   UNL     1      38.829 -24.990 -12.406  0.00  0.00    +0.002 C 
ATOM     23  C   UNL     1      39.273 -25.929 -13.337  0.00  0.00    +0.011 C 
ENDBRANCH   2  18
BRANCH  13  25
ATOM     24  O   UNL     1      34.977 -20.253 -20.677  0.00  0.00    -0.245 OA
ATOM     25  C   UNL     1      35.432 -20.993 -19.798  0.00  0.00    +0.338 C 
BRANCH  25  26
ATOM     26  O   UNL     1      36.761 -21.274 -19.707  0.00  0.00    -0.477 OA
ATOM     27  H   UNL     1      37.049 -22.019 -19.217  0.00  0.00    +0.295 HD
ENDBRANCH  25  26
ENDBRANCH  13  25
TORSDOF 3
ENDMDL
MODEL 3
REMARK VINA RESULT:     -10.5      3.691      6.960
REMARK  Name = 24748573
REMARK  3 active torsions:
REMARK  status: ('A' for Active; 'I' for Inactive)
REMARK    1  A    between atoms: N_2  and  C_18
REMARK    2  A    between atoms: C_13  and  C_25
REMARK    3  A    between atoms: C_25  and  O_26
REMARK                            x       y       z     vdW  Elec       q    Type
REMARK                         _______ _______ _______ _____ _____    ______ ____
ROOT
ATOM      1  N   UNL     1      33.766 -23.055 -16.735  0.00  0.00    -0.391 NA
ATOM      2  N   UNL     1      33.634 -24.371 -14.794  0.00  0.00    -0.288 N 
ATOM      3  N   UNL     1      38.532 -23.168 -15.028  0.00  0.00    -0.243 NA
ATOM      4  C   UNL     1      35.856 -22.106 -17.490  0.00  0.00    +0.098 C 
ATOM      5  C   UNL     1      36.526 -22.704 -16.374  0.00  0.00    +0.011 C 
ATOM      6  C   UNL     1      35.783 -23.470 -15.459  0.00  0.00    +0.044 C 
ATOM      7  C   UNL     1      34.464 -22.322 -17.614  0.00  0.00    +0.119 C 
ATOM      8  C   UNL     1      34.422 -23.607 -15.692  0.00  0.00    +0.183 C 
ATOM      9  C   UNL     1      36.501 -21.316 -18.474  0.00  0.00    -0.015 C 
ATOM     10  C   UNL     1      33.783 -21.756 -18.689  0.00  0.00    +0.035 C 
ATOM     11  C   UNL     1      36.403 -24.070 -14.355  0.00  0.00    +0.024 C 
ATOM     12  C   UNL     1      37.901 -22.601 -16.086  0.00  0.00    +0.095 C 
ATOM     13  C   UNL     1      34.433 -20.981 -19.647  0.00  0.00    +0.077 C 
ATOM     14  C   UNL     1      35.796 -20.759 -19.539  0.00  0.00    +0.003 C 
ATOM     15  C   UNL     1      37.763 -23.890 -14.189  0.00  0.00    +0.099 C 
ATOM     16  H   UNL     1      34.127 -25.103 -14.358  0.00  0.00    +0.155 HD
ENDROOT
BRANCH   2  18
ATOM     17 CL   UNL     1      28.920 -22.625 -15.784  0.00  0.00    -0.082 Cl
ATOM     18  C   UNL     1      32.288 -24.285 -14.407  0.00  0.00    +0.051 C 
ATOM     19  C   UNL     1      31.380 -23.578 -15.194  0.00  0.00    +0.026 C 
ATOM     20  C   UNL     1      31.858 -24.910 -13.236  0.00  0.00    +0.015 C 
ATOM     21  C   UNL     1      30.041 -23.496 -14.812  0.00  0.00    +0.059 C 
ATOM     22  C   UNL     1      30.519 -24.828 -12.854  0.00  0.00    +0.002 C 
ATOM     23  C   UNL     1      29.611 -24.122 -13.642  0.00  0.00    +0.011 C 
ENDBRANCH   2  18
BRANCH  13  25
ATOM     24  O   UNL     1      34.177 -19.824 -21.725  0.00  0.00    -0.245 OA
ATOM     25  C   UNL     1      33.685 -20.406 -20.752  0.00  0.00    +0.338 C 
BRANCH  25  26
ATOM     26  O   UNL     1      32.341 -20.575 -20.615  0.00  0.00    -0.477 OA
ATOM     27  H   UNL     1      32.004 -21.370 -20.250  0.00  0.00    +0.295 HD
ENDBRANCH  25  26
ENDBRANCH  13  25
TORSDOF 3
ENDMDL
MODEL 4
REMARK VINA RESULT:     -10.4      3.264      6.011
REMARK  Name = 24748573
REMARK  3 active torsions:
REMARK  status: ('A' for Active; 'I' for Inactive)
REMARK    1  A    between atoms: N_2  and  C_18
REMARK    2  A    between atoms: C_13  and  C_25
REMARK    3  A    between atoms: C_25  and  O_26
REMARK                            x       y       z     vdW  Elec       q    Type
REMARK                         _______ _______ _______ _____ _____    ______ ____
ROOT
ATOM      1  N   UNL     1      34.036 -23.709 -15.302  0.00  0.00    -0.391 NA
ATOM      2  N   UNL     1      32.842 -24.869 -13.646  0.00  0.00    -0.288 N 
ATOM      3  N   UNL     1      37.162 -23.683 -11.319  0.00  0.00    -0.243 NA
ATOM      4  C   UNL     1      36.245 -22.818 -14.892  0.00  0.00    +0.098 C 
ATOM      5  C   UNL     1      36.197 -23.327 -13.552  0.00  0.00    +0.011 C 
ATOM      6  C   UNL     1      35.051 -24.021 -13.124  0.00  0.00    +0.044 C 
ATOM      7  C   UNL     1      35.124 -23.045 -15.722  0.00  0.00    +0.119 C 
ATOM      8  C   UNL     1      34.016 -24.177 -14.036  0.00  0.00    +0.183 C 
ATOM      9  C   UNL     1      37.345 -22.106 -15.431  0.00  0.00    -0.015 C 
ATOM     10  C   UNL     1      35.139 -22.565 -17.029  0.00  0.00    +0.035 C 
ATOM     11  C   UNL     1      34.966 -24.532 -11.823  0.00  0.00    +0.024 C 
ATOM     12  C   UNL     1      37.212 -23.200 -12.585  0.00  0.00    +0.095 C 
ATOM     13  C   UNL     1      36.230 -21.866 -17.544  0.00  0.00    +0.077 C 
ATOM     14  C   UNL     1      37.336 -21.636 -16.743  0.00  0.00    +0.003 C 
ATOM     15  C   UNL     1      36.038 -24.338 -10.971  0.00  0.00    +0.099 C 
ATOM     16  H   UNL     1      32.999 -25.565 -12.967  0.00  0.00    +0.155 HD
ENDROOT
BRANCH   2  18
ATOM     17 CL   UNL     1      29.307 -22.377 -16.392  0.00  0.00    -0.082 Cl
ATOM     18  C   UNL     1      31.501 -24.755 -14.041  0.00  0.00    +0.051 C 
ATOM     19  C   UNL     1      31.115 -23.739 -14.916  0.00  0.00    +0.026 C 
ATOM     20  C   UNL     1      30.553 -25.659 -13.560  0.00  0.00    +0.015 C 
ATOM     21  C   UNL     1      29.782 -23.629 -15.312  0.00  0.00    +0.059 C 
ATOM     22  C   UNL     1      29.220 -25.548 -13.956  0.00  0.00    +0.002 C 
ATOM     23  C   UNL     1      28.835 -24.533 -14.832  0.00  0.00    +0.011 C 
ENDBRANCH   2  18
BRANCH  13  25
ATOM     24  O   UNL     1      36.745 -20.344 -19.316  0.00  0.00    -0.245 OA
ATOM     25  C   UNL     1      36.205 -21.380 -18.913  0.00  0.00    +0.338 C 
BRANCH  25  26
ATOM     26  O   UNL     1      35.509 -22.203 -19.746  0.00  0.00    -0.477 OA
ATOM     27  H   UNL     1      35.577 -23.132 -19.649  0.00  0.00    +0.295 HD
ENDBRANCH  25  26
ENDBRANCH  13  25
TORSDOF 3
ENDMDL
MODEL 5
REMARK VINA RESULT:     -10.1      3.090      6.164
REMARK  Name = 24748573
REMARK  3 active torsions:
REMARK  status: ('A' for Active; 'I' for Inactive)
REMARK    1  A    between atoms: N_2  and  C_18
REMARK    2  A    between atoms: C_13  and  C_25
REMARK    3  A    between atoms: C_25  and  O_26
REMARK                            x       y       z     vdW  Elec       q    Type
REMARK                         _______ _______ _______ _____ _____    ______ ____
ROOT
ATOM      1  N   UNL     1      34.693 -23.097 -16.183  0.00  0.00    -0.391 NA
ATOM      2  N   UNL     1      34.443 -24.310 -14.187  0.00  0.00    -0.288 N 
ATOM      3  N   UNL     1      29.676 -23.548 -15.664  0.00  0.00    -0.243 NA
ATOM      4  C   UNL     1      32.786 -22.368 -17.477  0.00  0.00    +0.098 C 
ATOM      5  C   UNL     1      31.909 -22.972 -16.517  0.00  0.00    +0.011 C 
ATOM      6  C   UNL     1      32.461 -23.629 -15.403  0.00  0.00    +0.044 C 
ATOM      7  C   UNL     1      34.178 -22.467 -17.249  0.00  0.00    +0.119 C 
ATOM      8  C   UNL     1      33.844 -23.656 -15.294  0.00  0.00    +0.183 C 
ATOM      9  C   UNL     1      32.344 -21.681 -18.634  0.00  0.00    -0.015 C 
ATOM     10  C   UNL     1      35.057 -21.890 -18.162  0.00  0.00    +0.035 C 
ATOM     11  C   UNL     1      31.636 -24.231 -14.444  0.00  0.00    +0.024 C 
ATOM     12  C   UNL     1      30.502 -22.976 -16.574  0.00  0.00    +0.095 C 
ATOM     13  C   UNL     1      34.604 -21.218 -19.296  0.00  0.00    +0.077 C 
ATOM     14  C   UNL     1      33.244 -21.113 -19.533  0.00  0.00    +0.003 C 
ATOM     15  C   UNL     1      30.267 -24.161 -14.620  0.00  0.00    +0.099 C 
ATOM     16  H   UNL     1      33.893 -24.292 -13.371  0.00  0.00    +0.155 HD
ENDROOT
BRANCH   2  18
ATOM     17 CL   UNL     1      38.910 -24.683 -11.705  0.00  0.00    -0.082 Cl
ATOM     18  C   UNL     1      35.668 -24.975 -14.030  0.00  0.00    +0.051 C 
ATOM     19  C   UNL     1      36.575 -24.547 -13.060  0.00  0.00    +0.026 C 
ATOM     20  C   UNL     1      35.978 -26.068 -14.840  0.00  0.00    +0.015 C 
ATOM     21  C   UNL     1      37.791 -25.211 -12.901  0.00  0.00    +0.059 C 
ATOM     22  C   UNL     1      37.194 -26.732 -14.681  0.00  0.00    +0.002 C 
ATOM     23  C   UNL     1      38.100 -26.303 -13.711  0.00  0.00    +0.011 C 
ENDBRANCH   2  18
BRANCH  13  25
ATOM     24  O   UNL     1      35.264 -20.022 -21.260  0.00  0.00    -0.245 OA
ATOM     25  C   UNL     1      35.556 -20.632 -20.225  0.00  0.00    +0.338 C 
BRANCH  25  26
ATOM     26  O   UNL     1      36.847 -20.820 -19.837  0.00  0.00    -0.477 OA
ATOM     27  H   UNL     1      37.191 -21.689 -19.762  0.00  0.00    +0.295 HD
ENDBRANCH  25  26
ENDBRANCH  13  25
TORSDOF 3
ENDMDL
MODEL 6
REMARK VINA RESULT:     -10.0      3.227      5.470
REMARK  Name = 24748573
REMARK  3 active torsions:
REMARK  status: ('A' for Active; 'I' for Inactive)
REMARK    1  A    between atoms: N_2  and  C_18
REMARK    2  A    between atoms: C_13  and  C_25
REMARK    3  A    between atoms: C_25  and  O_26
REMARK                            x       y       z     vdW  Elec       q    Type
REMARK                         _______ _______ _______ _____ _____    ______ ____
ROOT
ATOM      1  N   UNL     1      33.451 -23.382 -14.148  0.00  0.00    -0.391 NA
ATOM      2  N   UNL     1      32.123 -22.824 -16.003  0.00  0.00    -0.288 N 
ATOM      3  N   UNL     1      36.825 -22.214 -17.738  0.00  0.00    -0.243 NA
ATOM      4  C   UNL     1      35.865 -23.318 -14.244  0.00  0.00    +0.098 C 
ATOM      5  C   UNL     1      35.795 -22.892 -15.611  0.00  0.00    +0.011 C 
ATOM      6  C   UNL     1      34.535 -22.723 -16.212  0.00  0.00    +0.044 C 
ATOM      7  C   UNL     1      34.647 -23.547 -13.564  0.00  0.00    +0.119 C 
ATOM      8  C   UNL     1      33.413 -22.981 -15.436  0.00  0.00    +0.183 C 
ATOM      9  C   UNL     1      37.075 -23.520 -13.536  0.00  0.00    -0.015 C 
ATOM     10  C   UNL     1      34.680 -23.960 -12.234  0.00  0.00    +0.035 C 
ATOM     11  C   UNL     1      34.426 -22.309 -17.546  0.00  0.00    +0.024 C 
ATOM     12  C   UNL     1      36.895 -22.616 -16.445  0.00  0.00    +0.095 C 
ATOM     13  C   UNL     1      35.880 -24.155 -11.553  0.00  0.00    +0.077 C 
ATOM     14  C   UNL     1      37.082 -23.935 -12.206  0.00  0.00    +0.003 C 
ATOM     15  C   UNL     1      35.589 -22.070 -18.255  0.00  0.00    +0.099 C 
ATOM     16  H   UNL     1      32.079 -22.134 -16.705  0.00  0.00    +0.155 HD
ENDROOT
BRANCH   2  18
ATOM     17 CL   UNL     1      27.007 -22.557 -15.973  0.00  0.00    -0.082 Cl
ATOM     18  C   UNL     1      30.897 -23.460 -15.757  0.00  0.00    +0.051 C 
ATOM     19  C   UNL     1      29.701 -22.771 -15.961  0.00  0.00    +0.026 C 
ATOM     20  C   UNL     1      30.874 -24.782 -15.311  0.00  0.00    +0.015 C 
ATOM     21  C   UNL     1      28.482 -23.405 -15.721  0.00  0.00    +0.059 C 
ATOM     22  C   UNL     1      29.655 -25.415 -15.071  0.00  0.00    +0.002 C 
ATOM     23  C   UNL     1      28.459 -24.727 -15.276  0.00  0.00    +0.011 C 
ENDBRANCH   2  18
BRANCH  13  25
ATOM     24  O   UNL     1      35.183 -25.507  -9.707  0.00  0.00    -0.245 OA
ATOM     25  C   UNL     1      35.870 -24.588 -10.166  0.00  0.00    +0.338 C 
BRANCH  25  26
ATOM     26  O   UNL     1      36.721 -23.864  -9.387  0.00  0.00    -0.477 OA
ATOM     27  H   UNL     1      36.380 -23.245  -8.772  0.00  0.00    +0.295 HD
ENDBRANCH  25  26
ENDBRANCH  13  25
TORSDOF 3
ENDMDL
MODEL 7
REMARK VINA RESULT:      -9.4      3.149      4.948
REMARK  Name = 24748573
REMARK  3 active torsions:
REMARK  status: ('A' for Active; 'I' for Inactive)
REMARK    1  A    between atoms: N_2  and  C_18
REMARK    2  A    between atoms: C_13  and  C_25
REMARK    3  A    between atoms: C_25  and  O_26
REMARK                            x       y       z     vdW  Elec       q    Type
REMARK                         _______ _______ _______ _____ _____    ______ ____
ROOT
ATOM      1  N   UNL     1      34.254 -22.827 -15.847  0.00  0.00    -0.391 NA
ATOM      2  N   UNL     1      36.291 -22.115 -16.776  0.00  0.00    -0.288 N 
ATOM      3  N   UNL     1      37.735 -25.501 -13.322  0.00  0.00    -0.243 NA
ATOM      4  C   UNL     1      34.167 -24.484 -14.089  0.00  0.00    +0.098 C 
ATOM      5  C   UNL     1      35.597 -24.578 -14.113  0.00  0.00    +0.011 C 
ATOM      6  C   UNL     1      36.321 -23.781 -15.018  0.00  0.00    +0.044 C 
ATOM      7  C   UNL     1      33.553 -23.582 -14.989  0.00  0.00    +0.119 C 
ATOM      8  C   UNL     1      35.600 -22.935 -15.849  0.00  0.00    +0.183 C 
ATOM      9  C   UNL     1      33.336 -25.235 -13.223  0.00  0.00    -0.015 C 
ATOM     10  C   UNL     1      32.165 -23.465 -14.990  0.00  0.00    +0.035 C 
ATOM     11  C   UNL     1      37.720 -23.846 -15.071  0.00  0.00    +0.024 C 
ATOM     12  C   UNL     1      36.382 -25.415 -13.297  0.00  0.00    +0.095 C 
ATOM     13  C   UNL     1      31.363 -24.213 -14.130  0.00  0.00    +0.077 C 
ATOM     14  C   UNL     1      31.950 -25.101 -13.244  0.00  0.00    +0.003 C 
ATOM     15  C   UNL     1      38.369 -24.712 -14.211  0.00  0.00    +0.099 C 
ATOM     16  H   UNL     1      37.191 -21.850 -16.479  0.00  0.00    +0.155 HD
ENDROOT
BRANCH   2  18
ATOM     17 CL   UNL     1      37.501 -19.134 -20.764  0.00  0.00    -0.082 Cl
ATOM     18  C   UNL     1      35.939 -21.607 -18.036  0.00  0.00    +0.051 C 
ATOM     19  C   UNL     1      36.794 -20.724 -18.696  0.00  0.00    +0.026 C 
ATOM     20  C   UNL     1      34.735 -21.988 -18.631  0.00  0.00    +0.015 C 
ATOM     21  C   UNL     1      36.446 -20.222 -19.950  0.00  0.00    +0.059 C 
ATOM     22  C   UNL     1      34.388 -21.486 -19.885  0.00  0.00    +0.002 C 
ATOM     23  C   UNL     1      35.243 -20.604 -20.544  0.00  0.00    +0.011 C 
ENDBRANCH   2  18
BRANCH  13  25
ATOM     24  O   UNL     1      29.312 -23.038 -14.497  0.00  0.00    -0.245 OA
ATOM     25  C   UNL     1      29.917 -24.063 -14.165  0.00  0.00    +0.338 C 
BRANCH  25  26
ATOM     26  O   UNL     1      29.266 -25.197 -13.787  0.00  0.00    -0.477 OA
ATOM     27  H   UNL     1      28.340 -25.270 -13.913  0.00  0.00    +0.295 HD
ENDBRANCH  25  26
ENDBRANCH  13  25
TORSDOF 3
ENDMDL
MODEL 8
REMARK VINA RESULT:      -9.2     13.298     16.107
REMARK  Name = 24748573
REMARK  3 active torsions:
REMARK  status: ('A' for Active; 'I' for Inactive)
REMARK    1  A    between atoms: N_2  and  C_18
REMARK    2  A    between atoms: C_13  and  C_25
REMARK    3  A    between atoms: C_25  and  O_26
REMARK                            x       y       z     vdW  Elec       q    Type
REMARK                         _______ _______ _______ _____ _____    ______ ____
ROOT
ATOM      1  N   UNL     1      32.797  -9.277 -23.733  0.00  0.00    -0.391 NA
ATOM      2  N   UNL     1      32.462  -7.080 -22.972  0.00  0.00    -0.288 N 
ATOM      3  N   UNL     1      31.662  -9.857 -18.832  0.00  0.00    -0.243 NA
ATOM      4  C   UNL     1      32.577 -11.182 -22.261  0.00  0.00    +0.098 C 
ATOM      5  C   UNL     1      32.255 -10.301 -21.177  0.00  0.00    +0.011 C 
ATOM      6  C   UNL     1      32.215  -8.915 -21.409  0.00  0.00    +0.044 C 
ATOM      7  C   UNL     1      32.839 -10.601 -23.523  0.00  0.00    +0.119 C 
ATOM      8  C   UNL     1      32.491  -8.470 -22.694  0.00  0.00    +0.183 C 
ATOM      9  C   UNL     1      32.647 -12.592 -22.145  0.00  0.00    -0.015 C 
ATOM     10  C   UNL     1      33.153 -11.429 -24.599  0.00  0.00    +0.035 C 
ATOM     11  C   UNL     1      31.904  -8.023 -20.374  0.00  0.00    +0.024 C 
ATOM     12  C   UNL     1      31.966 -10.692 -19.855  0.00  0.00    +0.095 C 
ATOM     13  C   UNL     1      33.218 -12.815 -24.466  0.00  0.00    +0.077 C 
ATOM     14  C   UNL     1      32.964 -13.398 -23.236  0.00  0.00    +0.003 C 
ATOM     15  C   UNL     1      31.639  -8.541 -19.120  0.00  0.00    +0.099 C 
ATOM     16  H   UNL     1      31.829  -6.576 -22.411  0.00  0.00    +0.155 HD
ENDROOT
BRANCH   2  18
ATOM     17 CL   UNL     1      32.292  -3.623 -26.750  0.00  0.00    -0.082 Cl
ATOM     18  C   UNL     1      33.160  -6.284 -23.892  0.00  0.00    +0.051 C 
ATOM     19  C   UNL     1      32.461  -5.449 -24.764  0.00  0.00    +0.026 C 
ATOM     20  C   UNL     1      34.554  -6.324 -23.933  0.00  0.00    +0.015 C 
ATOM     21  C   UNL     1      33.155  -4.654 -25.676  0.00  0.00    +0.059 C 
ATOM     22  C   UNL     1      35.248  -5.529 -24.846  0.00  0.00    +0.002 C 
ATOM     23  C   UNL     1      34.548  -4.694 -25.716  0.00  0.00    +0.011 C 
ENDBRANCH   2  18
BRANCH  13  25
ATOM     24  O   UNL     1      33.683 -14.871 -25.596  0.00  0.00    -0.245 OA
ATOM     25  C   UNL     1      33.552 -13.643 -25.613  0.00  0.00    +0.338 C 
BRANCH  25  26
ATOM     26  O   UNL     1      33.711 -12.915 -26.753  0.00  0.00    -0.477 OA
ATOM     27  H   UNL     1      33.158 -12.176 -26.918  0.00  0.00    +0.295 HD
ENDBRANCH  25  26
ENDBRANCH  13  25
TORSDOF 3
ENDMDL
MODEL 9
REMARK VINA RESULT:      -8.8      3.436      6.292
REMARK  Name = 24748573
REMARK  3 active torsions:
REMARK  status: ('A' for Active; 'I' for Inactive)
REMARK    1  A    between atoms: N_2  and  C_18
REMARK    2  A    between atoms: C_13  and  C_25
REMARK    3  A    between atoms: C_25  and  O_26
REMARK                            x       y       z     vdW  Elec       q    Type
REMARK                         _______ _______ _______ _____ _____    ______ ____
ROOT
ATOM      1  N   UNL     1      35.391 -22.453 -16.929  0.00  0.00    -0.391 NA
ATOM      2  N   UNL     1      35.613 -23.659 -14.925  0.00  0.00    -0.288 N 
ATOM      3  N   UNL     1      30.625 -23.642 -15.700  0.00  0.00    -0.243 NA
ATOM      4  C   UNL     1      33.232 -22.039 -17.933  0.00  0.00    +0.098 C 
ATOM      5  C   UNL     1      32.602 -22.751 -16.861  0.00  0.00    +0.011 C 
ATOM      6  C   UNL     1      33.399 -23.301 -15.842  0.00  0.00    +0.044 C 
ATOM      7  C   UNL     1      34.641 -21.925 -17.907  0.00  0.00    +0.119 C 
ATOM      8  C   UNL     1      34.772 -23.120 -15.931  0.00  0.00    +0.183 C 
ATOM      9  C   UNL     1      32.532 -21.443 -19.011  0.00  0.00    -0.015 C 
ATOM     10  C   UNL     1      35.285 -21.237 -18.933  0.00  0.00    +0.035 C 
ATOM     11  C   UNL     1      32.819 -24.005 -14.778  0.00  0.00    +0.024 C 
ATOM     12  C   UNL     1      31.218 -22.967 -16.716  0.00  0.00    +0.095 C 
ATOM     13  C   UNL     1      34.580 -20.658 -19.986  0.00  0.00    +0.077 C 
ATOM     14  C   UNL     1      33.199 -20.761 -20.026  0.00  0.00    +0.003 C 
ATOM     15  C   UNL     1      31.444 -24.144 -14.756  0.00  0.00    +0.099 C 
ATOM     16  H   UNL     1      35.188 -23.711 -14.039  0.00  0.00    +0.155 HD
ENDROOT
BRANCH   2  18
ATOM     17 CL   UNL     1      38.860 -27.554 -14.189  0.00  0.00    -0.082 Cl
ATOM     18  C   UNL     1      36.934 -24.131 -14.949  0.00  0.00    +0.051 C 
ATOM     19  C   UNL     1      37.209 -25.453 -14.596  0.00  0.00    +0.026 C 
ATOM     20  C   UNL     1      37.973 -23.281 -15.328  0.00  0.00    +0.015 C 
ATOM     21  C   UNL     1      38.521 -25.924 -14.623  0.00  0.00    +0.059 C 
ATOM     22  C   UNL     1      39.285 -23.752 -15.355  0.00  0.00    +0.002 C 
ATOM     23  C   UNL     1      39.559 -25.073 -15.003  0.00  0.00    +0.011 C 
ENDBRANCH   2  18
BRANCH  13  25
ATOM     24  O   UNL     1      36.360 -19.346 -20.900  0.00  0.00    -0.245 OA
ATOM     25  C   UNL     1      35.290 -19.950 -21.039  0.00  0.00    +0.338 C 
BRANCH  25  26
ATOM     26  O   UNL     1      34.648 -20.017 -22.237  0.00  0.00    -0.477 OA
ATOM     27  H   UNL     1      33.756 -19.740 -22.306  0.00  0.00    +0.295 HD
ENDBRANCH  25  26
ENDBRANCH  13  25
TORSDOF 3
ENDMDL
