MODEL 1
REMARK VINA RESULT:     -13.0      0.000      0.000
REMARK  Name = 25145656
REMARK  4 active torsions:
REMARK  status: ('A' for Active; 'I' for Inactive)
REMARK    1  A    between atoms: C_5  and  C_22
REMARK    2  A    between atoms: C_8  and  C_11
REMARK    3  A    between atoms: C_14  and  C_19
REMARK    4  A    between atoms: C_22  and  C_24
REMARK                            x       y       z     vdW  Elec       q    Type
REMARK                         _______ _______ _______ _____ _____    ______ ____
ROOT
ATOM      1  N   UNL     1      34.907 -16.782 -22.926  0.00  0.00    -0.134 N 
ATOM      2  N   UNL     1      34.867 -17.562 -21.824  0.00  0.00    -0.168 NA
ATOM      3  N   UNL     1      34.936 -16.183 -25.062  0.00  0.00    -0.178 NA
ATOM      4  N   UNL     1      34.877 -18.541 -24.517  0.00  0.00    -0.200 NA
ATOM      5  C   UNL     1      34.950 -15.414 -22.937  0.00  0.00    +0.086 C 
ATOM      6  C   UNL     1      34.903 -17.215 -24.238  0.00  0.00    +0.114 C 
ATOM      7  C   UNL     1      34.966 -15.069 -24.265  0.00  0.00    +0.124 C 
ATOM      8  C   UNL     1      34.819 -18.837 -22.072  0.00  0.00    +0.103 C 
ATOM      9  C   UNL     1      34.844 -19.333 -23.497  0.00  0.00    +0.184 C 
ENDROOT
BRANCH   8  11
ATOM     10  F   UNL     1      36.997 -21.722 -18.833  0.00  0.00    -0.204 F 
ATOM     11  C   UNL     1      34.751 -19.810 -20.957  0.00  0.00    +0.019 C 
ATOM     12  C   UNL     1      35.925 -20.321 -20.406  0.00  0.00    +0.031 C 
ATOM     13  C   UNL     1      33.512 -20.214 -20.459  0.00  0.00    +0.002 C 
ATOM     14  C   UNL     1      34.623 -21.642 -18.857  0.00  0.00    +0.081 C 
ATOM     15  C   UNL     1      35.861 -21.237 -19.356  0.00  0.00    +0.144 C 
ATOM     16  C   UNL     1      33.449 -21.130 -19.409  0.00  0.00    +0.007 C 
BRANCH  14  19
ATOM     17  O   UNL     1      33.863 -23.626 -17.866  0.00  0.00    -0.270 OA
ATOM     18  N   UNL     1      35.305 -22.307 -16.618  0.00  0.00    -0.299 N 
ATOM     19  C   UNL     1      34.552 -22.596 -17.762  0.00  0.00    +0.248 C 
ATOM     20  C   UNL     1      35.357 -23.167 -15.458  0.00  0.00    +0.111 C 
ATOM     21  H   UNL     1      35.827 -21.473 -16.602  0.00  0.00    +0.150 HD
ENDBRANCH  14  19
ENDBRANCH   8  11
BRANCH   5  22
ATOM     22  C   UNL     1      34.969 -14.569 -21.679  0.00  0.00    +0.068 C 
BRANCH  22  24
ATOM     23  N   UNL     1      31.349 -10.221 -21.761  0.00  0.00    -0.248 NA
ATOM     24  C   UNL     1      34.021 -13.419 -21.708  0.00  0.00    -0.038 C 
ATOM     25  C   UNL     1      34.224 -12.366 -22.596  0.00  0.00    +0.050 C 
ATOM     26  C   UNL     1      33.333 -11.281 -22.627  0.00  0.00    -0.004 C 
ATOM     27  C   UNL     1      32.929 -13.391 -20.849  0.00  0.00    -0.028 C 
ATOM     28  C   UNL     1      32.222 -11.245 -21.757  0.00  0.00    +0.060 C 
ATOM     29  C   UNL     1      32.043 -12.311 -20.880  0.00  0.00    +0.071 C 
ATOM     30  C   UNL     1      33.512 -10.209 -23.511  0.00  0.00    -0.001 C 
ATOM     31  C   UNL     1      32.614  -9.150 -23.516  0.00  0.00    +0.020 C 
ATOM     32  C   UNL     1      31.559  -9.205 -22.630  0.00  0.00    +0.098 C 
ENDBRANCH  22  24
ENDBRANCH   5  22
TORSDOF 4
ENDMDL
MODEL 2
REMARK VINA RESULT:     -12.8      0.728      1.389
REMARK  Name = 25145656
REMARK  4 active torsions:
REMARK  status: ('A' for Active; 'I' for Inactive)
REMARK    1  A    between atoms: C_5  and  C_22
REMARK    2  A    between atoms: C_8  and  C_11
REMARK    3  A    between atoms: C_14  and  C_19
REMARK    4  A    between atoms: C_22  and  C_24
REMARK                            x       y       z     vdW  Elec       q    Type
REMARK                         _______ _______ _______ _____ _____    ______ ____
ROOT
ATOM      1  N   UNL     1      35.025 -17.177 -22.925  0.00  0.00    -0.134 N 
ATOM      2  N   UNL     1      34.965 -17.886 -21.777  0.00  0.00    -0.168 NA
ATOM      3  N   UNL     1      35.095 -16.714 -25.094  0.00  0.00    -0.178 NA
ATOM      4  N   UNL     1      35.030 -19.033 -24.403  0.00  0.00    -0.200 NA
ATOM      5  C   UNL     1      35.065 -15.812 -23.022  0.00  0.00    +0.086 C 
ATOM      6  C   UNL     1      35.047 -17.692 -24.207  0.00  0.00    +0.114 C 
ATOM      7  C   UNL     1      35.107 -15.552 -24.369  0.00  0.00    +0.124 C 
ATOM      8  C   UNL     1      34.925 -19.174 -21.945  0.00  0.00    +0.103 C 
ATOM      9  C   UNL     1      34.978 -19.759 -23.335  0.00  0.00    +0.184 C 
ENDROOT
BRANCH   8  11
ATOM     10  F   UNL     1      37.044 -21.819 -18.472  0.00  0.00    -0.204 F 
ATOM     11  C   UNL     1      34.836 -20.075 -20.772  0.00  0.00    +0.019 C 
ATOM     12  C   UNL     1      36.001 -20.535 -20.159  0.00  0.00    +0.031 C 
ATOM     13  C   UNL     1      33.589 -20.462 -20.283  0.00  0.00    +0.002 C 
ATOM     14  C   UNL     1      34.671 -21.771 -18.564  0.00  0.00    +0.081 C 
ATOM     15  C   UNL     1      35.917 -21.383 -19.054  0.00  0.00    +0.144 C 
ATOM     16  C   UNL     1      33.507 -21.310 -19.179  0.00  0.00    +0.007 C 
BRANCH  14  19
ATOM     17  O   UNL     1      33.847 -23.659 -17.443  0.00  0.00    -0.270 OA
ATOM     18  N   UNL     1      35.364 -22.330 -16.300  0.00  0.00    -0.299 N 
ATOM     19  C   UNL     1      34.580 -22.655 -17.413  0.00  0.00    +0.248 C 
ATOM     20  C   UNL     1      35.402 -23.121 -15.091  0.00  0.00    +0.111 C 
ATOM     21  H   UNL     1      35.921 -21.520 -16.343  0.00  0.00    +0.150 HD
ENDBRANCH  14  19
ENDBRANCH   8  11
BRANCH   5  22
ATOM     22  C   UNL     1      35.057 -14.890 -21.820  0.00  0.00    +0.068 C 
BRANCH  22  24
ATOM     23  N   UNL     1      32.159 -10.101 -22.647  0.00  0.00    -0.248 NA
ATOM     24  C   UNL     1      34.289 -13.629 -22.029  0.00  0.00    -0.038 C 
ATOM     25  C   UNL     1      33.333 -13.229 -21.100  0.00  0.00    +0.050 C 
ATOM     26  C   UNL     1      32.606 -12.043 -21.293  0.00  0.00    -0.004 C 
ATOM     27  C   UNL     1      34.521 -12.846 -23.153  0.00  0.00    -0.028 C 
ATOM     28  C   UNL     1      32.837 -11.243 -22.432  0.00  0.00    +0.060 C 
ATOM     29  C   UNL     1      33.799 -11.666 -23.345  0.00  0.00    +0.071 C 
ATOM     30  C   UNL     1      31.639 -11.616 -20.372  0.00  0.00    -0.001 C 
ATOM     31  C   UNL     1      30.938 -10.439 -20.592  0.00  0.00    +0.020 C 
ATOM     32  C   UNL     1      31.233  -9.724 -21.734  0.00  0.00    +0.098 C 
ENDBRANCH  22  24
ENDBRANCH   5  22
TORSDOF 4
ENDMDL
MODEL 3
REMARK VINA RESULT:     -12.2      5.451      9.583
REMARK  Name = 25145656
REMARK  4 active torsions:
REMARK  status: ('A' for Active; 'I' for Inactive)
REMARK    1  A    between atoms: C_5  and  C_22
REMARK    2  A    between atoms: C_8  and  C_11
REMARK    3  A    between atoms: C_14  and  C_19
REMARK    4  A    between atoms: C_22  and  C_24
REMARK                            x       y       z     vdW  Elec       q    Type
REMARK                         _______ _______ _______ _____ _____    ______ ____
ROOT
ATOM      1  N   UNL     1      34.022 -23.594 -15.827  0.00  0.00    -0.134 N 
ATOM      2  N   UNL     1      35.198 -24.251 -15.928  0.00  0.00    -0.168 NA
ATOM      3  N   UNL     1      32.265 -22.582 -14.926  0.00  0.00    -0.178 NA
ATOM      4  N   UNL     1      33.941 -23.526 -13.457  0.00  0.00    -0.200 NA
ATOM      5  C   UNL     1      33.247 -23.173 -16.873  0.00  0.00    +0.086 C 
ATOM      6  C   UNL     1      33.391 -23.218 -14.657  0.00  0.00    +0.114 C 
ATOM      7  C   UNL     1      32.170 -22.552 -16.292  0.00  0.00    +0.124 C 
ATOM      8  C   UNL     1      35.753 -24.535 -14.788  0.00  0.00    +0.103 C 
ATOM      9  C   UNL     1      35.067 -24.161 -13.497  0.00  0.00    +0.184 C 
ENDROOT
BRANCH   8  11
ATOM     10  F   UNL     1      40.431 -24.702 -13.509  0.00  0.00    -0.204 F 
ATOM     11  C   UNL     1      37.057 -25.236 -14.749  0.00  0.00    +0.019 C 
ATOM     12  C   UNL     1      38.155 -24.632 -14.137  0.00  0.00    +0.031 C 
ATOM     13  C   UNL     1      37.186 -26.501 -15.324  0.00  0.00    +0.002 C 
ATOM     14  C   UNL     1      39.513 -26.556 -14.675  0.00  0.00    +0.081 C 
ATOM     15  C   UNL     1      39.382 -25.292 -14.100  0.00  0.00    +0.144 C 
ATOM     16  C   UNL     1      38.415 -27.160 -15.287  0.00  0.00    +0.007 C 
BRANCH  14  19
ATOM     17  O   UNL     1      41.688 -26.878 -13.860  0.00  0.00    -0.270 OA
ATOM     18  N   UNL     1      40.944 -28.347 -15.491  0.00  0.00    -0.299 N 
ATOM     19  C   UNL     1      40.791 -27.249 -14.637  0.00  0.00    +0.248 C 
ATOM     20  C   UNL     1      42.143 -29.151 -15.553  0.00  0.00    +0.111 C 
ATOM     21  H   UNL     1      40.193 -28.586 -16.082  0.00  0.00    +0.150 HD
ENDBRANCH  14  19
ENDBRANCH   8  11
BRANCH   5  22
ATOM     22  C   UNL     1      33.610 -23.404 -18.327  0.00  0.00    +0.068 C 
BRANCH  22  24
ATOM     23  N   UNL     1      34.937 -18.675 -21.136  0.00  0.00    -0.248 NA
ATOM     24  C   UNL     1      33.970 -22.160 -19.065  0.00  0.00    -0.038 C 
ATOM     25  C   UNL     1      35.304 -21.789 -19.205  0.00  0.00    +0.050 C 
ATOM     26  C   UNL     1      35.647 -20.618 -19.900  0.00  0.00    -0.004 C 
ATOM     27  C   UNL     1      32.975 -21.363 -19.619  0.00  0.00    -0.028 C 
ATOM     28  C   UNL     1      34.643 -19.804 -20.465  0.00  0.00    +0.060 C 
ATOM     29  C   UNL     1      33.317 -20.198 -20.310  0.00  0.00    +0.071 C 
ATOM     30  C   UNL     1      36.982 -20.222 -20.056  0.00  0.00    -0.001 C 
ATOM     31  C   UNL     1      37.289 -19.058 -20.748  0.00  0.00    +0.020 C 
ATOM     32  C   UNL     1      36.239 -18.328 -21.265  0.00  0.00    +0.098 C 
ENDBRANCH  22  24
ENDBRANCH   5  22
TORSDOF 4
ENDMDL
MODEL 4
REMARK VINA RESULT:     -11.9      5.873     12.024
REMARK  Name = 25145656
REMARK  4 active torsions:
REMARK  status: ('A' for Active; 'I' for Inactive)
REMARK    1  A    between atoms: C_5  and  C_22
REMARK    2  A    between atoms: C_8  and  C_11
REMARK    3  A    between atoms: C_14  and  C_19
REMARK    4  A    between atoms: C_22  and  C_24
REMARK                            x       y       z     vdW  Elec       q    Type
REMARK                         _______ _______ _______ _____ _____    ______ ____
ROOT
ATOM      1  N   UNL     1      32.796 -11.377 -21.987  0.00  0.00    -0.134 N 
ATOM      2  N   UNL     1      33.040 -10.275 -22.730  0.00  0.00    -0.168 NA
ATOM      3  N   UNL     1      31.951 -12.688 -20.409  0.00  0.00    -0.178 NA
ATOM      4  N   UNL     1      31.321 -10.351 -20.438  0.00  0.00    -0.200 NA
ATOM      5  C   UNL     1      33.323 -12.622 -22.204  0.00  0.00    +0.086 C 
ATOM      6  C   UNL     1      31.967 -11.456 -20.885  0.00  0.00    +0.114 C 
ATOM      7  C   UNL     1      32.787 -13.412 -21.218  0.00  0.00    +0.124 C 
ATOM      8  C   UNL     1      32.411  -9.211 -22.331  0.00  0.00    +0.103 C 
ATOM      9  C   UNL     1      31.524  -9.266 -21.111  0.00  0.00    +0.184 C 
ENDROOT
BRANCH   8  11
ATOM     10  F   UNL     1      35.208  -5.645 -24.067  0.00  0.00    -0.204 F 
ATOM     11  C   UNL     1      32.569  -7.934 -23.066  0.00  0.00    +0.019 C 
ATOM     12  C   UNL     1      33.836  -7.375 -23.226  0.00  0.00    +0.031 C 
ATOM     13  C   UNL     1      31.450  -7.292 -23.597  0.00  0.00    +0.002 C 
ATOM     14  C   UNL     1      32.867  -5.530 -24.449  0.00  0.00    +0.081 C 
ATOM     15  C   UNL     1      33.985  -6.173 -23.918  0.00  0.00    +0.144 C 
ATOM     16  C   UNL     1      31.600  -6.090 -24.288  0.00  0.00    +0.007 C 
BRANCH  14  19
ATOM     17  O   UNL     1      33.407  -4.273 -26.353  0.00  0.00    -0.270 OA
ATOM     18  N   UNL     1      32.686  -3.104 -24.485  0.00  0.00    -0.299 N 
ATOM     19  C   UNL     1      33.018  -4.278 -25.172  0.00  0.00    +0.248 C 
ATOM     20  C   UNL     1      32.759  -1.786 -25.073  0.00  0.00    +0.111 C 
ATOM     21  H   UNL     1      32.385  -3.180 -23.551  0.00  0.00    +0.150 HD
ENDBRANCH  14  19
ENDBRANCH   8  11
BRANCH   5  22
ATOM     22  C   UNL     1      34.286 -12.936 -23.331  0.00  0.00    +0.068 C 
BRANCH  22  24
ATOM     23  N   UNL     1      34.414 -18.400 -24.795  0.00  0.00    -0.248 NA
ATOM     24  C   UNL     1      34.326 -14.378 -23.709  0.00  0.00    -0.038 C 
ATOM     25  C   UNL     1      35.055 -15.282 -22.943  0.00  0.00    +0.050 C 
ATOM     26  C   UNL     1      35.095 -16.641 -23.295  0.00  0.00    -0.004 C 
ATOM     27  C   UNL     1      33.635 -14.827 -24.827  0.00  0.00    -0.028 C 
ATOM     28  C   UNL     1      34.396 -17.105 -24.430  0.00  0.00    +0.060 C 
ATOM     29  C   UNL     1      33.675 -16.178 -25.177  0.00  0.00    +0.071 C 
ATOM     30  C   UNL     1      35.821 -17.574 -22.541  0.00  0.00    -0.001 C 
ATOM     31  C   UNL     1      35.841 -18.910 -22.916  0.00  0.00    +0.020 C 
ATOM     32  C   UNL     1      35.127 -19.268 -24.041  0.00  0.00    +0.098 C 
ENDBRANCH  22  24
ENDBRANCH   5  22
TORSDOF 4
ENDMDL
MODEL 5
REMARK VINA RESULT:     -11.7      5.160     12.199
REMARK  Name = 25145656
REMARK  4 active torsions:
REMARK  status: ('A' for Active; 'I' for Inactive)
REMARK    1  A    between atoms: C_5  and  C_22
REMARK    2  A    between atoms: C_8  and  C_11
REMARK    3  A    between atoms: C_14  and  C_19
REMARK    4  A    between atoms: C_22  and  C_24
REMARK                            x       y       z     vdW  Elec       q    Type
REMARK                         _______ _______ _______ _____ _____    ______ ____
ROOT
ATOM      1  N   UNL     1      33.454 -23.435 -15.172  0.00  0.00    -0.134 N 
ATOM      2  N   UNL     1      34.045 -22.710 -16.147  0.00  0.00    -0.168 NA
ATOM      3  N   UNL     1      31.916 -24.593 -14.070  0.00  0.00    -0.178 NA
ATOM      4  N   UNL     1      31.338 -23.650 -16.222  0.00  0.00    -0.200 NA
ATOM      5  C   UNL     1      34.044 -23.834 -14.002  0.00  0.00    +0.086 C 
ATOM      6  C   UNL     1      32.159 -23.914 -15.176  0.00  0.00    +0.114 C 
ATOM      7  C   UNL     1      33.076 -24.547 -13.341  0.00  0.00    +0.124 C 
ATOM      8  C   UNL     1      33.281 -22.465 -17.169  0.00  0.00    +0.103 C 
ATOM      9  C   UNL     1      31.853 -22.953 -17.182  0.00  0.00    +0.184 C 
ENDROOT
BRANCH   8  11
ATOM     10  F   UNL     1      36.983 -20.972 -19.929  0.00  0.00    -0.204 F 
ATOM     11  C   UNL     1      33.805 -21.698 -18.323  0.00  0.00    +0.019 C 
ATOM     12  C   UNL     1      35.173 -21.692 -18.592  0.00  0.00    +0.031 C 
ATOM     13  C   UNL     1      32.929 -20.981 -19.139  0.00  0.00    +0.002 C 
ATOM     14  C   UNL     1      34.792 -20.253 -20.495  0.00  0.00    +0.081 C 
ATOM     15  C   UNL     1      35.666 -20.970 -19.679  0.00  0.00    +0.144 C 
ATOM     16  C   UNL     1      33.423 -20.259 -20.225  0.00  0.00    +0.007 C 
BRANCH  14  19
ATOM     17  O   UNL     1      36.405 -18.929 -21.565  0.00  0.00    -0.270 OA
ATOM     18  N   UNL     1      34.508 -19.472 -22.782  0.00  0.00    -0.299 N 
ATOM     19  C   UNL     1      35.302 -19.499 -21.629  0.00  0.00    +0.248 C 
ATOM     20  C   UNL     1      34.887 -18.788 -23.997  0.00  0.00    +0.111 C 
ATOM     21  H   UNL     1      33.645 -19.945 -22.765  0.00  0.00    +0.150 HD
ENDBRANCH  14  19
ENDBRANCH   8  11
BRANCH   5  22
ATOM     22  C   UNL     1      35.474 -23.496 -13.631  0.00  0.00    +0.068 C 
BRANCH  22  24
ATOM     23  N   UNL     1      39.227 -27.370 -15.342  0.00  0.00    -0.248 NA
ATOM     24  C   UNL     1      36.470 -24.512 -14.077  0.00  0.00    -0.038 C 
ATOM     25  C   UNL     1      37.812 -24.374 -13.734  0.00  0.00    +0.050 C 
ATOM     26  C   UNL     1      38.754 -25.328 -14.151  0.00  0.00    -0.004 C 
ATOM     27  C   UNL     1      36.065 -25.601 -14.838  0.00  0.00    -0.028 C 
ATOM     28  C   UNL     1      38.351 -26.438 -14.925  0.00  0.00    +0.060 C 
ATOM     29  C   UNL     1      37.002 -26.550 -15.254  0.00  0.00    +0.071 C 
ATOM     30  C   UNL     1      40.111 -25.215 -13.819  0.00  0.00    -0.001 C 
ATOM     31  C   UNL     1      41.017 -26.175 -14.248  0.00  0.00    +0.020 C 
ATOM     32  C   UNL     1      40.528 -27.223 -14.999  0.00  0.00    +0.098 C 
ENDBRANCH  22  24
ENDBRANCH   5  22
TORSDOF 4
ENDMDL
MODEL 6
REMARK VINA RESULT:     -11.6      2.921      4.681
REMARK  Name = 25145656
REMARK  4 active torsions:
REMARK  status: ('A' for Active; 'I' for Inactive)
REMARK    1  A    between atoms: C_5  and  C_22
REMARK    2  A    between atoms: C_8  and  C_11
REMARK    3  A    between atoms: C_14  and  C_19
REMARK    4  A    between atoms: C_22  and  C_24
REMARK                            x       y       z     vdW  Elec       q    Type
REMARK                         _______ _______ _______ _____ _____    ______ ____
ROOT
ATOM      1  N   UNL     1      34.066 -13.091 -24.996  0.00  0.00    -0.134 N 
ATOM      2  N   UNL     1      34.596 -13.937 -24.086  0.00  0.00    -0.168 NA
ATOM      3  N   UNL     1      32.949 -12.360 -26.768  0.00  0.00    -0.178 NA
ATOM      4  N   UNL     1      33.073 -14.745 -26.376  0.00  0.00    -0.200 NA
ATOM      5  C   UNL     1      34.168 -11.726 -24.974  0.00  0.00    +0.086 C 
ATOM      6  C   UNL     1      33.319 -13.440 -26.104  0.00  0.00    +0.114 C 
ATOM      7  C   UNL     1      33.472 -11.299 -26.077  0.00  0.00    +0.124 C 
ATOM      8  C   UNL     1      34.352 -15.192 -24.317  0.00  0.00    +0.103 C 
ATOM      9  C   UNL     1      33.563 -15.599 -25.538  0.00  0.00    +0.184 C 
ENDROOT
BRANCH   8  11
ATOM     10  F   UNL     1      35.670 -19.773 -23.407  0.00  0.00    -0.204 F 
ATOM     11  C   UNL     1      34.855 -16.232 -23.389  0.00  0.00    +0.019 C 
ATOM     12  C   UNL     1      35.030 -17.540 -23.838  0.00  0.00    +0.031 C 
ATOM     13  C   UNL     1      35.152 -15.901 -22.067  0.00  0.00    +0.002 C 
ATOM     14  C   UNL     1      35.802 -18.189 -21.642  0.00  0.00    +0.081 C 
ATOM     15  C   UNL     1      35.504 -18.519 -22.964  0.00  0.00    +0.144 C 
ATOM     16  C   UNL     1      35.626 -16.880 -21.194  0.00  0.00    +0.007 C 
BRANCH  14  19
ATOM     17  O   UNL     1      37.477 -19.185 -20.338  0.00  0.00    -0.270 OA
ATOM     18  N   UNL     1      35.382 -20.176 -20.302  0.00  0.00    -0.299 N 
ATOM     19  C   UNL     1      36.297 -19.206 -20.728  0.00  0.00    +0.248 C 
ATOM     20  C   UNL     1      35.715 -21.237 -19.378  0.00  0.00    +0.111 C 
ATOM     21  H   UNL     1      34.462 -20.135 -20.650  0.00  0.00    +0.150 HD
ENDBRANCH  14  19
ENDBRANCH   8  11
BRANCH   5  22
ATOM     22  C   UNL     1      34.921 -10.962 -23.903  0.00  0.00    +0.068 C 
BRANCH  22  24
ATOM     23  N   UNL     1      33.543  -5.484 -23.574  0.00  0.00    -0.248 NA
ATOM     24  C   UNL     1      34.549  -9.521 -23.813  0.00  0.00    -0.038 C 
ATOM     25  C   UNL     1      33.271  -9.153 -23.401  0.00  0.00    +0.050 C 
ATOM     26  C   UNL     1      32.916  -7.797 -23.315  0.00  0.00    -0.004 C 
ATOM     27  C   UNL     1      35.474  -8.538 -24.140  0.00  0.00    -0.028 C 
ATOM     28  C   UNL     1      33.850  -6.792 -23.645  0.00  0.00    +0.060 C 
ATOM     29  C   UNL     1      35.121  -7.189 -24.054  0.00  0.00    +0.071 C 
ATOM     30  C   UNL     1      31.638  -7.397 -22.902  0.00  0.00    -0.001 C 
ATOM     31  C   UNL     1      31.317  -6.049 -22.828  0.00  0.00    +0.020 C 
ATOM     32  C   UNL     1      32.297  -5.141 -23.171  0.00  0.00    +0.098 C 
ENDBRANCH  22  24
ENDBRANCH   5  22
TORSDOF 4
ENDMDL
MODEL 7
REMARK VINA RESULT:     -11.6      3.362      6.391
REMARK  Name = 25145656
REMARK  4 active torsions:
REMARK  status: ('A' for Active; 'I' for Inactive)
REMARK    1  A    between atoms: C_5  and  C_22
REMARK    2  A    between atoms: C_8  and  C_11
REMARK    3  A    between atoms: C_14  and  C_19
REMARK    4  A    between atoms: C_22  and  C_24
REMARK                            x       y       z     vdW  Elec       q    Type
REMARK                         _______ _______ _______ _____ _____    ______ ____
ROOT
ATOM      1  N   UNL     1      34.222 -21.181 -19.053  0.00  0.00    -0.134 N 
ATOM      2  N   UNL     1      35.268 -21.652 -18.340  0.00  0.00    -0.168 NA
ATOM      3  N   UNL     1      32.132 -20.798 -19.691  0.00  0.00    -0.178 NA
ATOM      4  N   UNL     1      32.517 -22.224 -17.774  0.00  0.00    -0.200 NA
ATOM      5  C   UNL     1      34.302 -20.365 -20.149  0.00  0.00    +0.086 C 
ATOM      6  C   UNL     1      32.885 -21.425 -18.806  0.00  0.00    +0.114 C 
ATOM      7  C   UNL     1      33.001 -20.142 -20.524  0.00  0.00    +0.124 C 
ATOM      8  C   UNL     1      34.935 -22.402 -17.333  0.00  0.00    +0.103 C 
ATOM      9  C   UNL     1      33.482 -22.706 -17.062  0.00  0.00    +0.184 C 
ENDROOT
BRANCH   8  11
ATOM     10  F   UNL     1      36.371 -25.640 -14.015  0.00  0.00    -0.204 F 
ATOM     11  C   UNL     1      35.981 -22.970 -16.450  0.00  0.00    +0.019 C 
ATOM     12  C   UNL     1      35.683 -24.058 -15.630  0.00  0.00    +0.031 C 
ATOM     13  C   UNL     1      37.261 -22.418 -16.441  0.00  0.00    +0.002 C 
ATOM     14  C   UNL     1      37.948 -24.042 -14.789  0.00  0.00    +0.081 C 
ATOM     15  C   UNL     1      36.668 -24.594 -14.800  0.00  0.00    +0.144 C 
ATOM     16  C   UNL     1      38.245 -22.954 -15.610  0.00  0.00    +0.007 C 
BRANCH  14  19
ATOM     17  O   UNL     1      39.053 -24.257 -12.732  0.00  0.00    -0.270 OA
ATOM     18  N   UNL     1      39.846 -25.536 -14.495  0.00  0.00    -0.299 N 
ATOM     19  C   UNL     1      38.977 -24.598 -13.925  0.00  0.00    +0.248 C 
ATOM     20  C   UNL     1      40.903 -26.195 -13.762  0.00  0.00    +0.111 C 
ATOM     21  H   UNL     1      39.731 -25.760 -15.447  0.00  0.00    +0.150 HD
ENDBRANCH  14  19
ENDBRANCH   8  11
BRANCH   5  22
ATOM     22  C   UNL     1      35.613 -19.876 -20.731  0.00  0.00    +0.068 C 
BRANCH  22  24
ATOM     23  N   UNL     1      35.007 -16.177 -24.970  0.00  0.00    -0.248 NA
ATOM     24  C   UNL     1      35.453 -18.894 -21.841  0.00  0.00    -0.038 C 
ATOM     25  C   UNL     1      35.333 -17.535 -21.562  0.00  0.00    +0.050 C 
ATOM     26  C   UNL     1      35.182 -16.606 -22.605  0.00  0.00    -0.004 C 
ATOM     27  C   UNL     1      35.423 -19.328 -23.161  0.00  0.00    -0.028 C 
ATOM     28  C   UNL     1      35.150 -17.040 -23.948  0.00  0.00    +0.060 C 
ATOM     29  C   UNL     1      35.273 -18.404 -24.198  0.00  0.00    +0.071 C 
ATOM     30  C   UNL     1      35.060 -15.233 -22.353  0.00  0.00    -0.001 C 
ATOM     31  C   UNL     1      34.912 -14.341 -23.406  0.00  0.00    +0.020 C 
ATOM     32  C   UNL     1      34.892 -14.859 -24.683  0.00  0.00    +0.098 C 
ENDBRANCH  22  24
ENDBRANCH   5  22
TORSDOF 4
ENDMDL
MODEL 8
REMARK VINA RESULT:     -11.4      6.753     12.565
REMARK  Name = 25145656
REMARK  4 active torsions:
REMARK  status: ('A' for Active; 'I' for Inactive)
REMARK    1  A    between atoms: C_5  and  C_22
REMARK    2  A    between atoms: C_8  and  C_11
REMARK    3  A    between atoms: C_14  and  C_19
REMARK    4  A    between atoms: C_22  and  C_24
REMARK                            x       y       z     vdW  Elec       q    Type
REMARK                         _______ _______ _______ _____ _____    ______ ____
ROOT
ATOM      1  N   UNL     1      32.435  -9.079 -20.902  0.00  0.00    -0.134 N 
ATOM      2  N   UNL     1      32.834  -8.483 -22.047  0.00  0.00    -0.168 NA
ATOM      3  N   UNL     1      31.990  -9.384 -18.750  0.00  0.00    -0.178 NA
ATOM      4  N   UNL     1      32.958  -7.278 -19.449  0.00  0.00    -0.200 NA
ATOM      5  C   UNL     1      31.913 -10.340 -20.796  0.00  0.00    +0.086 C 
ATOM      6  C   UNL     1      32.469  -8.529 -19.636  0.00  0.00    +0.114 C 
ATOM      7  C   UNL     1      31.646 -10.504 -19.460  0.00  0.00    +0.124 C 
ATOM      8  C   UNL     1      33.285  -7.274 -21.892  0.00  0.00    +0.103 C 
ATOM      9  C   UNL     1      33.360  -6.664 -20.513  0.00  0.00    +0.184 C 
ENDROOT
BRANCH   8  11
ATOM     10  F   UNL     1      32.518  -3.863 -25.257  0.00  0.00    -0.204 F 
ATOM     11  C   UNL     1      33.739  -6.493 -23.066  0.00  0.00    +0.019 C 
ATOM     12  C   UNL     1      32.903  -5.526 -23.624  0.00  0.00    +0.031 C 
ATOM     13  C   UNL     1      35.002  -6.723 -23.611  0.00  0.00    +0.002 C 
ATOM     14  C   UNL     1      34.592  -5.020 -25.275  0.00  0.00    +0.081 C 
ATOM     15  C   UNL     1      33.330  -4.790 -24.728  0.00  0.00    +0.144 C 
ATOM     16  C   UNL     1      35.428  -5.987 -24.716  0.00  0.00    +0.007 C 
BRANCH  14  19
ATOM     17  O   UNL     1      34.772  -3.044 -26.525  0.00  0.00    -0.270 OA
ATOM     18  N   UNL     1      35.798  -4.935 -27.387  0.00  0.00    -0.299 N 
ATOM     19  C   UNL     1      35.041  -4.254 -26.427  0.00  0.00    +0.248 C 
ATOM     20  C   UNL     1      36.336  -4.308 -28.573  0.00  0.00    +0.111 C 
ATOM     21  H   UNL     1      35.974  -5.894 -27.248  0.00  0.00    +0.150 HD
ENDBRANCH  14  19
ENDBRANCH   8  11
BRANCH   5  22
ATOM     22  C   UNL     1      31.718 -11.265 -21.981  0.00  0.00    +0.068 C 
BRANCH  22  24
ATOM     23  N   UNL     1      35.251 -15.686 -22.004  0.00  0.00    -0.248 NA
ATOM     24  C   UNL     1      32.649 -12.430 -21.997  0.00  0.00    -0.038 C 
ATOM     25  C   UNL     1      33.001 -13.029 -23.204  0.00  0.00    +0.050 C 
ATOM     26  C   UNL     1      33.877 -14.126 -23.224  0.00  0.00    -0.004 C 
ATOM     27  C   UNL     1      33.170 -12.926 -20.809  0.00  0.00    -0.028 C 
ATOM     28  C   UNL     1      34.410 -14.635 -22.021  0.00  0.00    +0.060 C 
ATOM     29  C   UNL     1      34.041 -14.018 -20.829  0.00  0.00    +0.071 C 
ATOM     30  C   UNL     1      34.249 -14.747 -24.424  0.00  0.00    -0.001 C 
ATOM     31  C   UNL     1      35.116 -15.831 -24.410  0.00  0.00    +0.020 C 
ATOM     32  C   UNL     1      35.585 -16.257 -23.185  0.00  0.00    +0.098 C 
ENDBRANCH  22  24
ENDBRANCH   5  22
TORSDOF 4
ENDMDL
MODEL 9
REMARK VINA RESULT:     -11.1      4.297     12.734
REMARK  Name = 25145656
REMARK  4 active torsions:
REMARK  status: ('A' for Active; 'I' for Inactive)
REMARK    1  A    between atoms: C_5  and  C_22
REMARK    2  A    between atoms: C_8  and  C_11
REMARK    3  A    between atoms: C_14  and  C_19
REMARK    4  A    between atoms: C_22  and  C_24
REMARK                            x       y       z     vdW  Elec       q    Type
REMARK                         _______ _______ _______ _____ _____    ______ ____
ROOT
ATOM      1  N   UNL     1      35.422 -23.590 -15.396  0.00  0.00    -0.134 N 
ATOM      2  N   UNL     1      35.675 -22.774 -16.443  0.00  0.00    -0.168 NA
ATOM      3  N   UNL     1      34.324 -24.924 -14.005  0.00  0.00    -0.178 NA
ATOM      4  N   UNL     1      33.122 -23.940 -15.862  0.00  0.00    -0.200 NA
ATOM      5  C   UNL     1      36.331 -23.988 -14.453  0.00  0.00    +0.086 C 
ATOM      6  C   UNL     1      34.211 -24.178 -15.090  0.00  0.00    +0.114 C 
ATOM      7  C   UNL     1      35.630 -24.810 -13.608  0.00  0.00    +0.124 C 
ATOM      8  C   UNL     1      34.649 -22.552 -17.209  0.00  0.00    +0.103 C 
ATOM      9  C   UNL     1      33.309 -23.160 -16.876  0.00  0.00    +0.184 C 
ENDROOT
BRANCH   8  11
ATOM     10  F   UNL     1      32.679 -20.044 -20.867  0.00  0.00    -0.204 F 
ATOM     11  C   UNL     1      34.787 -21.691 -18.407  0.00  0.00    +0.019 C 
ATOM     12  C   UNL     1      33.650 -21.262 -19.090  0.00  0.00    +0.031 C 
ATOM     13  C   UNL     1      36.054 -21.312 -18.851  0.00  0.00    +0.002 C 
ATOM     14  C   UNL     1      35.045 -20.072 -20.663  0.00  0.00    +0.081 C 
ATOM     15  C   UNL     1      33.779 -20.451 -20.218  0.00  0.00    +0.144 C 
ATOM     16  C   UNL     1      36.182 -20.502 -19.979  0.00  0.00    +0.007 C 
BRANCH  14  19
ATOM     17  O   UNL     1      35.044 -19.701 -22.979  0.00  0.00    -0.270 OA
ATOM     18  N   UNL     1      35.457 -17.871 -21.617  0.00  0.00    -0.299 N 
ATOM     19  C   UNL     1      35.185 -19.226 -21.838  0.00  0.00    +0.248 C 
ATOM     20  C   UNL     1      35.600 -16.901 -22.679  0.00  0.00    +0.111 C 
ATOM     21  H   UNL     1      35.557 -17.561 -20.688  0.00  0.00    +0.150 HD
ENDBRANCH  14  19
ENDBRANCH   8  11
BRANCH   5  22
ATOM     22  C   UNL     1      37.780 -23.544 -14.452  0.00  0.00    +0.068 C 
BRANCH  22  24
ATOM     23  N   UNL     1      41.504 -27.801 -14.638  0.00  0.00    -0.248 NA
ATOM     24  C   UNL     1      38.757 -24.670 -14.509  0.00  0.00    -0.038 C 
ATOM     25  C   UNL     1      38.629 -25.659 -15.480  0.00  0.00    +0.050 C 
ATOM     26  C   UNL     1      39.547 -26.721 -15.538  0.00  0.00    -0.004 C 
ATOM     27  C   UNL     1      39.800 -24.739 -13.593  0.00  0.00    -0.028 C 
ATOM     28  C   UNL     1      40.608 -26.798 -14.611  0.00  0.00    +0.060 C 
ATOM     29  C   UNL     1      40.712 -25.795 -13.651  0.00  0.00    +0.071 C 
ATOM     30  C   UNL     1      39.442 -27.729 -16.505  0.00  0.00    -0.001 C 
ATOM     31  C   UNL     1      40.365 -28.766 -16.535  0.00  0.00    +0.020 C 
ATOM     32  C   UNL     1      41.368 -28.755 -15.588  0.00  0.00    +0.098 C 
ENDBRANCH  22  24
ENDBRANCH   5  22
TORSDOF 4
ENDMDL
