MODEL 1
REMARK VINA RESULT:     -12.3      0.000      0.000
REMARK  Name = 10200813
REMARK  4 active torsions:
REMARK  status: ('A' for Active; 'I' for Inactive)
REMARK    1  A    between atoms: C_3  and  C_24
REMARK    2  A    between atoms: C_8  and  C_11
REMARK    3  A    between atoms: N_10  and  C_16
REMARK    4  A    between atoms: C_24  and  C_26
REMARK                            x       y       z     vdW  Elec       q    Type
REMARK                         _______ _______ _______ _____ _____    ______ ____
ROOT
ATOM      1  O   UNL     1      35.179 -16.912 -24.506  0.00  0.00    -0.265 OA
ATOM      2  N   UNL     1      34.942 -15.281 -22.830  0.00  0.00    -0.272 N 
ATOM      3  C   UNL     1      33.285 -13.134 -21.812  0.00  0.00    +0.008 C 
ATOM      4  C   UNL     1      33.213 -13.586 -23.279  0.00  0.00    +0.022 C 
ATOM      5  C   UNL     1      33.735 -14.300 -20.919  0.00  0.00    +0.022 C 
ATOM      6  C   UNL     1      34.534 -14.205 -23.731  0.00  0.00    +0.094 C 
ATOM      7  C   UNL     1      35.045 -14.908 -21.416  0.00  0.00    +0.094 C 
ATOM      8  C   UNL     1      35.242 -16.534 -23.343  0.00  0.00    +0.303 C 
ENDROOT
BRANCH   8  11
ATOM      9  O   UNL     1      36.889 -17.552 -22.087  0.00  0.00    -0.265 OA
ATOM     10  N   UNL     1      34.668 -18.351 -21.913  0.00  0.00    -0.277 N 
ATOM     11  C   UNL     1      35.697 -17.550 -22.365  0.00  0.00    +0.303 C 
ATOM     12  H   UNL     1      33.773 -18.163 -22.281  0.00  0.00    +0.155 HD
BRANCH  10  16
ATOM     13  O   UNL     1      32.691 -21.693 -18.968  0.00  0.00    -0.407 OA
ATOM     14  O   UNL     1      32.811 -23.430 -17.446  0.00  0.00    -0.223 OA
ATOM     15  N   UNL     1      34.751 -22.465 -18.302  0.00  0.00    -0.287 N 
ATOM     16  C   UNL     1      34.755 -19.411 -20.981  0.00  0.00    +0.054 C 
ATOM     17  C   UNL     1      33.582 -19.969 -20.486  0.00  0.00    +0.054 C 
ATOM     18  C   UNL     1      36.022 -19.866 -20.590  0.00  0.00    +0.016 C 
ATOM     19  C   UNL     1      33.723 -21.000 -19.582  0.00  0.00    +0.167 A 
ATOM     20  C   UNL     1      34.966 -21.449 -19.194  0.00  0.00    +0.096 A 
ATOM     21  C   UNL     1      36.140 -20.912 -19.673  0.00  0.00    +0.022 C 
ATOM     22  C   UNL     1      33.381 -22.617 -18.162  0.00  0.00    +0.419 A 
ATOM     23  H   UNL     1      35.445 -22.994 -17.843  0.00  0.00    +0.172 HD
ENDBRANCH  10  16
ENDBRANCH   8  11
BRANCH   3  24
ATOM     24  C   UNL     1      31.940 -12.581 -21.348  0.00  0.00    +0.026 C 
BRANCH  24  26
ATOM     25  F   UNL     1      32.346  -7.199 -19.779  0.00  0.00    -0.204 F 
ATOM     26  C   UNL     1      32.048 -11.140 -20.929  0.00  0.00    -0.022 C 
ATOM     27  C   UNL     1      32.188 -10.155 -21.896  0.00  0.00    -0.002 C 
ATOM     28  C   UNL     1      32.007 -10.816 -19.579  0.00  0.00    -0.002 C 
ATOM     29  C   UNL     1      32.288  -8.819 -21.506  0.00  0.00    +0.029 C 
ATOM     30  C   UNL     1      32.108  -9.481 -19.189  0.00  0.00    +0.029 C 
ATOM     31  C   UNL     1      32.248  -8.482 -20.153  0.00  0.00    +0.140 C 
ENDBRANCH  24  26
ENDBRANCH   3  24
TORSDOF 4
ENDMDL
MODEL 2
REMARK VINA RESULT:     -12.3      1.475      1.935
REMARK  Name = 10200813
REMARK  4 active torsions:
REMARK  status: ('A' for Active; 'I' for Inactive)
REMARK    1  A    between atoms: C_3  and  C_24
REMARK    2  A    between atoms: C_8  and  C_11
REMARK    3  A    between atoms: N_10  and  C_16
REMARK    4  A    between atoms: C_24  and  C_26
REMARK                            x       y       z     vdW  Elec       q    Type
REMARK                         _______ _______ _______ _____ _____    ______ ____
ROOT
ATOM      1  O   UNL     1      34.483 -18.140 -24.987  0.00  0.00    -0.265 OA
ATOM      2  N   UNL     1      34.946 -16.203 -23.738  0.00  0.00    -0.272 N 
ATOM      3  C   UNL     1      33.979 -13.590 -22.946  0.00  0.00    +0.008 C 
ATOM      4  C   UNL     1      33.471 -14.291 -24.216  0.00  0.00    +0.022 C 
ATOM      5  C   UNL     1      34.433 -14.630 -21.911  0.00  0.00    +0.022 C 
ATOM      6  C   UNL     1      34.515 -15.260 -24.767  0.00  0.00    +0.094 C 
ATOM      7  C   UNL     1      35.457 -15.594 -22.505  0.00  0.00    +0.094 C 
ATOM      8  C   UNL     1      34.895 -17.567 -23.986  0.00  0.00    +0.303 C 
ENDROOT
BRANCH   8  11
ATOM      9  O   UNL     1      36.613 -18.599 -22.843  0.00  0.00    -0.265 OA
ATOM     10  N   UNL     1      34.387 -18.968 -22.128  0.00  0.00    -0.277 N 
ATOM     11  C   UNL     1      35.400 -18.448 -22.908  0.00  0.00    +0.303 C 
ATOM     12  H   UNL     1      33.470 -18.704 -22.369  0.00  0.00    +0.155 HD
BRANCH  10  16
ATOM     13  O   UNL     1      32.560 -21.848 -18.647  0.00  0.00    -0.407 OA
ATOM     14  O   UNL     1      32.755 -23.277 -16.840  0.00  0.00    -0.223 OA
ATOM     15  N   UNL     1      34.650 -22.366 -17.843  0.00  0.00    -0.287 N 
ATOM     16  C   UNL     1      34.521 -19.840 -21.022  0.00  0.00    +0.054 C 
ATOM     17  C   UNL     1      33.374 -20.370 -20.442  0.00  0.00    +0.054 C 
ATOM     18  C   UNL     1      35.805 -20.141 -20.550  0.00  0.00    +0.016 C 
ATOM     19  C   UNL     1      33.559 -21.214 -19.369  0.00  0.00    +0.167 A 
ATOM     20  C   UNL     1      34.820 -21.513 -18.900  0.00  0.00    +0.096 A 
ATOM     21  C   UNL     1      35.969 -21.000 -19.460  0.00  0.00    +0.022 C 
ATOM     22  C   UNL     1      33.289 -22.571 -17.685  0.00  0.00    +0.419 A 
ATOM     23  H   UNL     1      35.365 -22.762 -17.293  0.00  0.00    +0.172 HD
ENDBRANCH  10  16
ENDBRANCH   8  11
BRANCH   3  24
ATOM     24  C   UNL     1      32.903 -12.677 -22.363  0.00  0.00    +0.026 C 
BRANCH  24  26
ATOM     25  F   UNL     1      33.712  -7.316 -23.845  0.00  0.00    -0.204 F 
ATOM     26  C   UNL     1      33.120 -11.242 -22.759  0.00  0.00    -0.022 C 
ATOM     27  C   UNL     1      32.324 -10.250 -22.201  0.00  0.00    -0.002 C 
ATOM     28  C   UNL     1      34.112 -10.929 -23.679  0.00  0.00    -0.002 C 
ATOM     29  C   UNL     1      32.526  -8.920 -22.569  0.00  0.00    +0.029 C 
ATOM     30  C   UNL     1      34.313  -9.598 -24.046  0.00  0.00    +0.029 C 
ATOM     31  C   UNL     1      33.520  -8.594 -23.491  0.00  0.00    +0.140 C 
ENDBRANCH  24  26
ENDBRANCH   3  24
TORSDOF 4
ENDMDL
MODEL 3
REMARK VINA RESULT:     -12.2      4.819      7.747
REMARK  Name = 10200813
REMARK  4 active torsions:
REMARK  status: ('A' for Active; 'I' for Inactive)
REMARK    1  A    between atoms: C_3  and  C_24
REMARK    2  A    between atoms: C_8  and  C_11
REMARK    3  A    between atoms: N_10  and  C_16
REMARK    4  A    between atoms: C_24  and  C_26
REMARK                            x       y       z     vdW  Elec       q    Type
REMARK                         _______ _______ _______ _____ _____    ______ ____
ROOT
ATOM      1  O   UNL     1      31.988 -21.805 -17.882  0.00  0.00    -0.265 OA
ATOM      2  N   UNL     1      33.864 -21.671 -19.293  0.00  0.00    -0.272 N 
ATOM      3  C   UNL     1      35.511 -19.919 -20.908  0.00  0.00    +0.008 C 
ATOM      4  C   UNL     1      34.060 -19.564 -20.551  0.00  0.00    +0.022 C 
ATOM      5  C   UNL     1      36.117 -20.827 -19.826  0.00  0.00    +0.022 C 
ATOM      6  C   UNL     1      33.229 -20.820 -20.297  0.00  0.00    +0.094 C 
ATOM      7  C   UNL     1      35.247 -22.059 -19.584  0.00  0.00    +0.094 C 
ATOM      8  C   UNL     1      33.140 -22.089 -18.185  0.00  0.00    +0.303 C 
ENDROOT
BRANCH   8  11
ATOM      9  O   UNL     1      33.904 -24.173 -17.556  0.00  0.00    -0.265 OA
ATOM     10  N   UNL     1      34.336 -22.327 -16.139  0.00  0.00    -0.277 N 
ATOM     11  C   UNL     1      33.845 -22.991 -17.245  0.00  0.00    +0.303 C 
ATOM     12  H   UNL     1      34.167 -21.358 -16.099  0.00  0.00    +0.155 HD
BRANCH  10  16
ATOM     13  O   UNL     1      34.615 -24.241 -11.666  0.00  0.00    -0.407 OA
ATOM     14  O   UNL     1      35.768 -25.158  -9.883  0.00  0.00    -0.223 OA
ATOM     15  N   UNL     1      36.893 -24.512 -11.818  0.00  0.00    -0.287 N 
ATOM     16  C   UNL     1      35.053 -22.885 -15.055  0.00  0.00    +0.054 C 
ATOM     17  C   UNL     1      34.358 -23.262 -13.912  0.00  0.00    +0.054 C 
ATOM     18  C   UNL     1      36.441 -23.041 -15.171  0.00  0.00    +0.016 C 
ATOM     19  C   UNL     1      35.104 -23.801 -12.886  0.00  0.00    +0.167 A 
ATOM     20  C   UNL     1      36.468 -23.956 -12.996  0.00  0.00    +0.096 A 
ATOM     21  C   UNL     1      37.177 -23.590 -14.119  0.00  0.00    +0.022 C 
ATOM     22  C   UNL     1      35.779 -24.686 -11.012  0.00  0.00    +0.419 A 
ATOM     23  H   UNL     1      37.821 -24.746 -11.586  0.00  0.00    +0.172 HD
ENDBRANCH  10  16
ENDBRANCH   8  11
BRANCH   3  24
ATOM     24  C   UNL     1      36.350 -18.657 -21.090  0.00  0.00    +0.026 C 
BRANCH  24  26
ATOM     25  F   UNL     1      34.311 -15.384 -25.179  0.00  0.00    -0.204 F 
ATOM     26  C   UNL     1      35.804 -17.781 -22.184  0.00  0.00    -0.022 C 
ATOM     27  C   UNL     1      35.559 -18.325 -23.438  0.00  0.00    -0.002 C 
ATOM     28  C   UNL     1      35.553 -16.440 -21.926  0.00  0.00    -0.002 C 
ATOM     29  C   UNL     1      35.052 -17.513 -24.452  0.00  0.00    +0.029 C 
ATOM     30  C   UNL     1      35.047 -15.628 -22.941  0.00  0.00    +0.029 C 
ATOM     31  C   UNL     1      34.796 -16.165 -24.204  0.00  0.00    +0.140 C 
ENDBRANCH  24  26
ENDBRANCH   3  24
TORSDOF 4
ENDMDL
MODEL 4
REMARK VINA RESULT:     -11.9      4.968      7.972
REMARK  Name = 10200813
REMARK  4 active torsions:
REMARK  status: ('A' for Active; 'I' for Inactive)
REMARK    1  A    between atoms: C_3  and  C_24
REMARK    2  A    between atoms: C_8  and  C_11
REMARK    3  A    between atoms: N_10  and  C_16
REMARK    4  A    between atoms: C_24  and  C_26
REMARK                            x       y       z     vdW  Elec       q    Type
REMARK                         _______ _______ _______ _____ _____    ______ ____
ROOT
ATOM      1  O   UNL     1      31.874 -21.884 -17.784  0.00  0.00    -0.265 OA
ATOM      2  N   UNL     1      33.758 -21.777 -19.187  0.00  0.00    -0.272 N 
ATOM      3  C   UNL     1      35.402 -20.059 -20.840  0.00  0.00    +0.008 C 
ATOM      4  C   UNL     1      33.946 -19.704 -20.503  0.00  0.00    +0.022 C 
ATOM      5  C   UNL     1      36.008 -20.931 -19.730  0.00  0.00    +0.022 C 
ATOM      6  C   UNL     1      33.124 -20.959 -20.219  0.00  0.00    +0.094 C 
ATOM      7  C   UNL     1      35.146 -22.162 -19.459  0.00  0.00    +0.094 C 
ATOM      8  C   UNL     1      33.030 -22.168 -18.073  0.00  0.00    +0.303 C 
ENDROOT
BRANCH   8  11
ATOM      9  O   UNL     1      33.923 -24.199 -17.440  0.00  0.00    -0.265 OA
ATOM     10  N   UNL     1      34.077 -22.373 -15.942  0.00  0.00    -0.277 N 
ATOM     11  C   UNL     1      33.735 -23.038 -17.103  0.00  0.00    +0.303 C 
ATOM     12  H   UNL     1      33.821 -21.423 -15.891  0.00  0.00    +0.155 HD
BRANCH  10  16
ATOM     13  O   UNL     1      38.031 -22.964 -13.157  0.00  0.00    -0.407 OA
ATOM     14  O   UNL     1      39.155 -23.819 -11.325  0.00  0.00    -0.223 OA
ATOM     15  N   UNL     1      36.903 -24.307 -11.671  0.00  0.00    -0.287 N 
ATOM     16  C   UNL     1      34.753 -22.904 -14.819  0.00  0.00    +0.054 C 
ATOM     17  C   UNL     1      36.096 -22.598 -14.637  0.00  0.00    +0.054 C 
ATOM     18  C   UNL     1      34.044 -23.721 -13.928  0.00  0.00    +0.016 C 
ATOM     19  C   UNL     1      36.707 -23.140 -13.527  0.00  0.00    +0.167 A 
ATOM     20  C   UNL     1      36.015 -23.943 -12.647  0.00  0.00    +0.096 A 
ATOM     21  C   UNL     1      34.684 -24.259 -12.809  0.00  0.00    +0.022 C 
ATOM     22  C   UNL     1      38.121 -23.720 -11.973  0.00  0.00    +0.419 A 
ATOM     23  H   UNL     1      36.712 -24.882 -10.895  0.00  0.00    +0.172 HD
ENDBRANCH  10  16
ENDBRANCH   8  11
BRANCH   3  24
ATOM     24  C   UNL     1      36.233 -18.795 -21.053  0.00  0.00    +0.026 C 
BRANCH  24  26
ATOM     25  F   UNL     1      34.265 -15.712 -25.320  0.00  0.00    -0.204 F 
ATOM     26  C   UNL     1      35.706 -17.971 -22.195  0.00  0.00    -0.022 C 
ATOM     27  C   UNL     1      35.386 -18.590 -23.396  0.00  0.00    -0.002 C 
ATOM     28  C   UNL     1      35.547 -16.601 -22.033  0.00  0.00    -0.002 C 
ATOM     29  C   UNL     1      34.897 -17.824 -24.454  0.00  0.00    +0.029 C 
ATOM     30  C   UNL     1      35.058 -15.835 -23.092  0.00  0.00    +0.029 C 
ATOM     31  C   UNL     1      34.733 -16.447 -24.302  0.00  0.00    +0.140 C 
ENDBRANCH  24  26
ENDBRANCH   3  24
TORSDOF 4
ENDMDL
MODEL 5
REMARK VINA RESULT:     -11.5      5.049     10.673
REMARK  Name = 10200813
REMARK  4 active torsions:
REMARK  status: ('A' for Active; 'I' for Inactive)
REMARK    1  A    between atoms: C_3  and  C_24
REMARK    2  A    between atoms: C_8  and  C_11
REMARK    3  A    between atoms: N_10  and  C_16
REMARK    4  A    between atoms: C_24  and  C_26
REMARK                            x       y       z     vdW  Elec       q    Type
REMARK                         _______ _______ _______ _____ _____    ______ ____
ROOT
ATOM      1  O   UNL     1      34.123 -13.349 -25.929  0.00  0.00    -0.265 OA
ATOM      2  N   UNL     1      34.131 -14.746 -24.038  0.00  0.00    -0.272 N 
ATOM      3  C   UNL     1      35.199 -17.173 -22.873  0.00  0.00    +0.008 C 
ATOM      4  C   UNL     1      35.156 -16.956 -24.394  0.00  0.00    +0.022 C 
ATOM      5  C   UNL     1      35.286 -15.822 -22.146  0.00  0.00    +0.022 C 
ATOM      6  C   UNL     1      34.031 -15.999 -24.783  0.00  0.00    +0.094 C 
ATOM      7  C   UNL     1      34.160 -14.886 -22.579  0.00  0.00    +0.094 C 
ATOM      8  C   UNL     1      34.145 -13.537 -24.719  0.00  0.00    +0.303 C 
ENDROOT
BRANCH   8  11
ATOM      9  O   UNL     1      34.232 -12.478 -22.671  0.00  0.00    -0.265 OA
ATOM     10  N   UNL     1      34.197 -11.157 -24.634  0.00  0.00    -0.277 N 
ATOM     11  C   UNL     1      34.196 -12.315 -23.884  0.00  0.00    +0.303 C 
ATOM     12  H   UNL     1      34.165 -11.270 -25.613  0.00  0.00    +0.155 HD
BRANCH  10  16
ATOM     13  O   UNL     1      32.230  -7.305 -22.391  0.00  0.00    -0.407 OA
ATOM     14  O   UNL     1      32.278  -5.133 -21.598  0.00  0.00    -0.223 OA
ATOM     15  N   UNL     1      34.125  -6.039 -22.693  0.00  0.00    -0.287 N 
ATOM     16  C   UNL     1      34.239  -9.827 -24.156  0.00  0.00    +0.054 C 
ATOM     17  C   UNL     1      33.124  -9.311 -23.507  0.00  0.00    +0.054 C 
ATOM     18  C   UNL     1      35.406  -9.075 -24.351  0.00  0.00    +0.016 C 
ATOM     19  C   UNL     1      33.218  -8.011 -23.059  0.00  0.00    +0.167 A 
ATOM     20  C   UNL     1      34.362  -7.267 -23.249  0.00  0.00    +0.096 A 
ATOM     21  C   UNL     1      35.478  -7.759 -23.889  0.00  0.00    +0.022 C 
ATOM     22  C   UNL     1      32.840  -6.056 -22.174  0.00  0.00    +0.419 A 
ATOM     23  H   UNL     1      34.753  -5.281 -22.665  0.00  0.00    +0.172 HD
ENDBRANCH  10  16
ENDBRANCH   8  11
BRANCH   3  24
ATOM     24  C   UNL     1      36.370 -18.075 -22.487  0.00  0.00    +0.026 C 
BRANCH  24  26
ATOM     25  F   UNL     1      34.880 -21.847 -18.595  0.00  0.00    -0.204 F 
ATOM     26  C   UNL     1      35.971 -19.083 -21.445  0.00  0.00    -0.022 C 
ATOM     27  C   UNL     1      36.946 -19.654 -20.637  0.00  0.00    -0.002 C 
ATOM     28  C   UNL     1      34.634 -19.432 -21.306  0.00  0.00    -0.002 C 
ATOM     29  C   UNL     1      36.575 -20.590 -19.671  0.00  0.00    +0.029 C 
ATOM     30  C   UNL     1      34.264 -20.367 -20.340  0.00  0.00    +0.029 C 
ATOM     31  C   UNL     1      35.235 -20.947 -19.522  0.00  0.00    +0.140 C 
ENDBRANCH  24  26
ENDBRANCH   3  24
TORSDOF 4
ENDMDL
MODEL 6
REMARK VINA RESULT:     -11.5      5.081     10.091
REMARK  Name = 10200813
REMARK  4 active torsions:
REMARK  status: ('A' for Active; 'I' for Inactive)
REMARK    1  A    between atoms: C_3  and  C_24
REMARK    2  A    between atoms: C_8  and  C_11
REMARK    3  A    between atoms: N_10  and  C_16
REMARK    4  A    between atoms: C_24  and  C_26
REMARK                            x       y       z     vdW  Elec       q    Type
REMARK                         _______ _______ _______ _____ _____    ______ ____
ROOT
ATOM      1  O   UNL     1      33.698 -12.964 -25.949  0.00  0.00    -0.265 OA
ATOM      2  N   UNL     1      33.888 -14.394 -24.093  0.00  0.00    -0.272 N 
ATOM      3  C   UNL     1      35.113 -16.809 -23.062  0.00  0.00    +0.008 C 
ATOM      4  C   UNL     1      34.950 -16.565 -24.570  0.00  0.00    +0.022 C 
ATOM      5  C   UNL     1      35.213 -15.470 -22.315  0.00  0.00    +0.022 C 
ATOM      6  C   UNL     1      33.771 -15.636 -24.855  0.00  0.00    +0.094 C 
ATOM      7  C   UNL     1      34.031 -14.560 -22.644  0.00  0.00    +0.094 C 
ATOM      8  C   UNL     1      33.816 -13.174 -24.748  0.00  0.00    +0.303 C 
ENDROOT
BRANCH   8  11
ATOM      9  O   UNL     1      34.873 -11.249 -24.040  0.00  0.00    -0.265 OA
ATOM     10  N   UNL     1      32.809 -11.844 -23.047  0.00  0.00    -0.277 N 
ATOM     11  C   UNL     1      33.892 -11.966 -23.893  0.00  0.00    +0.303 C 
ATOM     12  H   UNL     1      32.127 -12.553 -23.104  0.00  0.00    +0.155 HD
BRANCH  10  16
ATOM     13  O   UNL     1      32.619  -7.161 -21.716  0.00  0.00    -0.407 OA
ATOM     14  O   UNL     1      32.230  -5.463 -20.194  0.00  0.00    -0.223 OA
ATOM     15  N   UNL     1      31.942  -7.693 -19.585  0.00  0.00    -0.287 N 
ATOM     16  C   UNL     1      32.570 -10.816 -22.106  0.00  0.00    +0.054 C 
ATOM     17  C   UNL     1      32.750  -9.494 -22.495  0.00  0.00    +0.054 C 
ATOM     18  C   UNL     1      32.158 -11.165 -20.813  0.00  0.00    +0.016 C 
ATOM     19  C   UNL     1      32.502  -8.531 -21.541  0.00  0.00    +0.167 A 
ATOM     20  C   UNL     1      32.097  -8.869 -20.269  0.00  0.00    +0.096 A 
ATOM     21  C   UNL     1      31.912 -10.172 -19.862  0.00  0.00    +0.022 C 
ATOM     22  C   UNL     1      32.255  -6.659 -20.452  0.00  0.00    +0.419 A 
ATOM     23  H   UNL     1      31.658  -7.598 -18.646  0.00  0.00    +0.172 HD
ENDBRANCH  10  16
ENDBRANCH   8  11
BRANCH   3  24
ATOM     24  C   UNL     1      36.335 -17.680 -22.782  0.00  0.00    +0.026 C 
BRANCH  24  26
ATOM     25  F   UNL     1      35.250 -21.575 -18.878  0.00  0.00    -0.204 F 
ATOM     26  C   UNL     1      36.044 -18.723 -21.738  0.00  0.00    -0.022 C 
ATOM     27  C   UNL     1      34.748 -19.194 -21.583  0.00  0.00    -0.002 C 
ATOM     28  C   UNL     1      37.077 -19.199 -20.941  0.00  0.00    -0.002 C 
ATOM     29  C   UNL     1      34.479 -20.161 -20.614  0.00  0.00    +0.029 C 
ATOM     30  C   UNL     1      36.808 -20.166 -19.972  0.00  0.00    +0.029 C 
ATOM     31  C   UNL     1      35.509 -20.647 -19.809  0.00  0.00    +0.140 C 
ENDBRANCH  24  26
ENDBRANCH   3  24
TORSDOF 4
ENDMDL
MODEL 7
REMARK VINA RESULT:     -11.2      4.134      6.797
REMARK  Name = 10200813
REMARK  4 active torsions:
REMARK  status: ('A' for Active; 'I' for Inactive)
REMARK    1  A    between atoms: C_3  and  C_24
REMARK    2  A    between atoms: C_8  and  C_11
REMARK    3  A    between atoms: N_10  and  C_16
REMARK    4  A    between atoms: C_24  and  C_26
REMARK                            x       y       z     vdW  Elec       q    Type
REMARK                         _______ _______ _______ _____ _____    ______ ____
ROOT
ATOM      1  O   UNL     1      32.040 -10.981 -19.482  0.00  0.00    -0.265 OA
ATOM      2  N   UNL     1      32.265  -9.749 -21.471  0.00  0.00    -0.272 N 
ATOM      3  C   UNL     1      33.369  -7.360 -22.683  0.00  0.00    +0.008 C 
ATOM      4  C   UNL     1      33.104  -7.453 -21.172  0.00  0.00    +0.022 C 
ATOM      5  C   UNL     1      33.639  -8.758 -23.261  0.00  0.00    +0.022 C 
ATOM      6  C   UNL     1      31.985  -8.447 -20.868  0.00  0.00    +0.094 C 
ATOM      7  C   UNL     1      32.512  -9.729 -22.916  0.00  0.00    +0.094 C 
ATOM      8  C   UNL     1      32.239 -10.893 -20.687  0.00  0.00    +0.303 C 
ENDROOT
BRANCH   8  11
ATOM      9  O   UNL     1      31.538 -12.657 -21.999  0.00  0.00    -0.265 OA
ATOM     10  N   UNL     1      33.779 -12.625 -21.239  0.00  0.00    -0.277 N 
ATOM     11  C   UNL     1      32.483 -12.174 -21.390  0.00  0.00    +0.303 C 
ATOM     12  H   UNL     1      34.378 -12.061 -20.696  0.00  0.00    +0.155 HD
BRANCH  10  16
ATOM     13  O   UNL     1      35.569 -17.138 -20.822  0.00  0.00    -0.407 OA
ATOM     14  O   UNL     1      36.487 -19.080 -21.678  0.00  0.00    -0.223 OA
ATOM     15  N   UNL     1      35.960 -17.296 -23.081  0.00  0.00    -0.287 N 
ATOM     16  C   UNL     1      34.341 -13.806 -21.775  0.00  0.00    +0.054 C 
ATOM     17  C   UNL     1      34.647 -14.855 -20.916  0.00  0.00    +0.054 C 
ATOM     18  C   UNL     1      34.570 -13.879 -23.156  0.00  0.00    +0.016 C 
ATOM     19  C   UNL     1      35.192 -15.983 -21.490  0.00  0.00    +0.167 A 
ATOM     20  C   UNL     1      35.420 -16.060 -22.847  0.00  0.00    +0.096 A 
ATOM     21  C   UNL     1      35.124 -15.033 -23.715  0.00  0.00    +0.022 C 
ATOM     22  C   UNL     1      36.052 -17.950 -21.864  0.00  0.00    +0.419 A 
ATOM     23  H   UNL     1      36.233 -17.656 -23.957  0.00  0.00    +0.172 HD
ENDBRANCH  10  16
ENDBRANCH   8  11
BRANCH   3  24
ATOM     24  C   UNL     1      34.536  -6.418 -22.972  0.00  0.00    +0.026 C 
BRANCH  24  26
ATOM     25  F   UNL     1      33.837  -3.691 -27.837  0.00  0.00    -0.204 F 
ATOM     26  C   UNL     1      34.349  -5.689 -24.274  0.00  0.00    -0.022 C 
ATOM     27  C   UNL     1      35.395  -5.635 -25.185  0.00  0.00    -0.002 C 
ATOM     28  C   UNL     1      33.132  -5.078 -24.548  0.00  0.00    -0.002 C 
ATOM     29  C   UNL     1      35.221  -4.959 -26.392  0.00  0.00    +0.029 C 
ATOM     30  C   UNL     1      32.958  -4.401 -25.755  0.00  0.00    +0.029 C 
ATOM     31  C   UNL     1      34.003  -4.342 -26.677  0.00  0.00    +0.140 C 
ENDBRANCH  24  26
ENDBRANCH   3  24
TORSDOF 4
ENDMDL
MODEL 8
REMARK VINA RESULT:     -11.1      4.140      6.390
REMARK  Name = 10200813
REMARK  4 active torsions:
REMARK  status: ('A' for Active; 'I' for Inactive)
REMARK    1  A    between atoms: C_3  and  C_24
REMARK    2  A    between atoms: C_8  and  C_11
REMARK    3  A    between atoms: N_10  and  C_16
REMARK    4  A    between atoms: C_24  and  C_26
REMARK                            x       y       z     vdW  Elec       q    Type
REMARK                         _______ _______ _______ _____ _____    ______ ____
ROOT
ATOM      1  O   UNL     1      36.858 -22.207 -18.897  0.00  0.00    -0.265 OA
ATOM      2  N   UNL     1      35.585 -20.470 -19.841  0.00  0.00    -0.272 N 
ATOM      3  C   UNL     1      35.325 -18.654 -22.082  0.00  0.00    +0.008 C 
ATOM      4  C   UNL     1      36.671 -19.299 -21.715  0.00  0.00    +0.022 C 
ATOM      5  C   UNL     1      34.164 -19.555 -21.634  0.00  0.00    +0.022 C 
ATOM      6  C   UNL     1      36.729 -19.647 -20.229  0.00  0.00    +0.094 C 
ATOM      7  C   UNL     1      34.270 -19.901 -20.151  0.00  0.00    +0.094 C 
ATOM      8  C   UNL     1      35.793 -21.675 -19.186  0.00  0.00    +0.303 C 
ENDROOT
BRANCH   8  11
ATOM      9  O   UNL     1      34.135 -23.228 -19.588  0.00  0.00    -0.265 OA
ATOM     10  N   UNL     1      34.132 -22.069 -17.525  0.00  0.00    -0.277 N 
ATOM     11  C   UNL     1      34.578 -22.419 -18.783  0.00  0.00    +0.303 C 
ATOM     12  H   UNL     1      34.656 -21.384 -17.050  0.00  0.00    +0.155 HD
BRANCH  10  16
ATOM     13  O   UNL     1      29.335 -22.404 -16.730  0.00  0.00    -0.407 OA
ATOM     14  O   UNL     1      27.480 -23.237 -15.629  0.00  0.00    -0.223 OA
ATOM     15  N   UNL     1      29.625 -23.926 -15.031  0.00  0.00    -0.287 N 
ATOM     16  C   UNL     1      33.006 -22.585 -16.841  0.00  0.00    +0.054 C 
ATOM     17  C   UNL     1      31.738 -22.157 -17.217  0.00  0.00    +0.054 C 
ATOM     18  C   UNL     1      33.207 -23.512 -15.809  0.00  0.00    +0.016 C 
ATOM     19  C   UNL     1      30.675 -22.691 -16.520  0.00  0.00    +0.167 A 
ATOM     20  C   UNL     1      30.868 -23.602 -15.505  0.00  0.00    +0.096 A 
ATOM     21  C   UNL     1      32.115 -24.040 -15.117  0.00  0.00    +0.022 C 
ATOM     22  C   UNL     1      28.697 -23.206 -15.767  0.00  0.00    +0.419 A 
ATOM     23  H   UNL     1      29.425 -24.556 -14.301  0.00  0.00    +0.172 HD
ENDBRANCH  10  16
ENDBRANCH   8  11
BRANCH   3  24
ATOM     24  C   UNL     1      35.249 -18.373 -23.581  0.00  0.00    +0.026 C 
BRANCH  24  26
ATOM     25  F   UNL     1      33.750 -13.057 -24.620  0.00  0.00    -0.204 F 
ATOM     26  C   UNL     1      34.847 -16.951 -23.859  0.00  0.00    -0.022 C 
ATOM     27  C   UNL     1      34.020 -16.672 -24.939  0.00  0.00    -0.002 C 
ATOM     28  C   UNL     1      35.310 -15.936 -23.033  0.00  0.00    -0.002 C 
ATOM     29  C   UNL     1      33.648 -15.352 -25.196  0.00  0.00    +0.029 C 
ATOM     30  C   UNL     1      34.938 -14.616 -23.290  0.00  0.00    +0.029 C 
ATOM     31  C   UNL     1      34.107 -14.325 -24.372  0.00  0.00    +0.140 C 
ENDBRANCH  24  26
ENDBRANCH   3  24
TORSDOF 4
ENDMDL
MODEL 9
REMARK VINA RESULT:     -11.1      2.580      4.277
REMARK  Name = 10200813
REMARK  4 active torsions:
REMARK  status: ('A' for Active; 'I' for Inactive)
REMARK    1  A    between atoms: C_3  and  C_24
REMARK    2  A    between atoms: C_8  and  C_11
REMARK    3  A    between atoms: N_10  and  C_16
REMARK    4  A    between atoms: C_24  and  C_26
REMARK                            x       y       z     vdW  Elec       q    Type
REMARK                         _______ _______ _______ _____ _____    ______ ____
ROOT
ATOM      1  O   UNL     1      34.091 -12.835 -26.859  0.00  0.00    -0.265 OA
ATOM      2  N   UNL     1      34.022 -12.224 -24.591  0.00  0.00    -0.272 N 
ATOM      3  C   UNL     1      32.963 -10.340 -22.662  0.00  0.00    +0.008 C 
ATOM      4  C   UNL     1      33.082  -9.991 -24.153  0.00  0.00    +0.022 C 
ATOM      5  C   UNL     1      32.798 -11.858 -22.483  0.00  0.00    +0.022 C 
ATOM      6  C   UNL     1      34.198 -10.792 -24.821  0.00  0.00    +0.094 C 
ATOM      7  C   UNL     1      33.917 -12.624 -23.184  0.00  0.00    +0.094 C 
ATOM      8  C   UNL     1      34.009 -13.100 -25.666  0.00  0.00    +0.303 C 
ENDROOT
BRANCH   8  11
ATOM      9  O   UNL     1      33.037 -15.171 -25.964  0.00  0.00    -0.265 OA
ATOM     10  N   UNL     1      34.755 -14.942 -24.353  0.00  0.00    -0.277 N 
ATOM     11  C   UNL     1      33.878 -14.538 -25.339  0.00  0.00    +0.303 C 
ATOM     12  H   UNL     1      35.352 -14.248 -23.988  0.00  0.00    +0.155 HD
BRANCH  10  16
ATOM     13  O   UNL     1      35.968 -18.025 -20.780  0.00  0.00    -0.407 OA
ATOM     14  O   UNL     1      36.197 -20.138 -19.868  0.00  0.00    -0.223 OA
ATOM     15  N   UNL     1      35.371 -19.860 -22.029  0.00  0.00    -0.287 N 
ATOM     16  C   UNL     1      34.892 -16.240 -23.808  0.00  0.00    +0.054 C 
ATOM     17  C   UNL     1      35.388 -16.378 -22.517  0.00  0.00    +0.054 C 
ATOM     18  C   UNL     1      34.521 -17.343 -24.588  0.00  0.00    +0.016 C 
ATOM     19  C   UNL     1      35.500 -17.663 -22.033  0.00  0.00    +0.167 A 
ATOM     20  C   UNL     1      35.137 -18.751 -22.797  0.00  0.00    +0.096 A 
ATOM     21  C   UNL     1      34.643 -18.637 -24.077  0.00  0.00    +0.022 C 
ATOM     22  C   UNL     1      35.872 -19.429 -20.811  0.00  0.00    +0.419 A 
ATOM     23  H   UNL     1      35.211 -20.796 -22.293  0.00  0.00    +0.172 HD
ENDBRANCH  10  16
ENDBRANCH   8  11
BRANCH   3  24
ATOM     24  C   UNL     1      31.800  -9.588 -22.019  0.00  0.00    +0.026 C 
BRANCH  24  26
ATOM     25  F   UNL     1      32.610  -4.027 -22.139  0.00  0.00    -0.204 F 
ATOM     26  C   UNL     1      32.018  -8.100 -22.051  0.00  0.00    -0.022 C 
ATOM     27  C   UNL     1      32.965  -7.528 -21.214  0.00  0.00    -0.002 C 
ATOM     28  C   UNL     1      31.266  -7.318 -22.918  0.00  0.00    -0.002 C 
ATOM     29  C   UNL     1      33.166  -6.148 -21.244  0.00  0.00    +0.029 C 
ATOM     30  C   UNL     1      31.467  -5.938 -22.949  0.00  0.00    +0.029 C 
ATOM     31  C   UNL     1      32.417  -5.353 -22.112  0.00  0.00    +0.140 C 
ENDBRANCH  24  26
ENDBRANCH   3  24
TORSDOF 4
ENDMDL
