MODEL 1
REMARK VINA RESULT:     -11.2      0.000      0.000
REMARK  Name = 4565
REMARK  4 active torsions:
REMARK  status: ('A' for Active; 'I' for Inactive)
REMARK    1  A    between atoms: N_5  and  C_15
REMARK    2  A    between atoms: C_6  and  O_21
REMARK    3  A    between atoms: O_21  and  C_22
REMARK    4  A    between atoms: C_22  and  C_23
REMARK                            x       y       z     vdW  Elec       q    Type
REMARK                         _______ _______ _______ _____ _____    ______ ____
ROOT
ATOM      1  N   UNL     1      32.875 -23.201 -15.675  0.00  0.00    -0.293 NA
ATOM      2  N   UNL     1      29.493 -22.434 -16.900  0.00  0.00    -0.266 NA
ATOM      3  N   UNL     1      31.090 -23.817 -14.129  0.00  0.00    -0.316 NA
ATOM      4  N   UNL     1      28.860 -23.304 -14.948  0.00  0.00    -0.296 N 
ATOM      5  N   UNL     1      33.339 -24.192 -13.604  0.00  0.00    -0.238 N 
ATOM      6  C   UNL     1      31.988 -22.729 -16.577  0.00  0.00    +0.288 C 
ATOM      7  C   UNL     1      30.646 -22.797 -16.264  0.00  0.00    +0.215 C 
ATOM      8  C   UNL     1      30.227 -23.335 -15.055  0.00  0.00    +0.196 C 
ATOM      9  C   UNL     1      32.378 -23.709 -14.521  0.00  0.00    +0.207 C 
ATOM     10  C   UNL     1      28.450 -22.758 -16.073  0.00  0.00    +0.164 C 
ATOM     11  H   UNL     1      29.424 -22.016 -17.789  0.00  0.00    +0.126 HD
ATOM     12  H   UNL     1      28.308 -23.622 -14.197  0.00  0.00    +0.150 HD
ATOM     13  H   UNL     1      32.950 -24.556 -12.776  0.00  0.00    +0.166 HD
ENDROOT
BRANCH   5  15
ATOM     14 CL   UNL     1      37.830 -22.767 -11.573  0.00  0.00    -0.082 Cl
ATOM     15  C   UNL     1      34.744 -24.255 -13.644  0.00  0.00    +0.059 C 
ATOM     16  C   UNL     1      35.504 -23.560 -12.699  0.00  0.00    +0.027 C 
ATOM     17  C   UNL     1      35.385 -25.012 -14.628  0.00  0.00    +0.015 C 
ATOM     18  C   UNL     1      36.896 -23.624 -12.739  0.00  0.00    +0.059 C 
ATOM     19  C   UNL     1      36.778 -25.075 -14.666  0.00  0.00    +0.002 C 
ATOM     20  C   UNL     1      37.534 -24.380 -13.721  0.00  0.00    +0.011 C 
ENDBRANCH   5  15
BRANCH   6  21
ATOM     21  O   UNL     1      32.458 -22.207 -17.758  0.00  0.00    -0.453 OA
BRANCH  21  22
ATOM     22  C   UNL     1      33.798 -22.504 -18.104  0.00  0.00    +0.208 C 
BRANCH  22  23
ATOM     23  C   UNL     1      34.142 -21.759 -19.392  0.00  0.00    +0.044 C 
ATOM     24  C   UNL     1      33.105 -20.663 -19.678  0.00  0.00    +0.004 C 
ATOM     25  C   UNL     1      35.555 -21.167 -19.314  0.00  0.00    +0.004 C 
ATOM     26  C   UNL     1      33.457 -19.868 -20.933  0.00  0.00    +0.000 C 
ATOM     27  C   UNL     1      35.902 -20.370 -20.570  0.00  0.00    +0.000 C 
ATOM     28  C   UNL     1      34.865 -19.288 -20.856  0.00  0.00    +0.000 C 
ENDBRANCH  22  23
ENDBRANCH  21  22
ENDBRANCH   6  21
TORSDOF 4
ENDMDL
MODEL 2
REMARK VINA RESULT:     -10.6      2.789      6.500
REMARK  Name = 4565
REMARK  4 active torsions:
REMARK  status: ('A' for Active; 'I' for Inactive)
REMARK    1  A    between atoms: N_5  and  C_15
REMARK    2  A    between atoms: C_6  and  O_21
REMARK    3  A    between atoms: O_21  and  C_22
REMARK    4  A    between atoms: C_22  and  C_23
REMARK                            x       y       z     vdW  Elec       q    Type
REMARK                         _______ _______ _______ _____ _____    ______ ____
ROOT
ATOM      1  N   UNL     1      33.598 -22.862 -16.501  0.00  0.00    -0.293 NA
ATOM      2  N   UNL     1      31.730 -24.541 -13.816  0.00  0.00    -0.266 NA
ATOM      3  N   UNL     1      31.178 -22.859 -16.816  0.00  0.00    -0.316 NA
ATOM      4  N   UNL     1      29.954 -23.972 -15.036  0.00  0.00    -0.296 N 
ATOM      5  N   UNL     1      32.610 -21.859 -18.373  0.00  0.00    -0.238 N 
ATOM      6  C   UNL     1      33.488 -23.538 -15.338  0.00  0.00    +0.288 C 
ATOM      7  C   UNL     1      32.224 -23.881 -14.904  0.00  0.00    +0.215 C 
ATOM      8  C   UNL     1      31.102 -23.537 -15.646  0.00  0.00    +0.196 C 
ATOM      9  C   UNL     1      32.451 -22.567 -17.160  0.00  0.00    +0.207 C 
ATOM     10  C   UNL     1      30.366 -24.571 -13.939  0.00  0.00    +0.164 C 
ATOM     11  H   UNL     1      32.257 -24.926 -13.078  0.00  0.00    +0.126 HD
ATOM     12  H   UNL     1      29.027 -23.861 -15.349  0.00  0.00    +0.150 HD
ATOM     13  H   UNL     1      31.761 -21.659 -18.831  0.00  0.00    +0.166 HD
ENDROOT
BRANCH   5  15
ATOM     14 CL   UNL     1      34.547 -18.896 -22.088  0.00  0.00    -0.082 Cl
ATOM     15  C   UNL     1      33.745 -21.385 -19.056  0.00  0.00    +0.059 C 
ATOM     16  C   UNL     1      33.602 -20.481 -20.112  0.00  0.00    +0.027 C 
ATOM     17  C   UNL     1      35.020 -21.815 -18.681  0.00  0.00    +0.015 C 
ATOM     18  C   UNL     1      34.727 -20.011 -20.787  0.00  0.00    +0.059 C 
ATOM     19  C   UNL     1      36.145 -21.344 -19.357  0.00  0.00    +0.002 C 
ATOM     20  C   UNL     1      35.999 -20.441 -20.411  0.00  0.00    +0.011 C 
ENDBRANCH   5  15
BRANCH   6  21
ATOM     21  O   UNL     1      34.631 -23.852 -14.644  0.00  0.00    -0.453 OA
BRANCH  21  22
ATOM     22  C   UNL     1      35.861 -23.442 -15.211  0.00  0.00    +0.208 C 
BRANCH  22  23
ATOM     23  C   UNL     1      36.997 -24.132 -14.458  0.00  0.00    +0.044 C 
ATOM     24  C   UNL     1      37.131 -23.562 -13.039  0.00  0.00    +0.004 C 
ATOM     25  C   UNL     1      36.776 -25.650 -14.418  0.00  0.00    +0.004 C 
ATOM     26  C   UNL     1      38.225 -24.273 -12.247  0.00  0.00    +0.000 C 
ATOM     27  C   UNL     1      37.872 -26.357 -13.623  0.00  0.00    +0.000 C 
ATOM     28  C   UNL     1      38.008 -25.782 -12.216  0.00  0.00    +0.000 C 
ENDBRANCH  22  23
ENDBRANCH  21  22
ENDBRANCH   6  21
TORSDOF 4
ENDMDL
MODEL 3
REMARK VINA RESULT:     -10.4      3.282      7.017
REMARK  Name = 4565
REMARK  4 active torsions:
REMARK  status: ('A' for Active; 'I' for Inactive)
REMARK    1  A    between atoms: N_5  and  C_15
REMARK    2  A    between atoms: C_6  and  O_21
REMARK    3  A    between atoms: O_21  and  C_22
REMARK    4  A    between atoms: C_22  and  C_23
REMARK                            x       y       z     vdW  Elec       q    Type
REMARK                         _______ _______ _______ _____ _____    ______ ____
ROOT
ATOM      1  N   UNL     1      35.497 -23.610 -15.486  0.00  0.00    -0.293 NA
ATOM      2  N   UNL     1      36.441 -25.396 -12.413  0.00  0.00    -0.266 NA
ATOM      3  N   UNL     1      37.811 -23.257 -14.798  0.00  0.00    -0.316 NA
ATOM      4  N   UNL     1      38.424 -24.441 -12.766  0.00  0.00    -0.296 N 
ATOM      5  N   UNL     1      36.943 -22.240 -16.718  0.00  0.00    -0.238 N 
ATOM      6  C   UNL     1      35.263 -24.421 -14.432  0.00  0.00    +0.288 C 
ATOM      7  C   UNL     1      36.300 -24.658 -13.554  0.00  0.00    +0.215 C 
ATOM      8  C   UNL     1      37.544 -24.075 -13.752  0.00  0.00    +0.196 C 
ATOM      9  C   UNL     1      36.741 -23.084 -15.603  0.00  0.00    +0.207 C 
ATOM     10  C   UNL     1      37.730 -25.235 -11.979  0.00  0.00    +0.164 C 
ATOM     11  H   UNL     1      35.745 -25.943 -11.982  0.00  0.00    +0.126 HD
ATOM     12  H   UNL     1      39.366 -24.171 -12.669  0.00  0.00    +0.150 HD
ATOM     13  H   UNL     1      37.855 -21.873 -16.778  0.00  0.00    +0.166 HD
ENDROOT
BRANCH   5  15
ATOM     14 CL   UNL     1      36.346 -19.535 -21.037  0.00  0.00    -0.082 Cl
ATOM     15  C   UNL     1      36.097 -21.822 -17.761  0.00  0.00    +0.059 C 
ATOM     16  C   UNL     1      36.583 -20.983 -18.766  0.00  0.00    +0.027 C 
ATOM     17  C   UNL     1      34.765 -22.243 -17.795  0.00  0.00    +0.015 C 
ATOM     18  C   UNL     1      35.743 -20.569 -19.799  0.00  0.00    +0.059 C 
ATOM     19  C   UNL     1      33.926 -21.830 -18.829  0.00  0.00    +0.002 C 
ATOM     20  C   UNL     1      34.415 -20.992 -19.832  0.00  0.00    +0.011 C 
ENDBRANCH   5  15
BRANCH   6  21
ATOM     21  O   UNL     1      34.013 -24.971 -14.284  0.00  0.00    -0.453 OA
BRANCH  21  22
ATOM     22  C   UNL     1      33.008 -24.143 -13.729  0.00  0.00    +0.208 C 
BRANCH  22  23
ATOM     23  C   UNL     1      31.794 -24.167 -14.655  0.00  0.00    +0.044 C 
ATOM     24  C   UNL     1      30.564 -24.722 -13.923  0.00  0.00    +0.004 C 
ATOM     25  C   UNL     1      31.511 -22.766 -15.213  0.00  0.00    +0.004 C 
ATOM     26  C   UNL     1      29.324 -24.706 -14.813  0.00  0.00    +0.000 C 
ATOM     27  C   UNL     1      30.268 -22.754 -16.101  0.00  0.00    +0.000 C 
ATOM     28  C   UNL     1      29.050 -23.314 -15.372  0.00  0.00    +0.000 C 
ENDBRANCH  22  23
ENDBRANCH  21  22
ENDBRANCH   6  21
TORSDOF 4
ENDMDL
MODEL 4
REMARK VINA RESULT:     -10.4      3.100      6.677
REMARK  Name = 4565
REMARK  4 active torsions:
REMARK  status: ('A' for Active; 'I' for Inactive)
REMARK    1  A    between atoms: N_5  and  C_15
REMARK    2  A    between atoms: C_6  and  O_21
REMARK    3  A    between atoms: O_21  and  C_22
REMARK    4  A    between atoms: C_22  and  C_23
REMARK                            x       y       z     vdW  Elec       q    Type
REMARK                         _______ _______ _______ _____ _____    ______ ____
ROOT
ATOM      1  N   UNL     1      34.483 -23.395 -14.411  0.00  0.00    -0.293 NA
ATOM      2  N   UNL     1      35.180 -24.600 -11.007  0.00  0.00    -0.266 NA
ATOM      3  N   UNL     1      36.854 -23.449 -13.838  0.00  0.00    -0.316 NA
ATOM      4  N   UNL     1      37.303 -24.246 -11.586  0.00  0.00    -0.296 N 
ATOM      5  N   UNL     1      36.125 -22.725 -15.940  0.00  0.00    -0.238 N 
ATOM      6  C   UNL     1      34.135 -23.865 -13.194  0.00  0.00    +0.288 C 
ATOM      7  C   UNL     1      35.142 -24.131 -12.289  0.00  0.00    +0.215 C 
ATOM      8  C   UNL     1      36.472 -23.919 -12.626  0.00  0.00    +0.196 C 
ATOM      9  C   UNL     1      35.804 -23.219 -14.655  0.00  0.00    +0.207 C 
ATOM     10  C   UNL     1      36.496 -24.651 -10.629  0.00  0.00    +0.164 C 
ATOM     11  H   UNL     1      34.405 -24.854 -10.455  0.00  0.00    +0.126 HD
ATOM     12  H   UNL     1      38.286 -24.190 -11.561  0.00  0.00    +0.150 HD
ATOM     13  H   UNL     1      37.092 -22.607 -16.090  0.00  0.00    +0.166 HD
ENDROOT
BRANCH   5  15
ATOM     14 CL   UNL     1      35.796 -20.396 -20.500  0.00  0.00    -0.082 Cl
ATOM     15  C   UNL     1      35.334 -22.369 -17.048  0.00  0.00    +0.059 C 
ATOM     16  C   UNL     1      35.891 -21.643 -18.103  0.00  0.00    +0.027 C 
ATOM     17  C   UNL     1      33.988 -22.742 -17.097  0.00  0.00    +0.015 C 
ATOM     18  C   UNL     1      35.106 -21.291 -19.201  0.00  0.00    +0.059 C 
ATOM     19  C   UNL     1      33.205 -22.390 -18.196  0.00  0.00    +0.002 C 
ATOM     20  C   UNL     1      33.764 -21.665 -19.248  0.00  0.00    +0.011 C 
ENDBRANCH   5  15
BRANCH   6  21
ATOM     21  O   UNL     1      32.803 -24.056 -12.913  0.00  0.00    -0.453 OA
BRANCH  21  22
ATOM     22  C   UNL     1      32.101 -24.978 -13.725  0.00  0.00    +0.208 C 
BRANCH  22  23
ATOM     23  C   UNL     1      30.777 -24.343 -14.146  0.00  0.00    +0.044 C 
ATOM     24  C   UNL     1      30.956 -22.841 -14.410  0.00  0.00    +0.004 C 
ATOM     25  C   UNL     1      30.205 -25.050 -15.382  0.00  0.00    +0.004 C 
ATOM     26  C   UNL     1      29.657 -22.194 -14.883  0.00  0.00    +0.000 C 
ATOM     27  C   UNL     1      28.907 -24.398 -15.854  0.00  0.00    +0.000 C 
ATOM     28  C   UNL     1      29.087 -22.904 -16.106  0.00  0.00    +0.000 C 
ENDBRANCH  22  23
ENDBRANCH  21  22
ENDBRANCH   6  21
TORSDOF 4
ENDMDL
MODEL 5
REMARK VINA RESULT:     -10.4      3.227      7.098
REMARK  Name = 4565
REMARK  4 active torsions:
REMARK  status: ('A' for Active; 'I' for Inactive)
REMARK    1  A    between atoms: N_5  and  C_15
REMARK    2  A    between atoms: C_6  and  O_21
REMARK    3  A    between atoms: O_21  and  C_22
REMARK    4  A    between atoms: C_22  and  C_23
REMARK                            x       y       z     vdW  Elec       q    Type
REMARK                         _______ _______ _______ _____ _____    ______ ____
ROOT
ATOM      1  N   UNL     1      34.893 -22.674 -16.738  0.00  0.00    -0.293 NA
ATOM      2  N   UNL     1      35.499 -24.654 -13.699  0.00  0.00    -0.266 NA
ATOM      3  N   UNL     1      37.248 -22.880 -16.135  0.00  0.00    -0.316 NA
ATOM      4  N   UNL     1      37.637 -24.190 -14.125  0.00  0.00    -0.296 N 
ATOM      5  N   UNL     1      36.576 -21.674 -18.024  0.00  0.00    -0.238 N 
ATOM      6  C   UNL     1      34.512 -23.416 -15.676  0.00  0.00    +0.288 C 
ATOM      7  C   UNL     1      35.495 -23.895 -14.835  0.00  0.00    +0.215 C 
ATOM      8  C   UNL     1      36.834 -23.620 -15.079  0.00  0.00    +0.196 C 
ATOM      9  C   UNL     1      36.220 -22.455 -16.900  0.00  0.00    +0.207 C 
ATOM     10  C   UNL     1      36.804 -24.804 -13.311  0.00  0.00    +0.164 C 
ATOM     11  H   UNL     1      34.709 -25.025 -13.242  0.00  0.00    +0.126 HD
ATOM     12  H   UNL     1      38.619 -24.150 -14.062  0.00  0.00    +0.150 HD
ATOM     13  H   UNL     1      37.546 -21.532 -18.117  0.00  0.00    +0.166 HD
ENDROOT
BRANCH   5  15
ATOM     14 CL   UNL     1      36.440 -18.576 -22.111  0.00  0.00    -0.082 Cl
ATOM     15  C   UNL     1      35.815 -21.061 -19.035  0.00  0.00    +0.059 C 
ATOM     16  C   UNL     1      36.432 -20.219 -19.965  0.00  0.00    +0.027 C 
ATOM     17  C   UNL     1      34.439 -21.291 -19.115  0.00  0.00    +0.015 C 
ATOM     18  C   UNL     1      35.677 -19.612 -20.967  0.00  0.00    +0.059 C 
ATOM     19  C   UNL     1      33.685 -20.684 -20.119  0.00  0.00    +0.002 C 
ATOM     20  C   UNL     1      34.304 -19.844 -21.045  0.00  0.00    +0.011 C 
ENDBRANCH   5  15
BRANCH   6  21
ATOM     21  O   UNL     1      33.174 -23.657 -15.482  0.00  0.00    -0.453 OA
BRANCH  21  22
ATOM     22  C   UNL     1      32.482 -22.782 -14.610  0.00  0.00    +0.208 C 
BRANCH  22  23
ATOM     23  C   UNL     1      30.982 -22.995 -14.800  0.00  0.00    +0.044 C 
ATOM     24  C   UNL     1      30.536 -22.506 -16.186  0.00  0.00    +0.004 C 
ATOM     25  C   UNL     1      30.614 -24.470 -14.597  0.00  0.00    +0.004 C 
ATOM     26  C   UNL     1      29.048 -22.757 -16.420  0.00  0.00    +0.000 C 
ATOM     27  C   UNL     1      29.126 -24.718 -14.835  0.00  0.00    +0.000 C 
ATOM     28  C   UNL     1      28.685 -24.223 -16.209  0.00  0.00    +0.000 C 
ENDBRANCH  22  23
ENDBRANCH  21  22
ENDBRANCH   6  21
TORSDOF 4
ENDMDL
MODEL 6
REMARK VINA RESULT:     -10.0      2.725      5.326
REMARK  Name = 4565
REMARK  4 active torsions:
REMARK  status: ('A' for Active; 'I' for Inactive)
REMARK    1  A    between atoms: N_5  and  C_15
REMARK    2  A    between atoms: C_6  and  O_21
REMARK    3  A    between atoms: O_21  and  C_22
REMARK    4  A    between atoms: C_22  and  C_23
REMARK                            x       y       z     vdW  Elec       q    Type
REMARK                         _______ _______ _______ _____ _____    ______ ____
ROOT
ATOM      1  N   UNL     1      33.714 -23.485 -15.220  0.00  0.00    -0.293 NA
ATOM      2  N   UNL     1      37.321 -22.833 -14.914  0.00  0.00    -0.266 NA
ATOM      3  N   UNL     1      34.603 -23.826 -12.973  0.00  0.00    -0.316 NA
ATOM      4  N   UNL     1      36.987 -23.393 -12.782  0.00  0.00    -0.296 N 
ATOM      5  N   UNL     1      32.339 -24.169 -13.452  0.00  0.00    -0.238 N 
ATOM      6  C   UNL     1      34.930 -23.132 -15.692  0.00  0.00    +0.288 C 
ATOM      7  C   UNL     1      35.990 -23.124 -14.811  0.00  0.00    +0.215 C 
ATOM      8  C   UNL     1      35.808 -23.468 -13.478  0.00  0.00    +0.196 C 
ATOM      9  C   UNL     1      33.627 -23.806 -13.906  0.00  0.00    +0.207 C 
ATOM     10  C   UNL     1      37.876 -23.008 -13.673  0.00  0.00    +0.164 C 
ATOM     11  H   UNL     1      37.795 -22.549 -15.729  0.00  0.00    +0.126 HD
ATOM     12  H   UNL     1      37.136 -23.584 -11.828  0.00  0.00    +0.150 HD
ATOM     13  H   UNL     1      32.305 -24.397 -12.494  0.00  0.00    +0.166 HD
ENDROOT
BRANCH   5  15
ATOM     14 CL   UNL     1      28.374 -21.793 -15.679  0.00  0.00    -0.082 Cl
ATOM     15  C   UNL     1      31.095 -24.269 -14.101  0.00  0.00    +0.059 C 
ATOM     16  C   UNL     1      30.427 -23.115 -14.520  0.00  0.00    +0.027 C 
ATOM     17  C   UNL     1      30.522 -25.522 -14.330  0.00  0.00    +0.015 C 
ATOM     18  C   UNL     1      29.194 -23.216 -15.164  0.00  0.00    +0.059 C 
ATOM     19  C   UNL     1      29.289 -25.622 -14.975  0.00  0.00    +0.002 C 
ATOM     20  C   UNL     1      28.625 -24.468 -15.392  0.00  0.00    +0.011 C 
ENDBRANCH   5  15
BRANCH   6  21
ATOM     21  O   UNL     1      35.053 -22.801 -17.020  0.00  0.00    -0.453 OA
BRANCH  21  22
ATOM     22  C   UNL     1      33.860 -22.722 -17.777  0.00  0.00    +0.208 C 
BRANCH  22  23
ATOM     23  C   UNL     1      34.168 -22.013 -19.094  0.00  0.00    +0.044 C 
ATOM     24  C   UNL     1      33.132 -20.915 -19.374  0.00  0.00    +0.004 C 
ATOM     25  C   UNL     1      35.588 -21.431 -19.077  0.00  0.00    +0.004 C 
ATOM     26  C   UNL     1      33.449 -20.155 -20.660  0.00  0.00    +0.000 C 
ATOM     27  C   UNL     1      35.900 -20.670 -20.364  0.00  0.00    +0.000 C 
ATOM     28  C   UNL     1      34.863 -19.586 -20.643  0.00  0.00    +0.000 C 
ENDBRANCH  22  23
ENDBRANCH  21  22
ENDBRANCH   6  21
TORSDOF 4
ENDMDL
MODEL 7
REMARK VINA RESULT:     -10.0      2.898      5.538
REMARK  Name = 4565
REMARK  4 active torsions:
REMARK  status: ('A' for Active; 'I' for Inactive)
REMARK    1  A    between atoms: N_5  and  C_15
REMARK    2  A    between atoms: C_6  and  O_21
REMARK    3  A    between atoms: O_21  and  C_22
REMARK    4  A    between atoms: C_22  and  C_23
REMARK                            x       y       z     vdW  Elec       q    Type
REMARK                         _______ _______ _______ _____ _____    ______ ____
ROOT
ATOM      1  N   UNL     1      34.880 -23.441 -15.272  0.00  0.00    -0.293 NA
ATOM      2  N   UNL     1      38.543 -23.565 -15.577  0.00  0.00    -0.266 NA
ATOM      3  N   UNL     1      35.990 -24.676 -13.484  0.00  0.00    -0.316 NA
ATOM      4  N   UNL     1      38.410 -24.753 -13.696  0.00  0.00    -0.296 N 
ATOM      5  N   UNL     1      33.663 -24.439 -13.538  0.00  0.00    -0.238 N 
ATOM      6  C   UNL     1      36.060 -23.163 -15.869  0.00  0.00    +0.288 C 
ATOM      7  C   UNL     1      37.212 -23.639 -15.279  0.00  0.00    +0.215 C 
ATOM      8  C   UNL     1      37.155 -24.381 -14.107  0.00  0.00    +0.196 C 
ATOM      9  C   UNL     1      34.918 -24.171 -14.131  0.00  0.00    +0.207 C 
ATOM     10  C   UNL     1      39.220 -24.246 -14.601  0.00  0.00    +0.164 C 
ATOM     11  H   UNL     1      38.943 -23.106 -16.352  0.00  0.00    +0.126 HD
ATOM     12  H   UNL     1      38.650 -25.281 -12.901  0.00  0.00    +0.150 HD
ATOM     13  H   UNL     1      33.720 -24.971 -12.711  0.00  0.00    +0.166 HD
ENDROOT
BRANCH   5  15
ATOM     14 CL   UNL     1      28.821 -25.940 -14.332  0.00  0.00    -0.082 Cl
ATOM     15  C   UNL     1      32.347 -24.095 -13.899  0.00  0.00    +0.059 C 
ATOM     16  C   UNL     1      31.351 -25.074 -13.934  0.00  0.00    +0.027 C 
ATOM     17  C   UNL     1      32.032 -22.774 -14.225  0.00  0.00    +0.015 C 
ATOM     18  C   UNL     1      30.047 -24.732 -14.291  0.00  0.00    +0.059 C 
ATOM     19  C   UNL     1      30.727 -22.433 -14.582  0.00  0.00    +0.002 C 
ATOM     20  C   UNL     1      29.734 -23.412 -14.615  0.00  0.00    +0.011 C 
ENDBRANCH   5  15
BRANCH   6  21
ATOM     21  O   UNL     1      36.058 -22.425 -17.027  0.00  0.00    -0.453 OA
BRANCH  21  22
ATOM     22  C   UNL     1      34.847 -22.378 -17.758  0.00  0.00    +0.208 C 
BRANCH  22  23
ATOM     23  C   UNL     1      35.122 -21.724 -19.111  0.00  0.00    +0.044 C 
ATOM     24  C   UNL     1      33.940 -20.842 -19.537  0.00  0.00    +0.004 C 
ATOM     25  C   UNL     1      36.422 -20.910 -19.064  0.00  0.00    +0.004 C 
ATOM     26  C   UNL     1      34.214 -20.135 -20.862  0.00  0.00    +0.000 C 
ATOM     27  C   UNL     1      36.691 -20.202 -20.390  0.00  0.00    +0.000 C 
ATOM     28  C   UNL     1      35.510 -19.334 -20.815  0.00  0.00    +0.000 C 
ENDBRANCH  22  23
ENDBRANCH  21  22
ENDBRANCH   6  21
TORSDOF 4
ENDMDL
MODEL 8
REMARK VINA RESULT:      -9.9      8.274     11.486
REMARK  Name = 4565
REMARK  4 active torsions:
REMARK  status: ('A' for Active; 'I' for Inactive)
REMARK    1  A    between atoms: N_5  and  C_15
REMARK    2  A    between atoms: C_6  and  O_21
REMARK    3  A    between atoms: O_21  and  C_22
REMARK    4  A    between atoms: C_22  and  C_23
REMARK                            x       y       z     vdW  Elec       q    Type
REMARK                         _______ _______ _______ _____ _____    ______ ____
ROOT
ATOM      1  N   UNL     1      34.566 -15.288 -23.027  0.00  0.00    -0.293 NA
ATOM      2  N   UNL     1      33.435 -12.373 -24.963  0.00  0.00    -0.266 NA
ATOM      3  N   UNL     1      34.256 -15.729 -25.407  0.00  0.00    -0.316 NA
ATOM      4  N   UNL     1      33.507 -13.796 -26.676  0.00  0.00    -0.296 N 
ATOM      5  N   UNL     1      34.971 -17.406 -23.940  0.00  0.00    -0.238 N 
ATOM      6  C   UNL     1      34.193 -13.998 -23.175  0.00  0.00    +0.288 C 
ATOM      7  C   UNL     1      33.849 -13.564 -24.438  0.00  0.00    +0.215 C 
ATOM      8  C   UNL     1      33.886 -14.431 -25.521  0.00  0.00    +0.196 C 
ATOM      9  C   UNL     1      34.575 -16.064 -24.138  0.00  0.00    +0.207 C 
ATOM     10  C   UNL     1      33.243 -12.561 -26.306  0.00  0.00    +0.164 C 
ATOM     11  H   UNL     1      33.298 -11.532 -24.467  0.00  0.00    +0.126 HD
ATOM     12  H   UNL     1      33.447 -14.179 -27.581  0.00  0.00    +0.150 HD
ATOM     13  H   UNL     1      34.968 -17.947 -24.764  0.00  0.00    +0.166 HD
ENDROOT
BRANCH   5  15
ATOM     14 CL   UNL     1      33.688 -20.559 -20.100  0.00  0.00    -0.082 Cl
ATOM     15  C   UNL     1      35.368 -18.122 -22.796  0.00  0.00    +0.059 C 
ATOM     16  C   UNL     1      34.439 -18.896 -22.095  0.00  0.00    +0.027 C 
ATOM     17  C   UNL     1      36.693 -18.062 -22.356  0.00  0.00    +0.015 C 
ATOM     18  C   UNL     1      34.834 -19.606 -20.962  0.00  0.00    +0.059 C 
ATOM     19  C   UNL     1      37.087 -18.773 -21.223  0.00  0.00    +0.002 C 
ATOM     20  C   UNL     1      36.157 -19.545 -20.525  0.00  0.00    +0.011 C 
ENDBRANCH   5  15
BRANCH   6  21
ATOM     21  O   UNL     1      34.173 -13.184 -22.069  0.00  0.00    -0.453 OA
BRANCH  21  22
ATOM     22  C   UNL     1      33.135 -13.397 -21.131  0.00  0.00    +0.208 C 
BRANCH  22  23
ATOM     23  C   UNL     1      32.255 -12.149 -21.090  0.00  0.00    +0.044 C 
ATOM     24  C   UNL     1      32.255 -11.532 -19.684  0.00  0.00    +0.004 C 
ATOM     25  C   UNL     1      32.718 -11.125 -22.136  0.00  0.00    +0.004 C 
ATOM     26  C   UNL     1      31.425 -10.252 -19.631  0.00  0.00    +0.000 C 
ATOM     27  C   UNL     1      31.887  -9.845 -22.077  0.00  0.00    +0.000 C 
ATOM     28  C   UNL     1      31.882  -9.240 -20.677  0.00  0.00    +0.000 C 
ENDBRANCH  22  23
ENDBRANCH  21  22
ENDBRANCH   6  21
TORSDOF 4
ENDMDL
MODEL 9
REMARK VINA RESULT:      -9.7      3.152      6.372
REMARK  Name = 4565
REMARK  4 active torsions:
REMARK  status: ('A' for Active; 'I' for Inactive)
REMARK    1  A    between atoms: N_5  and  C_15
REMARK    2  A    between atoms: C_6  and  O_21
REMARK    3  A    between atoms: O_21  and  C_22
REMARK    4  A    between atoms: C_22  and  C_23
REMARK                            x       y       z     vdW  Elec       q    Type
REMARK                         _______ _______ _______ _____ _____    ______ ____
ROOT
ATOM      1  N   UNL     1      34.363 -22.355 -17.537  0.00  0.00    -0.293 NA
ATOM      2  N   UNL     1      36.053 -20.496 -20.223  0.00  0.00    -0.266 NA
ATOM      3  N   UNL     1      32.844 -21.237 -19.086  0.00  0.00    -0.316 NA
ATOM      4  N   UNL     1      33.971 -20.011 -20.856  0.00  0.00    -0.296 N 
ATOM      5  N   UNL     1      32.039 -22.491 -17.282  0.00  0.00    -0.238 N 
ATOM      6  C   UNL     1      35.446 -21.903 -18.207  0.00  0.00    +0.288 C 
ATOM      7  C   UNL     1      35.237 -21.116 -19.320  0.00  0.00    +0.215 C 
ATOM      8  C   UNL     1      33.950 -20.800 -19.734  0.00  0.00    +0.196 C 
ATOM      9  C   UNL     1      33.145 -21.998 -18.012  0.00  0.00    +0.207 C 
ATOM     10  C   UNL     1      35.249 -19.847 -21.123  0.00  0.00    +0.164 C 
ATOM     11  H   UNL     1      37.038 -20.511 -20.227  0.00  0.00    +0.126 HD
ATOM     12  H   UNL     1      33.202 -19.648 -21.351  0.00  0.00    +0.150 HD
ATOM     13  H   UNL     1      31.167 -22.217 -17.649  0.00  0.00    +0.166 HD
ENDROOT
BRANCH   5  15
ATOM     14 CL   UNL     1      29.133 -25.454 -14.266  0.00  0.00    -0.082 Cl
ATOM     15  C   UNL     1      31.941 -23.296 -16.133  0.00  0.00    +0.059 C 
ATOM     16  C   UNL     1      30.727 -23.906 -15.805  0.00  0.00    +0.027 C 
ATOM     17  C   UNL     1      33.056 -23.491 -15.314  0.00  0.00    +0.015 C 
ATOM     18  C   UNL     1      30.630 -24.705 -14.667  0.00  0.00    +0.059 C 
ATOM     19  C   UNL     1      32.959 -24.291 -14.176  0.00  0.00    +0.002 C 
ATOM     20  C   UNL     1      31.745 -24.898 -13.852  0.00  0.00    +0.011 C 
ENDBRANCH   5  15
BRANCH   6  21
ATOM     21  O   UNL     1      36.696 -22.246 -17.753  0.00  0.00    -0.453 OA
BRANCH  21  22
ATOM     22  C   UNL     1      37.028 -21.863 -16.431  0.00  0.00    +0.208 C 
BRANCH  22  23
ATOM     23  C   UNL     1      37.099 -23.120 -15.566  0.00  0.00    +0.044 C 
ATOM     24  C   UNL     1      38.556 -23.567 -15.380  0.00  0.00    +0.004 C 
ATOM     25  C   UNL     1      36.422 -22.884 -14.210  0.00  0.00    +0.004 C 
ATOM     26  C   UNL     1      38.657 -24.793 -14.474  0.00  0.00    +0.000 C 
ATOM     27  C   UNL     1      36.528 -24.110 -13.306  0.00  0.00    +0.000 C 
ATOM     28  C   UNL     1      37.976 -24.557 -13.130  0.00  0.00    +0.000 C 
ENDBRANCH  22  23
ENDBRANCH  21  22
ENDBRANCH   6  21
TORSDOF 4
ENDMDL
