MODEL 1
REMARK VINA RESULT:     -11.2      0.000      0.000
REMARK  Name = 54766013
REMARK  5 active torsions:
REMARK  status: ('A' for Active; 'I' for Inactive)
REMARK    1  A    between atoms: C_3  and  C_11
REMARK    2  A    between atoms: C_4  and  C_18
REMARK    3  A    between atoms: C_5  and  C_24
REMARK    4  A    between atoms: C_24  and  N_25
REMARK    5  A    between atoms: N_25  and  C_28
REMARK                            x       y       z     vdW  Elec       q    Type
REMARK                         _______ _______ _______ _____ _____    ______ ____
ROOT
ATOM      1  N   UNL     1      37.010 -22.413 -16.664  0.00  0.00    -0.315 N 
ATOM      2  N   UNL     1      34.916 -22.169 -17.363  0.00  0.00    -0.317 N 
ATOM      3  C   UNL     1      34.945 -22.906 -16.206  0.00  0.00    +0.063 C 
ATOM      4  C   UNL     1      36.233 -23.070 -15.753  0.00  0.00    +0.085 C 
ATOM      5  C   UNL     1      36.176 -21.887 -17.612  0.00  0.00    +0.164 C 
ATOM      6  H   UNL     1      37.991 -22.330 -16.642  0.00  0.00    +0.148 HD
ATOM      7  H   UNL     1      34.127 -21.909 -17.891  0.00  0.00    +0.148 HD
ENDROOT
BRANCH   3  11
ATOM      8  N   UNL     1      31.326 -23.604 -15.619  0.00  0.00    -0.170 N 
ATOM      9  N   UNL     1      30.055 -23.427 -16.059  0.00  0.00    -0.150 NA
ATOM     10  N   UNL     1      30.054 -24.669 -14.141  0.00  0.00    -0.206 NA
ATOM     11  C   UNL     1      33.701 -23.417 -15.598  0.00  0.00    +0.031 C 
ATOM     12  C   UNL     1      32.517 -23.138 -16.183  0.00  0.00    +0.092 C 
ATOM     13  C   UNL     1      33.681 -24.211 -14.366  0.00  0.00    +0.006 C 
ATOM     14  C   UNL     1      31.295 -24.364 -14.447  0.00  0.00    +0.157 C 
ATOM     15  C   UNL     1      32.536 -24.661 -13.822  0.00  0.00    +0.036 C 
ATOM     16  C   UNL     1      29.344 -24.081 -15.142  0.00  0.00    +0.219 C 
ENDBRANCH   3  11
BRANCH   4  18
ATOM     17  N   UNL     1      36.831 -23.005 -13.480  0.00  0.00    -0.409 NA
ATOM     18  C   UNL     1      36.780 -23.750 -14.606  0.00  0.00    +0.127 C 
ATOM     19  C   UNL     1      37.206 -25.067 -14.685  0.00  0.00    +0.086 C 
ATOM     20  C   UNL     1      37.336 -23.611 -12.382  0.00  0.00    +0.109 C 
ATOM     21  C   UNL     1      37.718 -25.655 -13.534  0.00  0.00    -0.016 C 
ATOM     22  C   UNL     1      37.788 -24.921 -12.356  0.00  0.00    +0.023 C 
ATOM     23  C   UNL     1      37.397 -22.792 -11.135  0.00  0.00    +0.066 C 
ENDBRANCH   4  18
BRANCH   5  24
ATOM     24  C   UNL     1      36.700 -21.109 -18.749  0.00  0.00    +0.128 C 
BRANCH  24  25
ATOM     25  N   UNL     1      35.626 -20.559 -19.560  0.00  0.00    -0.328 N 
ATOM     26  H   UNL     1      34.699 -20.780 -19.317  0.00  0.00    +0.147 HD
BRANCH  25  28
ATOM     27  F   UNL     1      33.561 -19.926 -21.290  0.00  0.00    -0.203 F 
ATOM     28  C   UNL     1      35.842 -19.745 -20.654  0.00  0.00    +0.073 C 
ATOM     29  C   UNL     1      34.789 -19.437 -21.515  0.00  0.00    +0.153 C 
ATOM     30  C   UNL     1      37.116 -19.231 -20.898  0.00  0.00    +0.017 C 
ATOM     31  C   UNL     1      35.009 -18.615 -22.620  0.00  0.00    +0.031 C 
ATOM     32  C   UNL     1      37.336 -18.409 -22.004  0.00  0.00    +0.001 C 
ATOM     33  C   UNL     1      36.282 -18.100 -22.864  0.00  0.00    +0.002 C 
ENDBRANCH  25  28
ENDBRANCH  24  25
ENDBRANCH   5  24
TORSDOF 5
ENDMDL
MODEL 2
REMARK VINA RESULT:     -11.1      2.934      7.749
REMARK  Name = 54766013
REMARK  5 active torsions:
REMARK  status: ('A' for Active; 'I' for Inactive)
REMARK    1  A    between atoms: C_3  and  C_11
REMARK    2  A    between atoms: C_4  and  C_18
REMARK    3  A    between atoms: C_5  and  C_24
REMARK    4  A    between atoms: C_24  and  N_25
REMARK    5  A    between atoms: N_25  and  C_28
REMARK                            x       y       z     vdW  Elec       q    Type
REMARK                         _______ _______ _______ _____ _____    ______ ____
ROOT
ATOM      1  N   UNL     1      34.136 -23.195 -14.477  0.00  0.00    -0.315 N 
ATOM      2  N   UNL     1      35.009 -24.800 -13.215  0.00  0.00    -0.317 N 
ATOM      3  C   UNL     1      35.947 -24.333 -14.101  0.00  0.00    +0.063 C 
ATOM      4  C   UNL     1      35.429 -23.337 -14.894  0.00  0.00    +0.085 C 
ATOM      5  C   UNL     1      33.929 -24.094 -13.467  0.00  0.00    +0.164 C 
ATOM      6  H   UNL     1      33.474 -22.560 -14.836  0.00  0.00    +0.148 HD
ATOM      7  H   UNL     1      35.120 -25.508 -12.540  0.00  0.00    +0.148 HD
ENDROOT
BRANCH   3  11
ATOM      8  N   UNL     1      38.880 -26.459 -14.998  0.00  0.00    -0.170 N 
ATOM      9  N   UNL     1      39.346 -27.477 -15.765  0.00  0.00    -0.150 NA
ATOM     10  N   UNL     1      41.014 -26.683 -14.420  0.00  0.00    -0.206 NA
ATOM     11  C   UNL     1      37.313 -24.891 -14.127  0.00  0.00    +0.031 C 
ATOM     12  C   UNL     1      37.595 -25.911 -14.964  0.00  0.00    +0.092 C 
ATOM     13  C   UNL     1      38.394 -24.397 -13.269  0.00  0.00    +0.006 C 
ATOM     14  C   UNL     1      39.918 -25.995 -14.187  0.00  0.00    +0.157 C 
ATOM     15  C   UNL     1      39.632 -24.923 -13.300  0.00  0.00    +0.036 C 
ATOM     16  C   UNL     1      40.618 -27.563 -15.378  0.00  0.00    +0.219 C 
ENDBRANCH   3  11
BRANCH   4  18
ATOM     17  N   UNL     1      35.276 -22.524 -17.096  0.00  0.00    -0.409 NA
ATOM     18  C   UNL     1      35.999 -22.543 -15.954  0.00  0.00    +0.127 C 
ATOM     19  C   UNL     1      37.195 -21.864 -15.781  0.00  0.00    +0.086 C 
ATOM     20  C   UNL     1      35.778 -21.787 -18.112  0.00  0.00    +0.109 C 
ATOM     21  C   UNL     1      37.678 -21.116 -16.850  0.00  0.00    -0.016 C 
ATOM     22  C   UNL     1      36.963 -21.072 -18.040  0.00  0.00    +0.023 C 
ATOM     23  C   UNL     1      34.984 -21.763 -19.376  0.00  0.00    +0.066 C 
ENDBRANCH   4  18
BRANCH   5  24
ATOM     24  C   UNL     1      32.625 -24.200 -12.789  0.00  0.00    +0.128 C 
BRANCH  24  25
ATOM     25  N   UNL     1      31.649 -24.894 -13.614  0.00  0.00    -0.328 N 
ATOM     26  H   UNL     1      31.677 -25.877 -13.643  0.00  0.00    +0.147 HD
BRANCH  25  28
ATOM     27  F   UNL     1      30.044 -26.285 -15.389  0.00  0.00    -0.203 F 
ATOM     28  C   UNL     1      30.686 -24.243 -14.359  0.00  0.00    +0.073 C 
ATOM     29  C   UNL     1      29.886 -24.961 -15.249  0.00  0.00    +0.153 C 
ATOM     30  C   UNL     1      30.513 -22.865 -14.222  0.00  0.00    +0.017 C 
ATOM     31  C   UNL     1      28.914 -24.302 -16.001  0.00  0.00    +0.031 C 
ATOM     32  C   UNL     1      29.540 -22.206 -14.974  0.00  0.00    +0.001 C 
ATOM     33  C   UNL     1      28.740 -22.925 -15.863  0.00  0.00    +0.002 C 
ENDBRANCH  25  28
ENDBRANCH  24  25
ENDBRANCH   5  24
TORSDOF 5
ENDMDL
MODEL 3
REMARK VINA RESULT:     -11.1      3.134      6.802
REMARK  Name = 54766013
REMARK  5 active torsions:
REMARK  status: ('A' for Active; 'I' for Inactive)
REMARK    1  A    between atoms: C_3  and  C_11
REMARK    2  A    between atoms: C_4  and  C_18
REMARK    3  A    between atoms: C_5  and  C_24
REMARK    4  A    between atoms: C_24  and  N_25
REMARK    5  A    between atoms: N_25  and  C_28
REMARK                            x       y       z     vdW  Elec       q    Type
REMARK                         _______ _______ _______ _____ _____    ______ ____
ROOT
ATOM      1  N   UNL     1      35.337 -23.401 -14.369  0.00  0.00    -0.315 N 
ATOM      2  N   UNL     1      33.559 -24.051 -13.208  0.00  0.00    -0.317 N 
ATOM      3  C   UNL     1      33.193 -23.731 -14.491  0.00  0.00    +0.063 C 
ATOM      4  C   UNL     1      34.279 -23.325 -15.231  0.00  0.00    +0.085 C 
ATOM      5  C   UNL     1      34.856 -23.841 -13.167  0.00  0.00    +0.164 C 
ATOM      6  H   UNL     1      36.274 -23.181 -14.576  0.00  0.00    +0.148 HD
ATOM      7  H   UNL     1      32.978 -24.367 -12.478  0.00  0.00    +0.148 HD
ENDROOT
BRANCH   3  11
ATOM      8  N   UNL     1      29.890 -22.884 -16.006  0.00  0.00    -0.170 N 
ATOM      9  N   UNL     1      29.156 -21.957 -16.673  0.00  0.00    -0.150 NA
ATOM     10  N   UNL     1      27.889 -23.816 -16.268  0.00  0.00    -0.206 NA
ATOM     11  C   UNL     1      31.788 -23.839 -14.931  0.00  0.00    +0.031 C 
ATOM     12  C   UNL     1      31.221 -22.806 -15.588  0.00  0.00    +0.092 C 
ATOM     13  C   UNL     1      30.960 -25.021 -14.677  0.00  0.00    +0.006 C 
ATOM     14  C   UNL     1      29.092 -24.006 -15.772  0.00  0.00    +0.157 C 
ATOM     15  C   UNL     1      29.679 -25.098 -15.079  0.00  0.00    +0.036 C 
ATOM     16  C   UNL     1      27.979 -22.567 -16.800  0.00  0.00    +0.219 C 
ENDBRANCH   3  11
BRANCH   4  18
ATOM     17  N   UNL     1      35.561 -22.230 -16.870  0.00  0.00    -0.409 NA
ATOM     18  C   UNL     1      34.416 -22.894 -16.599  0.00  0.00    +0.127 C 
ATOM     19  C   UNL     1      33.433 -23.161 -17.539  0.00  0.00    +0.086 C 
ATOM     20  C   UNL     1      35.726 -21.812 -18.145  0.00  0.00    +0.109 C 
ATOM     21  C   UNL     1      33.640 -22.715 -18.840  0.00  0.00    -0.016 C 
ATOM     22  C   UNL     1      34.805 -22.028 -19.157  0.00  0.00    +0.023 C 
ATOM     23  C   UNL     1      36.989 -21.076 -18.449  0.00  0.00    +0.066 C 
ENDBRANCH   4  18
BRANCH   5  24
ATOM     24  C   UNL     1      35.747 -24.035 -12.009  0.00  0.00    +0.128 C 
BRANCH  24  25
ATOM     25  N   UNL     1      36.440 -25.312 -12.075  0.00  0.00    -0.328 N 
ATOM     26  H   UNL     1      36.133 -26.039 -11.487  0.00  0.00    +0.147 HD
BRANCH  25  28
ATOM     27  F   UNL     1      38.891 -24.096 -11.657  0.00  0.00    -0.203 F 
ATOM     28  C   UNL     1      37.505 -25.555 -12.918  0.00  0.00    +0.073 C 
ATOM     29  C   UNL     1      38.733 -24.933 -12.692  0.00  0.00    +0.153 C 
ATOM     30  C   UNL     1      37.352 -26.423 -14.000  0.00  0.00    +0.017 C 
ATOM     31  C   UNL     1      39.808 -25.179 -13.546  0.00  0.00    +0.031 C 
ATOM     32  C   UNL     1      38.427 -26.670 -14.854  0.00  0.00    +0.001 C 
ATOM     33  C   UNL     1      39.655 -26.048 -14.627  0.00  0.00    +0.002 C 
ENDBRANCH  25  28
ENDBRANCH  24  25
ENDBRANCH   5  24
TORSDOF 5
ENDMDL
MODEL 4
REMARK VINA RESULT:     -11.0      1.483      2.164
REMARK  Name = 54766013
REMARK  5 active torsions:
REMARK  status: ('A' for Active; 'I' for Inactive)
REMARK    1  A    between atoms: C_3  and  C_11
REMARK    2  A    between atoms: C_4  and  C_18
REMARK    3  A    between atoms: C_5  and  C_24
REMARK    4  A    between atoms: C_24  and  N_25
REMARK    5  A    between atoms: N_25  and  C_28
REMARK                            x       y       z     vdW  Elec       q    Type
REMARK                         _______ _______ _______ _____ _____    ______ ____
ROOT
ATOM      1  N   UNL     1      35.974 -22.375 -17.337  0.00  0.00    -0.315 N 
ATOM      2  N   UNL     1      33.951 -22.048 -18.193  0.00  0.00    -0.317 N 
ATOM      3  C   UNL     1      33.853 -22.669 -16.973  0.00  0.00    +0.063 C 
ATOM      4  C   UNL     1      35.095 -22.881 -16.423  0.00  0.00    +0.085 C 
ATOM      5  C   UNL     1      35.242 -21.886 -18.383  0.00  0.00    +0.164 C 
ATOM      6  H   UNL     1      36.956 -22.363 -17.258  0.00  0.00    +0.148 HD
ATOM      7  H   UNL     1      33.217 -21.784 -18.794  0.00  0.00    +0.148 HD
ENDROOT
BRANCH   3  11
ATOM      8  N   UNL     1      30.180 -22.705 -16.315  0.00  0.00    -0.170 N 
ATOM      9  N   UNL     1      28.970 -22.179 -16.631  0.00  0.00    -0.150 NA
ATOM     10  N   UNL     1      28.733 -23.766 -15.004  0.00  0.00    -0.206 NA
ATOM     11  C   UNL     1      32.539 -23.024 -16.404  0.00  0.00    +0.031 C 
ATOM     12  C   UNL     1      31.433 -22.389 -16.846  0.00  0.00    +0.092 C 
ATOM     13  C   UNL     1      32.369 -24.037 -15.358  0.00  0.00    +0.006 C 
ATOM     14  C   UNL     1      30.006 -23.669 -15.319  0.00  0.00    +0.157 C 
ATOM     15  C   UNL     1      31.163 -24.342 -14.845  0.00  0.00    +0.036 C 
ATOM     16  C   UNL     1      28.151 -22.848 -15.821  0.00  0.00    +0.219 C 
ENDBRANCH   3  11
BRANCH   4  18
ATOM     17  N   UNL     1      36.201 -24.642 -15.324  0.00  0.00    -0.409 NA
ATOM     18  C   UNL     1      35.518 -23.484 -15.184  0.00  0.00    +0.127 C 
ATOM     19  C   UNL     1      35.234 -22.894 -13.962  0.00  0.00    +0.086 C 
ATOM     20  C   UNL     1      36.616 -25.236 -14.182  0.00  0.00    +0.109 C 
ATOM     21  C   UNL     1      35.679 -23.535 -12.811  0.00  0.00    -0.016 C 
ATOM     22  C   UNL     1      36.384 -24.728 -12.914  0.00  0.00    +0.023 C 
ATOM     23  C   UNL     1      37.370 -26.516 -14.331  0.00  0.00    +0.066 C 
ENDBRANCH   4  18
BRANCH   5  24
ATOM     24  C   UNL     1      35.892 -21.263 -19.551  0.00  0.00    +0.128 C 
BRANCH  24  25
ATOM     25  N   UNL     1      35.250 -20.011 -19.915  0.00  0.00    -0.328 N 
ATOM     26  H   UNL     1      34.642 -19.592 -19.265  0.00  0.00    +0.147 HD
BRANCH  25  28
ATOM     27  F   UNL     1      37.639 -18.733 -20.478  0.00  0.00    -0.203 F 
ATOM     28  C   UNL     1      35.449 -19.380 -21.127  0.00  0.00    +0.073 C 
ATOM     29  C   UNL     1      36.659 -18.741 -21.393  0.00  0.00    +0.153 C 
ATOM     30  C   UNL     1      34.435 -19.381 -22.086  0.00  0.00    +0.017 C 
ATOM     31  C   UNL     1      36.858 -18.104 -22.618  0.00  0.00    +0.031 C 
ATOM     32  C   UNL     1      34.634 -18.744 -23.311  0.00  0.00    +0.001 C 
ATOM     33  C   UNL     1      35.845 -18.106 -23.577  0.00  0.00    +0.002 C 
ENDBRANCH  25  28
ENDBRANCH  24  25
ENDBRANCH   5  24
TORSDOF 5
ENDMDL
MODEL 5
REMARK VINA RESULT:     -10.9      1.392      5.052
REMARK  Name = 54766013
REMARK  5 active torsions:
REMARK  status: ('A' for Active; 'I' for Inactive)
REMARK    1  A    between atoms: C_3  and  C_11
REMARK    2  A    between atoms: C_4  and  C_18
REMARK    3  A    between atoms: C_5  and  C_24
REMARK    4  A    between atoms: C_24  and  N_25
REMARK    5  A    between atoms: N_25  and  C_28
REMARK                            x       y       z     vdW  Elec       q    Type
REMARK                         _______ _______ _______ _____ _____    ______ ____
ROOT
ATOM      1  N   UNL     1      32.850 -22.409 -17.595  0.00  0.00    -0.315 N 
ATOM      2  N   UNL     1      35.070 -22.407 -17.536  0.00  0.00    -0.317 N 
ATOM      3  C   UNL     1      34.569 -23.043 -16.428  0.00  0.00    +0.063 C 
ATOM      4  C   UNL     1      33.194 -23.057 -16.443  0.00  0.00    +0.085 C 
ATOM      5  C   UNL     1      34.009 -22.037 -18.218  0.00  0.00    +0.164 C 
ATOM      6  H   UNL     1      31.936 -22.242 -17.919  0.00  0.00    +0.148 HD
ATOM      7  H   UNL     1      36.016 -22.259 -17.768  0.00  0.00    +0.148 HD
ENDROOT
BRANCH   3  11
ATOM      8  N   UNL     1      36.905 -23.299 -13.529  0.00  0.00    -0.170 N 
ATOM      9  N   UNL     1      37.569 -22.634 -12.550  0.00  0.00    -0.150 NA
ATOM     10  N   UNL     1      38.042 -24.867 -12.439  0.00  0.00    -0.206 NA
ATOM     11  C   UNL     1      35.469 -23.608 -15.403  0.00  0.00    +0.031 C 
ATOM     12  C   UNL     1      36.044 -22.785 -14.502  0.00  0.00    +0.092 C 
ATOM     13  C   UNL     1      35.786 -25.037 -15.319  0.00  0.00    +0.006 C 
ATOM     14  C   UNL     1      37.213 -24.658 -13.438  0.00  0.00    +0.157 C 
ATOM     15  C   UNL     1      36.615 -25.533 -14.384  0.00  0.00    +0.036 C 
ATOM     16  C   UNL     1      38.226 -23.616 -11.936  0.00  0.00    +0.219 C 
ENDBRANCH   3  11
BRANCH   4  18
ATOM     17  N   UNL     1      30.936 -23.475 -15.935  0.00  0.00    -0.409 NA
ATOM     18  C   UNL     1      32.219 -23.592 -15.526  0.00  0.00    +0.127 C 
ATOM     19  C   UNL     1      32.601 -24.179 -14.330  0.00  0.00    +0.086 C 
ATOM     20  C   UNL     1      29.993 -23.968 -15.103  0.00  0.00    +0.109 C 
ATOM     21  C   UNL     1      31.601 -24.675 -13.501  0.00  0.00    -0.016 C 
ATOM     22  C   UNL     1      30.270 -24.573 -13.887  0.00  0.00    +0.023 C 
ATOM     23  C   UNL     1      28.574 -23.840 -15.549  0.00  0.00    +0.066 C 
ENDBRANCH   4  18
BRANCH   5  24
ATOM     24  C   UNL     1      33.992 -21.311 -19.501  0.00  0.00    +0.128 C 
BRANCH  24  25
ATOM     25  N   UNL     1      35.222 -20.565 -19.710  0.00  0.00    -0.328 N 
ATOM     26  H   UNL     1      35.927 -20.629 -19.026  0.00  0.00    +0.147 HD
BRANCH  25  28
ATOM     27  F   UNL     1      37.604 -19.188 -20.004  0.00  0.00    -0.203 F 
ATOM     28  C   UNL     1      35.451 -19.773 -20.816  0.00  0.00    +0.073 C 
ATOM     29  C   UNL     1      36.658 -19.085 -20.948  0.00  0.00    +0.153 C 
ATOM     30  C   UNL     1      34.472 -19.658 -21.805  0.00  0.00    +0.017 C 
ATOM     31  C   UNL     1      36.887 -18.285 -22.066  0.00  0.00    +0.031 C 
ATOM     32  C   UNL     1      34.702 -18.858 -22.924  0.00  0.00    +0.001 C 
ATOM     33  C   UNL     1      35.909 -18.171 -23.055  0.00  0.00    +0.002 C 
ENDBRANCH  25  28
ENDBRANCH  24  25
ENDBRANCH   5  24
TORSDOF 5
ENDMDL
MODEL 6
REMARK VINA RESULT:     -10.7      0.808      1.319
REMARK  Name = 54766013
REMARK  5 active torsions:
REMARK  status: ('A' for Active; 'I' for Inactive)
REMARK    1  A    between atoms: C_3  and  C_11
REMARK    2  A    between atoms: C_4  and  C_18
REMARK    3  A    between atoms: C_5  and  C_24
REMARK    4  A    between atoms: C_24  and  N_25
REMARK    5  A    between atoms: N_25  and  C_28
REMARK                            x       y       z     vdW  Elec       q    Type
REMARK                         _______ _______ _______ _____ _____    ______ ____
ROOT
ATOM      1  N   UNL     1      36.982 -22.411 -16.965  0.00  0.00    -0.315 N 
ATOM      2  N   UNL     1      34.925 -22.017 -17.704  0.00  0.00    -0.317 N 
ATOM      3  C   UNL     1      34.877 -22.725 -16.529  0.00  0.00    +0.063 C 
ATOM      4  C   UNL     1      36.141 -22.981 -16.051  0.00  0.00    +0.085 C 
ATOM      5  C   UNL     1      36.207 -21.844 -17.939  0.00  0.00    +0.164 C 
ATOM      6  H   UNL     1      37.966 -22.408 -16.929  0.00  0.00    +0.148 HD
ATOM      7  H   UNL     1      34.167 -21.707 -18.251  0.00  0.00    +0.148 HD
ENDROOT
BRANCH   3  11
ATOM      8  N   UNL     1      32.368 -24.147 -14.162  0.00  0.00    -0.170 N 
ATOM      9  N   UNL     1      32.162 -24.794 -12.987  0.00  0.00    -0.150 NA
ATOM     10  N   UNL     1      30.162 -24.367 -14.006  0.00  0.00    -0.206 NA
ATOM     11  C   UNL     1      33.587 -23.117 -15.930  0.00  0.00    +0.031 C 
ATOM     12  C   UNL     1      33.578 -23.759 -14.743  0.00  0.00    +0.092 C 
ATOM     13  C   UNL     1      32.295 -22.855 -16.571  0.00  0.00    +0.006 C 
ATOM     14  C   UNL     1      31.131 -23.901 -14.762  0.00  0.00    +0.157 C 
ATOM     15  C   UNL     1      31.129 -23.228 -16.013  0.00  0.00    +0.036 C 
ATOM     16  C   UNL     1      30.835 -24.896 -12.949  0.00  0.00    +0.219 C 
ENDBRANCH   3  11
BRANCH   4  18
ATOM     17  N   UNL     1      36.814 -22.886 -13.800  0.00  0.00    -0.409 NA
ATOM     18  C   UNL     1      36.614 -23.674 -14.880  0.00  0.00    +0.127 C 
ATOM     19  C   UNL     1      36.832 -25.043 -14.892  0.00  0.00    +0.086 C 
ATOM     20  C   UNL     1      37.256 -23.501 -12.681  0.00  0.00    +0.109 C 
ATOM     21  C   UNL     1      37.285 -25.639 -13.720  0.00  0.00    -0.016 C 
ATOM     22  C   UNL     1      37.503 -24.862 -12.589  0.00  0.00    +0.023 C 
ATOM     23  C   UNL     1      37.481 -22.635 -11.486  0.00  0.00    +0.066 C 
ENDBRANCH   4  18
BRANCH   5  24
ATOM     24  C   UNL     1      36.809 -21.140 -19.085  0.00  0.00    +0.128 C 
BRANCH  24  25
ATOM     25  N   UNL     1      36.005 -20.000 -19.493  0.00  0.00    -0.328 N 
ATOM     26  H   UNL     1      35.409 -19.587 -18.828  0.00  0.00    +0.147 HD
BRANCH  25  28
ATOM     27  F   UNL     1      33.768 -20.080 -21.121  0.00  0.00    -0.203 F 
ATOM     28  C   UNL     1      36.034 -19.467 -20.767  0.00  0.00    +0.073 C 
ATOM     29  C   UNL     1      34.897 -19.517 -21.573  0.00  0.00    +0.153 C 
ATOM     30  C   UNL     1      37.205 -18.879 -21.248  0.00  0.00    +0.017 C 
ATOM     31  C   UNL     1      34.929 -18.978 -22.859  0.00  0.00    +0.031 C 
ATOM     32  C   UNL     1      37.237 -18.341 -22.535  0.00  0.00    +0.001 C 
ATOM     33  C   UNL     1      36.099 -18.390 -23.340  0.00  0.00    +0.002 C 
ENDBRANCH  25  28
ENDBRANCH  24  25
ENDBRANCH   5  24
TORSDOF 5
ENDMDL
MODEL 7
REMARK VINA RESULT:     -10.3      2.585      7.629
REMARK  Name = 54766013
REMARK  5 active torsions:
REMARK  status: ('A' for Active; 'I' for Inactive)
REMARK    1  A    between atoms: C_3  and  C_11
REMARK    2  A    between atoms: C_4  and  C_18
REMARK    3  A    between atoms: C_5  and  C_24
REMARK    4  A    between atoms: C_24  and  N_25
REMARK    5  A    between atoms: N_25  and  C_28
REMARK                            x       y       z     vdW  Elec       q    Type
REMARK                         _______ _______ _______ _____ _____    ______ ____
ROOT
ATOM      1  N   UNL     1      34.148 -24.274 -13.036  0.00  0.00    -0.315 N 
ATOM      2  N   UNL     1      35.880 -23.799 -14.342  0.00  0.00    -0.317 N 
ATOM      3  C   UNL     1      34.709 -23.455 -14.968  0.00  0.00    +0.063 C 
ATOM      4  C   UNL     1      33.620 -23.740 -14.177  0.00  0.00    +0.085 C 
ATOM      5  C   UNL     1      35.508 -24.289 -13.180  0.00  0.00    +0.164 C 
ATOM      6  H   UNL     1      33.642 -24.590 -12.252  0.00  0.00    +0.148 HD
ATOM      7  H   UNL     1      36.798 -23.700 -14.686  0.00  0.00    +0.148 HD
ENDROOT
BRANCH   3  11
ATOM      8  N   UNL     1      35.843 -21.643 -18.027  0.00  0.00    -0.170 N 
ATOM      9  N   UNL     1      36.853 -20.967 -18.632  0.00  0.00    -0.150 NA
ATOM     10  N   UNL     1      35.041 -21.075 -20.020  0.00  0.00    -0.206 NA
ATOM     11  C   UNL     1      34.714 -22.860 -16.319  0.00  0.00    +0.031 C 
ATOM     12  C   UNL     1      35.820 -22.221 -16.755  0.00  0.00    +0.092 C 
ATOM     13  C   UNL     1      33.560 -22.916 -17.221  0.00  0.00    +0.006 C 
ATOM     14  C   UNL     1      34.751 -21.692 -18.897  0.00  0.00    +0.157 C 
ATOM     15  C   UNL     1      33.581 -22.361 -18.446  0.00  0.00    +0.036 C 
ATOM     16  C   UNL     1      36.318 -20.656 -19.811  0.00  0.00    +0.219 C 
ENDBRANCH   3  11
BRANCH   4  18
ATOM     17  N   UNL     1      31.507 -24.723 -14.492  0.00  0.00    -0.409 NA
ATOM     18  C   UNL     1      32.203 -23.570 -14.378  0.00  0.00    +0.127 C 
ATOM     19  C   UNL     1      31.631 -22.309 -14.439  0.00  0.00    +0.086 C 
ATOM     20  C   UNL     1      30.174 -24.603 -14.678  0.00  0.00    +0.109 C 
ATOM     21  C   UNL     1      30.256 -22.228 -14.631  0.00  0.00    -0.016 C 
ATOM     22  C   UNL     1      29.506 -23.391 -14.753  0.00  0.00    +0.023 C 
ATOM     23  C   UNL     1      29.400 -25.874 -14.806  0.00  0.00    +0.066 C 
ENDBRANCH   4  18
BRANCH   5  24
ATOM     24  C   UNL     1      36.387 -24.808 -12.117  0.00  0.00    +0.128 C 
BRANCH  24  25
ATOM     25  N   UNL     1      37.021 -26.056 -12.509  0.00  0.00    -0.328 N 
ATOM     26  H   UNL     1      36.677 -26.895 -12.125  0.00  0.00    +0.147 HD
BRANCH  25  28
ATOM     27  F   UNL     1      36.670 -27.020 -15.080  0.00  0.00    -0.203 F 
ATOM     28  C   UNL     1      38.080 -26.125 -13.392  0.00  0.00    +0.073 C 
ATOM     29  C   UNL     1      37.885 -26.614 -14.683  0.00  0.00    +0.153 C 
ATOM     30  C   UNL     1      39.349 -25.706 -12.989  0.00  0.00    +0.017 C 
ATOM     31  C   UNL     1      38.956 -26.683 -15.573  0.00  0.00    +0.031 C 
ATOM     32  C   UNL     1      40.421 -25.775 -13.880  0.00  0.00    +0.001 C 
ATOM     33  C   UNL     1      40.224 -26.263 -15.172  0.00  0.00    +0.002 C 
ENDBRANCH  25  28
ENDBRANCH  24  25
ENDBRANCH   5  24
TORSDOF 5
ENDMDL
MODEL 8
REMARK VINA RESULT:     -10.2      1.846      2.639
REMARK  Name = 54766013
REMARK  5 active torsions:
REMARK  status: ('A' for Active; 'I' for Inactive)
REMARK    1  A    between atoms: C_3  and  C_11
REMARK    2  A    between atoms: C_4  and  C_18
REMARK    3  A    between atoms: C_5  and  C_24
REMARK    4  A    between atoms: C_24  and  N_25
REMARK    5  A    between atoms: N_25  and  C_28
REMARK                            x       y       z     vdW  Elec       q    Type
REMARK                         _______ _______ _______ _____ _____    ______ ____
ROOT
ATOM      1  N   UNL     1      34.972 -21.404 -18.827  0.00  0.00    -0.315 N 
ATOM      2  N   UNL     1      32.770 -21.572 -18.587  0.00  0.00    -0.317 N 
ATOM      3  C   UNL     1      33.407 -22.159 -17.523  0.00  0.00    +0.063 C 
ATOM      4  C   UNL     1      34.774 -22.067 -17.649  0.00  0.00    +0.085 C 
ATOM      5  C   UNL     1      33.741 -21.127 -19.355  0.00  0.00    +0.164 C 
ATOM      6  H   UNL     1      35.841 -21.168 -19.224  0.00  0.00    +0.148 HD
ATOM      7  H   UNL     1      31.801 -21.500 -18.743  0.00  0.00    +0.148 HD
ENDROOT
BRANCH   3  11
ATOM      8  N   UNL     1      30.757 -24.046 -15.693  0.00  0.00    -0.170 N 
ATOM      9  N   UNL     1      29.601 -24.750 -15.788  0.00  0.00    -0.150 NA
ATOM     10  N   UNL     1      30.262 -24.619 -13.604  0.00  0.00    -0.206 NA
ATOM     11  C   UNL     1      32.640 -22.786 -16.428  0.00  0.00    +0.031 C 
ATOM     12  C   UNL     1      31.503 -23.453 -16.716  0.00  0.00    +0.092 C 
ATOM     13  C   UNL     1      33.047 -22.709 -15.022  0.00  0.00    +0.006 C 
ATOM     14  C   UNL     1      31.136 -23.981 -14.350  0.00  0.00    +0.157 C 
ATOM     15  C   UNL     1      32.331 -23.279 -14.037  0.00  0.00    +0.036 C 
ATOM     16  C   UNL     1      29.357 -25.064 -14.517  0.00  0.00    +0.219 C 
ENDBRANCH   3  11
BRANCH   4  18
ATOM     17  N   UNL     1      35.592 -23.631 -16.095  0.00  0.00    -0.409 NA
ATOM     18  C   UNL     1      35.859 -22.519 -16.815  0.00  0.00    +0.127 C 
ATOM     19  C   UNL     1      37.069 -21.845 -16.781  0.00  0.00    +0.086 C 
ATOM     20  C   UNL     1      36.587 -24.087 -15.302  0.00  0.00    +0.109 C 
ATOM     21  C   UNL     1      38.068 -22.345 -15.953  0.00  0.00    -0.016 C 
ATOM     22  C   UNL     1      37.832 -23.487 -15.197  0.00  0.00    +0.023 C 
ATOM     23  C   UNL     1      36.297 -25.314 -14.504  0.00  0.00    +0.066 C 
ENDBRANCH   4  18
BRANCH   5  24
ATOM     24  C   UNL     1      33.598 -20.411 -20.635  0.00  0.00    +0.128 C 
BRANCH  24  25
ATOM     25  N   UNL     1      34.829 -19.733 -21.008  0.00  0.00    -0.328 N 
ATOM     26  H   UNL     1      35.632 -19.890 -20.462  0.00  0.00    +0.147 HD
BRANCH  25  28
ATOM     27  F   UNL     1      35.884 -17.191 -20.720  0.00  0.00    -0.203 F 
ATOM     28  C   UNL     1      34.927 -18.879 -22.088  0.00  0.00    +0.073 C 
ATOM     29  C   UNL     1      35.462 -17.601 -21.925  0.00  0.00    +0.153 C 
ATOM     30  C   UNL     1      34.490 -19.296 -23.347  0.00  0.00    +0.017 C 
ATOM     31  C   UNL     1      35.561 -16.740 -23.017  0.00  0.00    +0.031 C 
ATOM     32  C   UNL     1      34.589 -18.434 -24.440  0.00  0.00    +0.001 C 
ATOM     33  C   UNL     1      35.124 -17.157 -24.275  0.00  0.00    +0.002 C 
ENDBRANCH  25  28
ENDBRANCH  24  25
ENDBRANCH   5  24
TORSDOF 5
ENDMDL
MODEL 9
REMARK VINA RESULT:     -10.0      2.856      7.476
REMARK  Name = 54766013
REMARK  5 active torsions:
REMARK  status: ('A' for Active; 'I' for Inactive)
REMARK    1  A    between atoms: C_3  and  C_11
REMARK    2  A    between atoms: C_4  and  C_18
REMARK    3  A    between atoms: C_5  and  C_24
REMARK    4  A    between atoms: C_24  and  N_25
REMARK    5  A    between atoms: N_25  and  C_28
REMARK                            x       y       z     vdW  Elec       q    Type
REMARK                         _______ _______ _______ _____ _____    ______ ____
ROOT
ATOM      1  N   UNL     1      33.089 -22.976 -14.918  0.00  0.00    -0.315 N 
ATOM      2  N   UNL     1      33.855 -24.567 -13.572  0.00  0.00    -0.317 N 
ATOM      3  C   UNL     1      34.796 -24.259 -14.522  0.00  0.00    +0.063 C 
ATOM      4  C   UNL     1      34.343 -23.274 -15.368  0.00  0.00    +0.085 C 
ATOM      5  C   UNL     1      32.839 -23.777 -13.838  0.00  0.00    +0.164 C 
ATOM      6  H   UNL     1      32.476 -22.307 -15.300  0.00  0.00    +0.148 HD
ATOM      7  H   UNL     1      33.925 -25.233 -12.850  0.00  0.00    +0.148 HD
ENDROOT
BRANCH   3  11
ATOM      8  N   UNL     1      38.402 -25.027 -13.944  0.00  0.00    -0.170 N 
ATOM      9  N   UNL     1      39.566 -24.627 -13.372  0.00  0.00    -0.150 NA
ATOM     10  N   UNL     1      39.874 -26.606 -14.473  0.00  0.00    -0.206 NA
ATOM     11  C   UNL     1      36.101 -24.948 -14.553  0.00  0.00    +0.031 C 
ATOM     12  C   UNL     1      37.156 -24.395 -13.920  0.00  0.00    +0.092 C 
ATOM     13  C   UNL     1      36.318 -26.216 -15.257  0.00  0.00    +0.006 C 
ATOM     14  C   UNL     1      38.620 -26.236 -14.610  0.00  0.00    +0.157 C 
ATOM     15  C   UNL     1      37.516 -26.825 -15.282  0.00  0.00    +0.036 C 
ATOM     16  C   UNL     1      40.402 -25.604 -13.719  0.00  0.00    +0.219 C 
ENDBRANCH   3  11
BRANCH   4  18
ATOM     17  N   UNL     1      36.106 -21.984 -16.238  0.00  0.00    -0.409 NA
ATOM     18  C   UNL     1      34.943 -22.617 -16.503  0.00  0.00    +0.127 C 
ATOM     19  C   UNL     1      34.347 -22.656 -17.754  0.00  0.00    +0.086 C 
ATOM     20  C   UNL     1      36.700 -21.358 -17.280  0.00  0.00    +0.109 C 
ATOM     21  C   UNL     1      34.989 -22.001 -18.800  0.00  0.00    -0.016 C 
ATOM     22  C   UNL     1      36.188 -21.338 -18.567  0.00  0.00    +0.023 C 
ATOM     23  C   UNL     1      37.985 -20.655 -16.992  0.00  0.00    +0.066 C 
ENDBRANCH   4  18
BRANCH   5  24
ATOM     24  C   UNL     1      31.559 -23.706 -13.110  0.00  0.00    +0.128 C 
BRANCH  24  25
ATOM     25  N   UNL     1      30.529 -24.500 -13.760  0.00  0.00    -0.328 N 
ATOM     26  H   UNL     1      30.381 -25.421 -13.445  0.00  0.00    +0.147 HD
BRANCH  25  28
ATOM     27  F   UNL     1      30.014 -21.795 -14.037  0.00  0.00    -0.203 F 
ATOM     28  C   UNL     1      29.750 -24.029 -14.797  0.00  0.00    +0.073 C 
ATOM     29  C   UNL     1      29.500 -22.662 -14.921  0.00  0.00    +0.153 C 
ATOM     30  C   UNL     1      29.208 -24.923 -15.722  0.00  0.00    +0.017 C 
ATOM     31  C   UNL     1      28.712 -22.188 -15.969  0.00  0.00    +0.031 C 
ATOM     32  C   UNL     1      28.419 -24.448 -16.771  0.00  0.00    +0.001 C 
ATOM     33  C   UNL     1      28.171 -23.081 -16.894  0.00  0.00    +0.002 C 
ENDBRANCH  25  28
ENDBRANCH  24  25
ENDBRANCH   5  24
TORSDOF 5
ENDMDL
