MODEL 1
REMARK VINA RESULT:     -11.6      0.000      0.000
REMARK  Name = 54689025
REMARK  9 active torsions:
REMARK  status: ('A' for Active; 'I' for Inactive)
REMARK    1  A    between atoms: C_1  and  C_21
REMARK    2  A    between atoms: C_4  and  N_8
REMARK    3  A    between atoms: C_9  and  C_11
REMARK    4  A    between atoms: C_11  and  N_13
REMARK    5  A    between atoms: C_14  and  O_16
REMARK    6  A    between atoms: O_16  and  C_17
REMARK    7  A    between atoms: C_21  and  C_24
REMARK    8  A    between atoms: C_21  and  C_35
REMARK    9  A    between atoms: C_25  and  O_33
REMARK                            x       y       z     vdW  Elec       q    Type
REMARK                         _______ _______ _______ _____ _____    ______ ____
ROOT
ATOM      1  C   UNL     1      35.274 -16.370 -22.280  0.00  0.00    -0.017 C 
ATOM      2  C   UNL     1      35.171 -15.295 -23.162  0.00  0.00    +0.011 C 
ATOM      3  C   UNL     1      34.984 -16.194 -20.927  0.00  0.00    -0.004 C 
ATOM      4  C   UNL     1      34.777 -14.042 -22.691  0.00  0.00    +0.050 C 
ATOM      5  C   UNL     1      34.591 -14.941 -20.456  0.00  0.00    +0.001 C 
ATOM      6  C   UNL     1      34.487 -13.866 -21.338  0.00  0.00    +0.015 C 
ENDROOT
BRANCH   4   8
ATOM      7  O   UNL     1      33.269 -13.779 -25.277  0.00  0.00    -0.273 OA
ATOM      8  N   UNL     1      34.674 -12.965 -23.573  0.00  0.00    -0.283 N 
ATOM      9  C   UNL     1      33.953 -12.892 -24.775  0.00  0.00    +0.246 C 
ATOM     10  H   UNL     1      35.170 -12.153 -23.318  0.00  0.00    +0.155 HD
BRANCH   9  11
ATOM     11  C   UNL     1      34.114 -11.529 -25.423  0.00  0.00    +0.179 C 
BRANCH  11  13
ATOM     12  O   UNL     1      36.064  -9.380 -25.550  0.00  0.00    -0.226 OA
ATOM     13  N   UNL     1      34.390 -10.533 -24.429  0.00  0.00    -0.262 N 
ATOM     14  C   UNL     1      35.343  -9.538 -24.570  0.00  0.00    +0.402 C 
ATOM     15  H   UNL     1      33.870 -10.558 -23.593  0.00  0.00    +0.153 HD
BRANCH  14  16
ATOM     16  O   UNL     1      35.365  -8.749 -23.454  0.00  0.00    -0.442 OA
BRANCH  16  17
ATOM     17  C   UNL     1      34.524  -7.590 -23.493  0.00  0.00    +0.138 C 
ATOM     18  C   UNL     1      35.147  -6.569 -24.444  0.00  0.00    +0.044 C 
ATOM     19  C   UNL     1      34.450  -7.029 -22.074  0.00  0.00    +0.044 C 
ATOM     20  C   UNL     1      33.138  -8.012 -23.978  0.00  0.00    +0.044 C 
ENDBRANCH  16  17
ENDBRANCH  14  16
ENDBRANCH  11  13
ENDBRANCH   9  11
ENDBRANCH   4   8
BRANCH   1  21
ATOM     21  C   UNL     1      35.702 -17.734 -22.793  0.00  0.00    +0.054 C 
BRANCH  21  24
ATOM     22  O   UNL     1      37.101 -19.943 -20.055  0.00  0.00    -0.421 OA
ATOM     23  O   UNL     1      38.037 -18.416 -21.458  0.00  0.00    -0.245 OA
ATOM     24  C   UNL     1      35.692 -18.752 -21.686  0.00  0.00    +0.091 A 
ATOM     25  C   UNL     1      34.607 -19.413 -21.239  0.00  0.00    +0.139 A 
ATOM     26  C   UNL     1      37.030 -19.006 -21.078  0.00  0.00    +0.345 A 
ATOM     27  C   UNL     1      34.716 -20.395 -20.158  0.00  0.00    +0.068 A 
ATOM     28  C   UNL     1      35.966 -20.632 -19.596  0.00  0.00    +0.152 A 
ATOM     29  C   UNL     1      33.624 -21.116 -19.653  0.00  0.00    +0.006 C 
ATOM     30  C   UNL     1      36.157 -21.551 -18.563  0.00  0.00    +0.038 C 
ATOM     31  C   UNL     1      33.798 -22.041 -18.617  0.00  0.00    +0.000 C 
ATOM     32  C   UNL     1      35.063 -22.258 -18.074  0.00  0.00    +0.003 C 
BRANCH  25  33
ATOM     33  O   UNL     1      33.329 -19.243 -21.730  0.00  0.00    -0.506 OA
ATOM     34  H   UNL     1      32.961 -19.879 -22.310  0.00  0.00    +0.292 HD
ENDBRANCH  25  33
ENDBRANCH  21  24
BRANCH  21  35
ATOM     35  C   UNL     1      34.860 -18.241 -23.981  0.00  0.00    +0.009 C 
ATOM     36  C   UNL     1      35.294 -19.619 -24.472  0.00  0.00    +0.001 C 
ENDBRANCH  21  35
ENDBRANCH   1  21
TORSDOF 9
ENDMDL
MODEL 2
REMARK VINA RESULT:     -11.0      4.617     11.626
REMARK  Name = 54689025
REMARK  9 active torsions:
REMARK  status: ('A' for Active; 'I' for Inactive)
REMARK    1  A    between atoms: C_1  and  C_21
REMARK    2  A    between atoms: C_4  and  N_8
REMARK    3  A    between atoms: C_9  and  C_11
REMARK    4  A    between atoms: C_11  and  N_13
REMARK    5  A    between atoms: C_14  and  O_16
REMARK    6  A    between atoms: O_16  and  C_17
REMARK    7  A    between atoms: C_21  and  C_24
REMARK    8  A    between atoms: C_21  and  C_35
REMARK    9  A    between atoms: C_25  and  O_33
REMARK                            x       y       z     vdW  Elec       q    Type
REMARK                         _______ _______ _______ _____ _____    ______ ____
ROOT
ATOM      1  C   UNL     1      34.972 -20.036 -20.812  0.00  0.00    -0.017 C 
ATOM      2  C   UNL     1      35.338 -20.797 -19.703  0.00  0.00    +0.011 C 
ATOM      3  C   UNL     1      33.623 -19.807 -21.087  0.00  0.00    -0.004 C 
ATOM      4  C   UNL     1      34.357 -21.329 -18.867  0.00  0.00    +0.050 C 
ATOM      5  C   UNL     1      32.642 -20.340 -20.251  0.00  0.00    +0.001 C 
ATOM      6  C   UNL     1      33.009 -21.100 -19.141  0.00  0.00    +0.015 C 
ENDROOT
BRANCH   4   8
ATOM      7  O   UNL     1      36.923 -21.386 -17.304  0.00  0.00    -0.273 OA
ATOM      8  N   UNL     1      34.723 -22.092 -17.757  0.00  0.00    -0.283 N 
ATOM      9  C   UNL     1      35.942 -22.082 -17.060  0.00  0.00    +0.246 C 
ATOM     10  H   UNL     1      34.040 -22.715 -17.419  0.00  0.00    +0.155 HD
BRANCH   9  11
ATOM     11  C   UNL     1      35.917 -23.071 -15.909  0.00  0.00    +0.179 C 
BRANCH  11  13
ATOM     12  O   UNL     1      37.596 -22.951 -13.541  0.00  0.00    -0.226 OA
ATOM     13  N   UNL     1      37.214 -23.652 -15.721  0.00  0.00    -0.262 N 
ATOM     14  C   UNL     1      37.951 -23.546 -14.553  0.00  0.00    +0.402 C 
ATOM     15  H   UNL     1      37.606 -24.158 -16.469  0.00  0.00    +0.153 HD
BRANCH  14  16
ATOM     16  O   UNL     1      39.141 -24.205 -14.688  0.00  0.00    -0.442 OA
BRANCH  16  17
ATOM     17  C   UNL     1      39.218 -25.488 -14.057  0.00  0.00    +0.138 C 
ATOM     18  C   UNL     1      38.770 -25.343 -12.603  0.00  0.00    +0.044 C 
ATOM     19  C   UNL     1      40.673 -25.949 -14.128  0.00  0.00    +0.044 C 
ATOM     20  C   UNL     1      38.310 -26.457 -14.813  0.00  0.00    +0.044 C 
ENDBRANCH  16  17
ENDBRANCH  14  16
ENDBRANCH  11  13
ENDBRANCH   9  11
ENDBRANCH   4   8
BRANCH   1  21
ATOM     21  C   UNL     1      36.040 -19.457 -21.722  0.00  0.00    +0.054 C 
BRANCH  21  24
ATOM     22  O   UNL     1      34.663 -17.618 -24.731  0.00  0.00    -0.421 OA
ATOM     23  O   UNL     1      35.306 -19.771 -24.380  0.00  0.00    -0.245 OA
ATOM     24  C   UNL     1      35.499 -18.300 -22.518  0.00  0.00    +0.091 A 
ATOM     25  C   UNL     1      35.318 -17.047 -22.057  0.00  0.00    +0.139 A 
ATOM     26  C   UNL     1      35.159 -18.639 -23.931  0.00  0.00    +0.345 A 
ATOM     27  C   UNL     1      34.792 -15.994 -22.928  0.00  0.00    +0.068 A 
ATOM     28  C   UNL     1      34.479 -16.312 -24.245  0.00  0.00    +0.152 A 
ATOM     29  C   UNL     1      34.585 -14.673 -22.507  0.00  0.00    +0.006 C 
ATOM     30  C   UNL     1      33.974 -15.367 -25.140  0.00  0.00    +0.038 C 
ATOM     31  C   UNL     1      34.079 -13.713 -23.391  0.00  0.00    +0.000 C 
ATOM     32  C   UNL     1      33.776 -14.061 -24.706  0.00  0.00    +0.003 C 
BRANCH  25  33
ATOM     33  O   UNL     1      35.595 -16.640 -20.769  0.00  0.00    -0.506 OA
ATOM     34  H   UNL     1      36.035 -17.219 -20.179  0.00  0.00    +0.292 HD
ENDBRANCH  25  33
ENDBRANCH  21  24
BRANCH  21  35
ATOM     35  C   UNL     1      37.322 -19.028 -20.978  0.00  0.00    +0.009 C 
ATOM     36  C   UNL     1      38.364 -18.405 -21.900  0.00  0.00    +0.001 C 
ENDBRANCH  21  35
ENDBRANCH   1  21
TORSDOF 9
ENDMDL
MODEL 3
REMARK VINA RESULT:     -10.9      4.575     11.020
REMARK  Name = 54689025
REMARK  9 active torsions:
REMARK  status: ('A' for Active; 'I' for Inactive)
REMARK    1  A    between atoms: C_1  and  C_21
REMARK    2  A    between atoms: C_4  and  N_8
REMARK    3  A    between atoms: C_9  and  C_11
REMARK    4  A    between atoms: C_11  and  N_13
REMARK    5  A    between atoms: C_14  and  O_16
REMARK    6  A    between atoms: O_16  and  C_17
REMARK    7  A    between atoms: C_21  and  C_24
REMARK    8  A    between atoms: C_21  and  C_35
REMARK    9  A    between atoms: C_25  and  O_33
REMARK                            x       y       z     vdW  Elec       q    Type
REMARK                         _______ _______ _______ _____ _____    ______ ____
ROOT
ATOM      1  C   UNL     1      35.151 -19.966 -20.912  0.00  0.00    -0.017 C 
ATOM      2  C   UNL     1      35.598 -20.707 -19.818  0.00  0.00    +0.011 C 
ATOM      3  C   UNL     1      33.784 -19.801 -21.132  0.00  0.00    -0.004 C 
ATOM      4  C   UNL     1      34.677 -21.283 -18.943  0.00  0.00    +0.050 C 
ATOM      5  C   UNL     1      32.863 -20.378 -20.257  0.00  0.00    +0.001 C 
ATOM      6  C   UNL     1      33.309 -21.118 -19.163  0.00  0.00    +0.015 C 
ENDROOT
BRANCH   4   8
ATOM      7  O   UNL     1      37.184 -21.026 -17.308  0.00  0.00    -0.273 OA
ATOM      8  N   UNL     1      35.122 -22.025 -17.849  0.00  0.00    -0.283 N 
ATOM      9  C   UNL     1      36.309 -21.865 -17.115  0.00  0.00    +0.246 C 
ATOM     10  H   UNL     1      34.529 -22.753 -17.552  0.00  0.00    +0.155 HD
BRANCH   9  11
ATOM     11  C   UNL     1      36.400 -22.889 -15.999  0.00  0.00    +0.179 C 
BRANCH  11  13
ATOM     12  O   UNL     1      34.913 -25.089 -14.820  0.00  0.00    -0.226 OA
ATOM     13  N   UNL     1      35.241 -22.815 -15.158  0.00  0.00    -0.262 N 
ATOM     14  C   UNL     1      34.589 -23.920 -14.635  0.00  0.00    +0.402 C 
ATOM     15  H   UNL     1      34.886 -21.924 -14.938  0.00  0.00    +0.153 HD
BRANCH  14  16
ATOM     16  O   UNL     1      33.525 -23.521 -13.876  0.00  0.00    -0.442 OA
BRANCH  16  17
ATOM     17  C   UNL     1      32.243 -23.603 -14.509  0.00  0.00    +0.138 C 
ATOM     18  C   UNL     1      32.443 -23.553 -16.022  0.00  0.00    +0.044 C 
ATOM     19  C   UNL     1      31.420 -22.405 -14.035  0.00  0.00    +0.044 C 
ATOM     20  C   UNL     1      31.577 -24.912 -14.089  0.00  0.00    +0.044 C 
ENDBRANCH  16  17
ENDBRANCH  14  16
ENDBRANCH  11  13
ENDBRANCH   9  11
ENDBRANCH   4   8
BRANCH   1  21
ATOM     21  C   UNL     1      36.154 -19.338 -21.863  0.00  0.00    +0.054 C 
BRANCH  21  24
ATOM     22  O   UNL     1      34.592 -17.493 -24.777  0.00  0.00    -0.421 OA
ATOM     23  O   UNL     1      35.334 -19.626 -24.499  0.00  0.00    -0.245 OA
ATOM     24  C   UNL     1      35.538 -18.188 -22.613  0.00  0.00    +0.091 A 
ATOM     25  C   UNL     1      35.324 -16.954 -22.117  0.00  0.00    +0.139 A 
ATOM     26  C   UNL     1      35.158 -18.510 -24.019  0.00  0.00    +0.345 A 
ATOM     27  C   UNL     1      34.724 -15.905 -22.943  0.00  0.00    +0.068 A 
ATOM     28  C   UNL     1      34.375 -16.207 -24.255  0.00  0.00    +0.152 A 
ATOM     29  C   UNL     1      34.481 -14.603 -22.484  0.00  0.00    +0.006 C 
ATOM     30  C   UNL     1      33.800 -15.265 -25.109  0.00  0.00    +0.038 C 
ATOM     31  C   UNL     1      33.904 -13.646 -23.327  0.00  0.00    +0.000 C 
ATOM     32  C   UNL     1      33.565 -13.977 -24.638  0.00  0.00    +0.003 C 
BRANCH  25  33
ATOM     33  O   UNL     1      35.632 -16.563 -20.831  0.00  0.00    -0.506 OA
ATOM     34  H   UNL     1      35.579 -17.180 -20.128  0.00  0.00    +0.292 HD
ENDBRANCH  25  33
ENDBRANCH  21  24
BRANCH  21  35
ATOM     35  C   UNL     1      37.457 -18.880 -21.177  0.00  0.00    +0.009 C 
ATOM     36  C   UNL     1      38.471 -18.295 -22.155  0.00  0.00    +0.001 C 
ENDBRANCH  21  35
ENDBRANCH   1  21
TORSDOF 9
ENDMDL
MODEL 4
REMARK VINA RESULT:     -10.6      4.137     11.094
REMARK  Name = 54689025
REMARK  9 active torsions:
REMARK  status: ('A' for Active; 'I' for Inactive)
REMARK    1  A    between atoms: C_1  and  C_21
REMARK    2  A    between atoms: C_4  and  N_8
REMARK    3  A    between atoms: C_9  and  C_11
REMARK    4  A    between atoms: C_11  and  N_13
REMARK    5  A    between atoms: C_14  and  O_16
REMARK    6  A    between atoms: O_16  and  C_17
REMARK    7  A    between atoms: C_21  and  C_24
REMARK    8  A    between atoms: C_21  and  C_35
REMARK    9  A    between atoms: C_25  and  O_33
REMARK                            x       y       z     vdW  Elec       q    Type
REMARK                         _______ _______ _______ _____ _____    ______ ____
ROOT
ATOM      1  C   UNL     1      35.219 -19.505 -21.566  0.00  0.00    -0.017 C 
ATOM      2  C   UNL     1      35.962 -20.187 -20.602  0.00  0.00    +0.011 C 
ATOM      3  C   UNL     1      33.825 -19.510 -21.505  0.00  0.00    -0.004 C 
ATOM      4  C   UNL     1      35.312 -20.873 -19.577  0.00  0.00    +0.050 C 
ATOM      5  C   UNL     1      33.175 -20.198 -20.480  0.00  0.00    +0.001 C 
ATOM      6  C   UNL     1      33.918 -20.879 -19.516  0.00  0.00    +0.015 C 
ENDROOT
BRANCH   4   8
ATOM      7  O   UNL     1      37.482 -19.901 -17.741  0.00  0.00    -0.273 OA
ATOM      8  N   UNL     1      36.054 -21.556 -18.613  0.00  0.00    -0.283 N 
ATOM      9  C   UNL     1      37.064 -21.054 -17.777  0.00  0.00    +0.246 C 
ATOM     10  H   UNL     1      35.843 -22.512 -18.505  0.00  0.00    +0.155 HD
BRANCH   9  11
ATOM     11  C   UNL     1      37.611 -22.142 -16.871  0.00  0.00    +0.179 C 
BRANCH  11  13
ATOM     12  O   UNL     1      38.250 -23.472 -14.368  0.00  0.00    -0.226 OA
ATOM     13  N   UNL     1      36.766 -22.309 -15.724  0.00  0.00    -0.262 N 
ATOM     14  C   UNL     1      37.152 -22.960 -14.564  0.00  0.00    +0.402 C 
ATOM     15  H   UNL     1      35.855 -21.938 -15.764  0.00  0.00    +0.153 HD
BRANCH  14  16
ATOM     16  O   UNL     1      36.127 -22.952 -13.659  0.00  0.00    -0.442 OA
BRANCH  16  17
ATOM     17  C   UNL     1      35.532 -24.224 -13.381  0.00  0.00    +0.138 C 
ATOM     18  C   UNL     1      34.042 -24.016 -13.113  0.00  0.00    +0.044 C 
ATOM     19  C   UNL     1      36.226 -24.796 -12.146  0.00  0.00    +0.044 C 
ATOM     20  C   UNL     1      35.746 -25.136 -14.588  0.00  0.00    +0.044 C 
ENDBRANCH  16  17
ENDBRANCH  14  16
ENDBRANCH  11  13
ENDBRANCH   9  11
ENDBRANCH   4   8
BRANCH   1  21
ATOM     21  C   UNL     1      35.927 -18.757 -22.681  0.00  0.00    +0.054 C 
BRANCH  21  24
ATOM     22  O   UNL     1      34.383 -15.832 -24.524  0.00  0.00    -0.421 OA
ATOM     23  O   UNL     1      35.063 -17.903 -25.176  0.00  0.00    -0.245 OA
ATOM     24  C   UNL     1      35.336 -17.385 -22.868  0.00  0.00    +0.091 A 
ATOM     25  C   UNL     1      35.166 -16.466 -21.899  0.00  0.00    +0.139 A 
ATOM     26  C   UNL     1      34.928 -17.084 -24.272  0.00  0.00    +0.345 A 
ATOM     27  C   UNL     1      34.588 -15.154 -22.200  0.00  0.00    +0.068 A 
ATOM     28  C   UNL     1      34.212 -14.875 -23.509  0.00  0.00    +0.152 A 
ATOM     29  C   UNL     1      34.390 -14.156 -21.235  0.00  0.00    +0.006 C 
ATOM     30  C   UNL     1      33.655 -13.650 -23.880  0.00  0.00    +0.038 C 
ATOM     31  C   UNL     1      33.832 -12.923 -21.590  0.00  0.00    +0.000 C 
ATOM     32  C   UNL     1      33.466 -12.671 -22.911  0.00  0.00    +0.003 C 
BRANCH  25  33
ATOM     33  O   UNL     1      35.503 -16.652 -20.575  0.00  0.00    -0.506 OA
ATOM     34  H   UNL     1      36.396 -16.570 -20.303  0.00  0.00    +0.292 HD
ENDBRANCH  25  33
ENDBRANCH  21  24
BRANCH  21  35
ATOM     35  C   UNL     1      37.453 -18.648 -22.483  0.00  0.00    +0.009 C 
ATOM     36  C   UNL     1      37.853 -18.509 -21.018  0.00  0.00    +0.001 C 
ENDBRANCH  21  35
ENDBRANCH   1  21
TORSDOF 9
ENDMDL
MODEL 5
REMARK VINA RESULT:     -10.4      2.948     11.509
REMARK  Name = 54689025
REMARK  9 active torsions:
REMARK  status: ('A' for Active; 'I' for Inactive)
REMARK    1  A    between atoms: C_1  and  C_21
REMARK    2  A    between atoms: C_4  and  N_8
REMARK    3  A    between atoms: C_9  and  C_11
REMARK    4  A    between atoms: C_11  and  N_13
REMARK    5  A    between atoms: C_14  and  O_16
REMARK    6  A    between atoms: O_16  and  C_17
REMARK    7  A    between atoms: C_21  and  C_24
REMARK    8  A    between atoms: C_21  and  C_35
REMARK    9  A    between atoms: C_25  and  O_33
REMARK                            x       y       z     vdW  Elec       q    Type
REMARK                         _______ _______ _______ _____ _____    ______ ____
ROOT
ATOM      1  C   UNL     1      33.603  -9.313 -23.097  0.00  0.00    -0.017 C 
ATOM      2  C   UNL     1      33.449 -10.629 -23.530  0.00  0.00    +0.011 C 
ATOM      3  C   UNL     1      34.614  -8.515 -23.633  0.00  0.00    -0.004 C 
ATOM      4  C   UNL     1      34.306 -11.149 -24.500  0.00  0.00    +0.050 C 
ATOM      5  C   UNL     1      35.472  -9.035 -24.602  0.00  0.00    +0.001 C 
ATOM      6  C   UNL     1      35.317 -10.351 -25.036  0.00  0.00    +0.015 C 
ENDROOT
BRANCH   4   8
ATOM      7  O   UNL     1      33.564 -13.627 -22.972  0.00  0.00    -0.273 OA
ATOM      8  N   UNL     1      34.153 -12.467 -24.934  0.00  0.00    -0.283 N 
ATOM      9  C   UNL     1      33.804 -13.596 -24.175  0.00  0.00    +0.246 C 
ATOM     10  H   UNL     1      34.309 -12.624 -25.893  0.00  0.00    +0.155 HD
BRANCH   9  11
ATOM     11  C   UNL     1      33.747 -14.838 -25.046  0.00  0.00    +0.179 C 
BRANCH  11  13
ATOM     12  O   UNL     1      33.503 -17.730 -24.925  0.00  0.00    -0.226 OA
ATOM     13  N   UNL     1      34.738 -15.787 -24.627  0.00  0.00    -0.262 N 
ATOM     14  C   UNL     1      34.538 -17.157 -24.600  0.00  0.00    +0.402 C 
ATOM     15  H   UNL     1      35.615 -15.443 -24.342  0.00  0.00    +0.153 HD
BRANCH  14  16
ATOM     16  O   UNL     1      35.666 -17.787 -24.155  0.00  0.00    -0.442 OA
BRANCH  16  17
ATOM     17  C   UNL     1      35.729 -18.034 -22.746  0.00  0.00    +0.138 C 
ATOM     18  C   UNL     1      35.363 -16.746 -22.010  0.00  0.00    +0.044 C 
ATOM     19  C   UNL     1      37.160 -18.454 -22.417  0.00  0.00    +0.044 C 
ATOM     20  C   UNL     1      34.747 -19.154 -22.405  0.00  0.00    +0.044 C 
ENDBRANCH  16  17
ENDBRANCH  14  16
ENDBRANCH  11  13
ENDBRANCH   9  11
ENDBRANCH   4   8
BRANCH   1  21
ATOM     21  C   UNL     1      32.670  -8.747 -22.041  0.00  0.00    +0.054 C 
BRANCH  21  24
ATOM     22  O   UNL     1      32.765  -5.071 -21.142  0.00  0.00    -0.421 OA
ATOM     23  O   UNL     1      33.381  -6.962 -20.038  0.00  0.00    -0.245 OA
ATOM     24  C   UNL     1      32.487  -7.264 -22.224  0.00  0.00    +0.091 A 
ATOM     25  C   UNL     1      31.985  -6.666 -23.321  0.00  0.00    +0.139 A 
ATOM     26  C   UNL     1      32.914  -6.448 -21.051  0.00  0.00    +0.345 A 
ATOM     27  C   UNL     1      31.842  -5.210 -23.385  0.00  0.00    +0.068 A 
ATOM     28  C   UNL     1      32.238  -4.452 -22.288  0.00  0.00    +0.152 A 
ATOM     29  C   UNL     1      31.324  -4.531 -24.497  0.00  0.00    +0.006 C 
ATOM     30  C   UNL     1      32.134  -3.060 -22.268  0.00  0.00    +0.038 C 
ATOM     31  C   UNL     1      31.214  -3.136 -24.493  0.00  0.00    +0.000 C 
ATOM     32  C   UNL     1      31.617  -2.402 -23.379  0.00  0.00    +0.003 C 
BRANCH  25  33
ATOM     33  O   UNL     1      31.571  -7.332 -24.456  0.00  0.00    -0.506 OA
ATOM     34  H   UNL     1      31.802  -8.231 -24.582  0.00  0.00    +0.292 HD
ENDBRANCH  25  33
ENDBRANCH  21  24
BRANCH  21  35
ATOM     35  C   UNL     1      31.294  -9.444 -21.993  0.00  0.00    +0.009 C 
ATOM     36  C   UNL     1      31.121 -10.333 -20.766  0.00  0.00    +0.001 C 
ENDBRANCH  21  35
ENDBRANCH   1  21
TORSDOF 9
ENDMDL
MODEL 6
REMARK VINA RESULT:     -10.4      3.483      6.173
REMARK  Name = 54689025
REMARK  9 active torsions:
REMARK  status: ('A' for Active; 'I' for Inactive)
REMARK    1  A    between atoms: C_1  and  C_21
REMARK    2  A    between atoms: C_4  and  N_8
REMARK    3  A    between atoms: C_9  and  C_11
REMARK    4  A    between atoms: C_11  and  N_13
REMARK    5  A    between atoms: C_14  and  O_16
REMARK    6  A    between atoms: O_16  and  C_17
REMARK    7  A    between atoms: C_21  and  C_24
REMARK    8  A    between atoms: C_21  and  C_35
REMARK    9  A    between atoms: C_25  and  O_33
REMARK                            x       y       z     vdW  Elec       q    Type
REMARK                         _______ _______ _______ _____ _____    ______ ____
ROOT
ATOM      1  C   UNL     1      33.268 -11.606 -22.826  0.00  0.00    -0.017 C 
ATOM      2  C   UNL     1      33.022 -10.252 -22.599  0.00  0.00    +0.011 C 
ATOM      3  C   UNL     1      32.535 -12.573 -22.138  0.00  0.00    -0.004 C 
ATOM      4  C   UNL     1      32.041  -9.865 -21.686  0.00  0.00    +0.050 C 
ATOM      5  C   UNL     1      31.555 -12.186 -21.224  0.00  0.00    +0.001 C 
ATOM      6  C   UNL     1      31.308 -10.832 -20.999  0.00  0.00    +0.015 C 
ENDROOT
BRANCH   4   8
ATOM      7  O   UNL     1      33.026  -8.045 -19.508  0.00  0.00    -0.273 OA
ATOM      8  N   UNL     1      31.794  -8.510 -21.459  0.00  0.00    -0.283 N 
ATOM      9  C   UNL     1      32.280  -7.701 -20.420  0.00  0.00    +0.246 C 
ATOM     10  H   UNL     1      31.205  -8.065 -22.111  0.00  0.00    +0.155 HD
BRANCH   9  11
ATOM     11  C   UNL     1      31.764  -6.279 -20.551  0.00  0.00    +0.179 C 
BRANCH  11  13
ATOM     12  O   UNL     1      30.748  -4.283 -22.401  0.00  0.00    -0.226 OA
ATOM     13  N   UNL     1      32.488  -5.577 -21.569  0.00  0.00    -0.262 N 
ATOM     14  C   UNL     1      31.924  -4.634 -22.414  0.00  0.00    +0.402 C 
ATOM     15  H   UNL     1      33.446  -5.776 -21.675  0.00  0.00    +0.153 HD
BRANCH  14  16
ATOM     16  O   UNL     1      32.870  -4.147 -23.270  0.00  0.00    -0.442 OA
BRANCH  16  17
ATOM     17  C   UNL     1      33.033  -4.869 -24.496  0.00  0.00    +0.138 C 
ATOM     18  C   UNL     1      34.417  -5.516 -24.499  0.00  0.00    +0.044 C 
ATOM     19  C   UNL     1      32.906  -3.865 -25.641  0.00  0.00    +0.044 C 
ATOM     20  C   UNL     1      31.936  -5.928 -24.585  0.00  0.00    +0.044 C 
ENDBRANCH  16  17
ENDBRANCH  14  16
ENDBRANCH  11  13
ENDBRANCH   9  11
ENDBRANCH   4   8
BRANCH   1  21
ATOM     21  C   UNL     1      34.335 -12.027 -23.820  0.00  0.00    +0.054 C 
BRANCH  21  24
ATOM     22  O   UNL     1      33.714 -15.386 -25.452  0.00  0.00    -0.421 OA
ATOM     23  O   UNL     1      33.255 -13.245 -26.068  0.00  0.00    -0.245 OA
ATOM     24  C   UNL     1      34.362 -13.523 -23.978  0.00  0.00    +0.091 A 
ATOM     25  C   UNL     1      34.886 -14.395 -23.096  0.00  0.00    +0.139 A 
ATOM     26  C   UNL     1      33.735 -14.013 -25.240  0.00  0.00    +0.345 A 
ATOM     27  C   UNL     1      34.846 -15.837 -23.350  0.00  0.00    +0.068 A 
ATOM     28  C   UNL     1      34.258 -16.291 -24.526  0.00  0.00    +0.152 A 
ATOM     29  C   UNL     1      35.371 -16.793 -22.469  0.00  0.00    +0.006 C 
ATOM     30  C   UNL     1      34.179 -17.648 -24.843  0.00  0.00    +0.038 C 
ATOM     31  C   UNL     1      35.301 -18.157 -22.773  0.00  0.00    +0.000 C 
ATOM     32  C   UNL     1      34.704 -18.584 -23.958  0.00  0.00    +0.003 C 
BRANCH  25  33
ATOM     33  O   UNL     1      35.491 -14.040 -21.909  0.00  0.00    -0.506 OA
ATOM     34  H   UNL     1      35.808 -13.167 -21.788  0.00  0.00    +0.292 HD
ENDBRANCH  25  33
ENDBRANCH  21  24
BRANCH  21  35
ATOM     35  C   UNL     1      34.194 -11.355 -25.202  0.00  0.00    +0.009 C 
ATOM     36  C   UNL     1      35.294 -10.337 -25.483  0.00  0.00    +0.001 C 
ENDBRANCH  21  35
ENDBRANCH   1  21
TORSDOF 9
ENDMDL
MODEL 7
REMARK VINA RESULT:      -9.7      5.383     10.245
REMARK  Name = 54689025
REMARK  9 active torsions:
REMARK  status: ('A' for Active; 'I' for Inactive)
REMARK    1  A    between atoms: C_1  and  C_21
REMARK    2  A    between atoms: C_4  and  N_8
REMARK    3  A    between atoms: C_9  and  C_11
REMARK    4  A    between atoms: C_11  and  N_13
REMARK    5  A    between atoms: C_14  and  O_16
REMARK    6  A    between atoms: O_16  and  C_17
REMARK    7  A    between atoms: C_21  and  C_24
REMARK    8  A    between atoms: C_21  and  C_35
REMARK    9  A    between atoms: C_25  and  O_33
REMARK                            x       y       z     vdW  Elec       q    Type
REMARK                         _______ _______ _______ _____ _____    ______ ____
ROOT
ATOM      1  C   UNL     1      34.168 -23.718 -14.811  0.00  0.00    -0.017 C 
ATOM      2  C   UNL     1      34.872 -23.357 -15.959  0.00  0.00    +0.011 C 
ATOM      3  C   UNL     1      32.797 -23.471 -14.726  0.00  0.00    -0.004 C 
ATOM      4  C   UNL     1      34.206 -22.750 -17.024  0.00  0.00    +0.050 C 
ATOM      5  C   UNL     1      32.131 -22.863 -15.790  0.00  0.00    +0.001 C 
ATOM      6  C   UNL     1      32.835 -22.503 -16.939  0.00  0.00    +0.015 C 
ENDROOT
BRANCH   4   8
ATOM      7  O   UNL     1      36.737 -21.162 -17.336  0.00  0.00    -0.273 OA
ATOM      8  N   UNL     1      34.910 -22.388 -18.173  0.00  0.00    -0.283 N 
ATOM      9  C   UNL     1      36.094 -21.640 -18.266  0.00  0.00    +0.246 C 
ATOM     10  H   UNL     1      34.528 -22.697 -19.026  0.00  0.00    +0.155 HD
BRANCH   9  11
ATOM     11  C   UNL     1      36.522 -21.478 -19.714  0.00  0.00    +0.179 C 
BRANCH  11  13
ATOM     12  O   UNL     1      34.075 -20.228 -20.658  0.00  0.00    -0.226 OA
ATOM     13  N   UNL     1      36.336 -20.122 -20.141  0.00  0.00    -0.262 N 
ATOM     14  C   UNL     1      35.129 -19.604 -20.579  0.00  0.00    +0.402 C 
ATOM     15  H   UNL     1      37.116 -19.521 -20.121  0.00  0.00    +0.153 HD
BRANCH  14  16
ATOM     16  O   UNL     1      35.278 -18.287 -20.914  0.00  0.00    -0.442 OA
BRANCH  16  17
ATOM     17  C   UNL     1      35.719 -18.030 -22.252  0.00  0.00    +0.138 C 
ATOM     18  C   UNL     1      37.229 -18.256 -22.318  0.00  0.00    +0.044 C 
ATOM     19  C   UNL     1      35.379 -16.576 -22.576  0.00  0.00    +0.044 C 
ATOM     20  C   UNL     1      34.984 -18.978 -23.197  0.00  0.00    +0.044 C 
ENDBRANCH  16  17
ENDBRANCH  14  16
ENDBRANCH  11  13
ENDBRANCH   9  11
ENDBRANCH   4   8
BRANCH   1  21
ATOM     21  C   UNL     1      34.892 -24.379 -13.652  0.00  0.00    +0.054 C 
BRANCH  21  24
ATOM     22  O   UNL     1      38.603 -23.753 -14.071  0.00  0.00    -0.421 OA
ATOM     23  O   UNL     1      36.888 -22.488 -13.275  0.00  0.00    -0.245 OA
ATOM     24  C   UNL     1      36.322 -24.679 -14.013  0.00  0.00    +0.091 A 
ATOM     25  C   UNL     1      36.774 -25.837 -14.532  0.00  0.00    +0.139 A 
ATOM     26  C   UNL     1      37.265 -23.553 -13.752  0.00  0.00    +0.345 A 
ATOM     27  C   UNL     1      38.190 -26.015 -14.856  0.00  0.00    +0.068 A 
ATOM     28  C   UNL     1      39.067 -24.962 -14.615  0.00  0.00    +0.152 A 
ATOM     29  C   UNL     1      38.718 -27.194 -15.401  0.00  0.00    +0.006 C 
ATOM     30  C   UNL     1      40.431 -25.049 -14.896  0.00  0.00    +0.038 C 
ATOM     31  C   UNL     1      40.084 -27.298 -15.687  0.00  0.00    +0.000 C 
ATOM     32  C   UNL     1      40.938 -26.226 -15.437  0.00  0.00    +0.003 C 
BRANCH  25  33
ATOM     33  O   UNL     1      35.983 -26.935 -14.801  0.00  0.00    -0.506 OA
ATOM     34  H   UNL     1      36.124 -27.434 -15.581  0.00  0.00    +0.292 HD
ENDBRANCH  25  33
ENDBRANCH  21  24
BRANCH  21  35
ATOM     35  C   UNL     1      34.842 -23.564 -12.343  0.00  0.00    +0.009 C 
ATOM     36  C   UNL     1      35.281 -24.369 -11.125  0.00  0.00    +0.001 C 
ENDBRANCH  21  35
ENDBRANCH   1  21
TORSDOF 9
ENDMDL
MODEL 8
REMARK VINA RESULT:      -9.5      2.994     11.521
REMARK  Name = 54689025
REMARK  9 active torsions:
REMARK  status: ('A' for Active; 'I' for Inactive)
REMARK    1  A    between atoms: C_1  and  C_21
REMARK    2  A    between atoms: C_4  and  N_8
REMARK    3  A    between atoms: C_9  and  C_11
REMARK    4  A    between atoms: C_11  and  N_13
REMARK    5  A    between atoms: C_14  and  O_16
REMARK    6  A    between atoms: O_16  and  C_17
REMARK    7  A    between atoms: C_21  and  C_24
REMARK    8  A    between atoms: C_21  and  C_35
REMARK    9  A    between atoms: C_25  and  O_33
REMARK                            x       y       z     vdW  Elec       q    Type
REMARK                         _______ _______ _______ _____ _____    ______ ____
ROOT
ATOM      1  C   UNL     1      32.524  -8.925 -21.164  0.00  0.00    -0.017 C 
ATOM      2  C   UNL     1      33.070  -9.790 -22.111  0.00  0.00    +0.011 C 
ATOM      3  C   UNL     1      31.432  -9.329 -20.396  0.00  0.00    -0.004 C 
ATOM      4  C   UNL     1      32.524 -11.061 -22.291  0.00  0.00    +0.050 C 
ATOM      5  C   UNL     1      30.886 -10.600 -20.576  0.00  0.00    +0.001 C 
ATOM      6  C   UNL     1      31.432 -11.466 -21.523  0.00  0.00    +0.015 C 
ENDROOT
BRANCH   4   8
ATOM      7  O   UNL     1      33.739 -13.790 -21.964  0.00  0.00    -0.273 OA
ATOM      8  N   UNL     1      33.069 -11.928 -23.239  0.00  0.00    -0.283 N 
ATOM      9  C   UNL     1      33.628 -13.200 -23.034  0.00  0.00    +0.246 C 
ATOM     10  H   UNL     1      33.059 -11.608 -24.170  0.00  0.00    +0.155 HD
BRANCH   9  11
ATOM     11  C   UNL     1      34.103 -13.802 -24.345  0.00  0.00    +0.179 C 
BRANCH  11  13
ATOM     12  O   UNL     1      33.871 -16.561 -25.222  0.00  0.00    -0.226 OA
ATOM     13  N   UNL     1      35.013 -14.881 -24.097  0.00  0.00    -0.262 N 
ATOM     14  C   UNL     1      34.826 -16.175 -24.555  0.00  0.00    +0.402 C 
ATOM     15  H   UNL     1      35.822 -14.691 -23.569  0.00  0.00    +0.153 HD
BRANCH  14  16
ATOM     16  O   UNL     1      35.865 -16.969 -24.156  0.00  0.00    -0.442 OA
BRANCH  16  17
ATOM     17  C   UNL     1      35.631 -17.759 -22.985  0.00  0.00    +0.138 C 
ATOM     18  C   UNL     1      35.270 -16.825 -21.831  0.00  0.00    +0.044 C 
ATOM     19  C   UNL     1      36.922 -18.518 -22.678  0.00  0.00    +0.044 C 
ATOM     20  C   UNL     1      34.491 -18.733 -23.276  0.00  0.00    +0.044 C 
ENDBRANCH  16  17
ENDBRANCH  14  16
ENDBRANCH  11  13
ENDBRANCH   9  11
ENDBRANCH   4   8
BRANCH   1  21
ATOM     21  C   UNL     1      33.119  -7.541 -20.969  0.00  0.00    +0.054 C 
BRANCH  21  24
ATOM     22  O   UNL     1      31.867  -5.570 -23.948  0.00  0.00    -0.421 OA
ATOM     23  O   UNL     1      30.848  -6.415 -22.098  0.00  0.00    -0.245 OA
ATOM     24  C   UNL     1      33.191  -6.798 -22.275  0.00  0.00    +0.091 A 
ATOM     25  C   UNL     1      34.305  -6.603 -23.005  0.00  0.00    +0.139 A 
ATOM     26  C   UNL     1      31.881  -6.261 -22.743  0.00  0.00    +0.345 A 
ATOM     27  C   UNL     1      34.256  -5.870 -24.272  0.00  0.00    +0.068 A 
ATOM     28  C   UNL     1      33.032  -5.373 -24.708  0.00  0.00    +0.152 A 
ATOM     29  C   UNL     1      35.381  -5.638 -25.077  0.00  0.00    +0.006 C 
ATOM     30  C   UNL     1      32.899  -4.665 -25.903  0.00  0.00    +0.038 C 
ATOM     31  C   UNL     1      35.264  -4.929 -26.278  0.00  0.00    +0.000 C 
ATOM     32  C   UNL     1      34.024  -4.445 -26.690  0.00  0.00    +0.003 C 
BRANCH  25  33
ATOM     33  O   UNL     1      35.561  -7.053 -22.653  0.00  0.00    -0.506 OA
ATOM     34  H   UNL     1      36.257  -7.035 -23.279  0.00  0.00    +0.292 HD
ENDBRANCH  25  33
ENDBRANCH  21  24
BRANCH  21  35
ATOM     35  C   UNL     1      32.374  -6.690 -19.920  0.00  0.00    +0.009 C 
ATOM     36  C   UNL     1      33.131  -5.422 -19.538  0.00  0.00    +0.001 C 
ENDBRANCH  21  35
ENDBRANCH   1  21
TORSDOF 9
ENDMDL
MODEL 9
REMARK VINA RESULT:      -9.1      2.316     10.690
REMARK  Name = 54689025
REMARK  9 active torsions:
REMARK  status: ('A' for Active; 'I' for Inactive)
REMARK    1  A    between atoms: C_1  and  C_21
REMARK    2  A    between atoms: C_4  and  N_8
REMARK    3  A    between atoms: C_9  and  C_11
REMARK    4  A    between atoms: C_11  and  N_13
REMARK    5  A    between atoms: C_14  and  O_16
REMARK    6  A    between atoms: O_16  and  C_17
REMARK    7  A    between atoms: C_21  and  C_24
REMARK    8  A    between atoms: C_21  and  C_35
REMARK    9  A    between atoms: C_25  and  O_33
REMARK                            x       y       z     vdW  Elec       q    Type
REMARK                         _______ _______ _______ _____ _____    ______ ____
ROOT
ATOM      1  C   UNL     1      33.504 -11.796 -23.978  0.00  0.00    -0.017 C 
ATOM      2  C   UNL     1      33.409 -13.183 -23.872  0.00  0.00    +0.011 C 
ATOM      3  C   UNL     1      33.655 -11.201 -25.231  0.00  0.00    -0.004 C 
ATOM      4  C   UNL     1      33.462 -13.976 -25.018  0.00  0.00    +0.050 C 
ATOM      5  C   UNL     1      33.710 -11.994 -26.377  0.00  0.00    +0.001 C 
ATOM      6  C   UNL     1      33.613 -13.381 -26.270  0.00  0.00    +0.015 C 
ENDROOT
BRANCH   4   8
ATOM      7  O   UNL     1      35.604 -16.083 -25.060  0.00  0.00    -0.273 OA
ATOM      8  N   UNL     1      33.368 -15.364 -24.911  0.00  0.00    -0.283 N 
ATOM      9  C   UNL     1      34.404 -16.311 -24.938  0.00  0.00    +0.246 C 
ATOM     10  H   UNL     1      32.458 -15.726 -24.803  0.00  0.00    +0.155 HD
BRANCH   9  11
ATOM     11  C   UNL     1      33.858 -17.719 -24.788  0.00  0.00    +0.179 C 
BRANCH  11  13
ATOM     12  O   UNL     1      35.536 -20.060 -24.407  0.00  0.00    -0.226 OA
ATOM     13  N   UNL     1      34.294 -18.295 -23.550  0.00  0.00    -0.262 N 
ATOM     14  C   UNL     1      35.098 -19.419 -23.456  0.00  0.00    +0.402 C 
ATOM     15  H   UNL     1      34.004 -17.865 -22.713  0.00  0.00    +0.153 HD
BRANCH  14  16
ATOM     16  O   UNL     1      35.338 -19.717 -22.144  0.00  0.00    -0.442 OA
BRANCH  16  17
ATOM     17  C   UNL     1      36.279 -18.871 -21.475  0.00  0.00    +0.138 C 
ATOM     18  C   UNL     1      37.413 -18.542 -22.444  0.00  0.00    +0.044 C 
ATOM     19  C   UNL     1      36.809 -19.640 -20.266  0.00  0.00    +0.044 C 
ATOM     20  C   UNL     1      35.558 -17.599 -21.028  0.00  0.00    +0.044 C 
ENDBRANCH  16  17
ENDBRANCH  14  16
ENDBRANCH  11  13
ENDBRANCH   9  11
ENDBRANCH   4   8
BRANCH   1  21
ATOM     21  C   UNL     1      33.445 -10.933 -22.731  0.00  0.00    +0.054 C 
BRANCH  21  24
ATOM     22  O   UNL     1      31.842  -7.533 -23.180  0.00  0.00    -0.421 OA
ATOM     23  O   UNL     1      31.072  -9.530 -22.410  0.00  0.00    -0.245 OA
ATOM     24  C   UNL     1      33.353  -9.474 -23.090  0.00  0.00    +0.091 A 
ATOM     25  C   UNL     1      34.357  -8.723 -23.581  0.00  0.00    +0.139 A 
ATOM     26  C   UNL     1      32.006  -8.874 -22.862  0.00  0.00    +0.345 A 
ATOM     27  C   UNL     1      34.150  -7.310 -23.906  0.00  0.00    +0.068 A 
ATOM     28  C   UNL     1      32.893  -6.755 -23.695  0.00  0.00    +0.152 A 
ATOM     29  C   UNL     1      35.155  -6.479 -24.422  0.00  0.00    +0.006 C 
ATOM     30  C   UNL     1      32.612  -5.417 -23.979  0.00  0.00    +0.038 C 
ATOM     31  C   UNL     1      34.890  -5.136 -24.712  0.00  0.00    +0.000 C 
ATOM     32  C   UNL     1      33.620  -4.607 -24.492  0.00  0.00    +0.003 C 
BRANCH  25  33
ATOM     33  O   UNL     1      35.635  -9.183 -23.818  0.00  0.00    -0.506 OA
ATOM     34  H   UNL     1      35.869 -10.060 -23.586  0.00  0.00    +0.292 HD
ENDBRANCH  25  33
ENDBRANCH  21  24
BRANCH  21  35
ATOM     35  C   UNL     1      32.299 -11.310 -21.770  0.00  0.00    +0.009 C 
ATOM     36  C   UNL     1      32.714 -12.341 -20.725  0.00  0.00    +0.001 C 
ENDBRANCH  21  35
ENDBRANCH   1  21
TORSDOF 9
ENDMDL
