MODEL 1
REMARK VINA RESULT:     -11.5      0.000      0.000
REMARK  Name = 2765355
REMARK  2 active torsions:
REMARK  status: ('A' for Active; 'I' for Inactive)
REMARK    1  A    between atoms: C_4  and  C_20
REMARK    2  A    between atoms: C_6  and  C_13
REMARK                            x       y       z     vdW  Elec       q    Type
REMARK                         _______ _______ _______ _____ _____    ______ ____
ROOT
ATOM      1  O   UNL     1      31.819 -22.417 -17.660  0.00  0.00    -0.353 OA
ATOM      2  N   UNL     1      31.342 -23.120 -16.562  0.00  0.00    -0.077 NA
ATOM      3  C   UNL     1      33.590 -22.880 -16.431  0.00  0.00    +0.058 A 
ATOM      4  C   UNL     1      33.168 -22.276 -17.577  0.00  0.00    +0.177 A 
ATOM      5  C   UNL     1      32.410 -23.411 -15.798  0.00  0.00    +0.123 A 
ATOM      6  C   UNL     1      34.964 -23.654 -14.756  0.00  0.00    +0.031 C 
ATOM      7  C   UNL     1      34.898 -22.957 -15.979  0.00  0.00    +0.007 C 
ATOM      8  C   UNL     1      32.502 -24.104 -14.579  0.00  0.00    +0.023 C 
ATOM      9  C   UNL     1      33.824 -24.202 -14.087  0.00  0.00    +0.004 C 
ENDROOT
BRANCH   6  13
ATOM     10  N   UNL     1      37.203 -24.369 -14.937  0.00  0.00    -0.338 NA
ATOM     11  N   UNL     1      38.751 -24.208 -13.097  0.00  0.00    -0.170 NA
ATOM     12  N   UNL     1      39.424 -25.094 -15.164  0.00  0.00    -0.293 N 
ATOM     13  C   UNL     1      36.265 -23.828 -14.138  0.00  0.00    +0.146 C 
ATOM     14  C   UNL     1      36.481 -23.455 -12.831  0.00  0.00    +0.055 C 
ATOM     15  C   UNL     1      37.759 -23.672 -12.357  0.00  0.00    +0.114 C 
ATOM     16  C   UNL     1      38.409 -24.529 -14.360  0.00  0.00    +0.141 C 
ATOM     17  H   UNL     1      39.229 -25.347 -16.096  0.00  0.00    +0.155 HD
ATOM     18  H   UNL     1      40.324 -25.234 -14.794  0.00  0.00    +0.155 HD
ENDBRANCH   6  13
BRANCH   4  20
ATOM     19 CL   UNL     1      35.710 -19.314 -22.071  0.00  0.00    -0.082 Cl
ATOM     20  C   UNL     1      33.781 -21.563 -18.661  0.00  0.00    +0.037 C 
ATOM     21  C   UNL     1      35.158 -21.660 -18.878  0.00  0.00    +0.004 C 
ATOM     22  C   UNL     1      33.005 -20.764 -19.506  0.00  0.00    +0.004 C 
ATOM     23  C   UNL     1      35.755 -20.966 -19.932  0.00  0.00    +0.011 C 
ATOM     24  C   UNL     1      33.601 -20.070 -20.560  0.00  0.00    +0.011 C 
ATOM     25  C   UNL     1      34.975 -20.170 -20.772  0.00  0.00    +0.058 C 
ENDBRANCH   4  20
TORSDOF 2
ENDMDL
MODEL 2
REMARK VINA RESULT:     -11.4      0.776      1.727
REMARK  Name = 2765355
REMARK  2 active torsions:
REMARK  status: ('A' for Active; 'I' for Inactive)
REMARK    1  A    between atoms: C_4  and  C_20
REMARK    2  A    between atoms: C_6  and  C_13
REMARK                            x       y       z     vdW  Elec       q    Type
REMARK                         _______ _______ _______ _____ _____    ______ ____
ROOT
ATOM      1  O   UNL     1      31.812 -22.377 -17.665  0.00  0.00    -0.353 OA
ATOM      2  N   UNL     1      31.327 -23.082 -16.572  0.00  0.00    -0.077 NA
ATOM      3  C   UNL     1      33.579 -22.882 -16.449  0.00  0.00    +0.058 A 
ATOM      4  C   UNL     1      33.163 -22.260 -17.586  0.00  0.00    +0.177 A 
ATOM      5  C   UNL     1      32.394 -23.398 -15.815  0.00  0.00    +0.123 A 
ATOM      6  C   UNL     1      34.947 -23.695 -14.787  0.00  0.00    +0.031 C 
ATOM      7  C   UNL     1      34.888 -22.985 -16.003  0.00  0.00    +0.007 C 
ATOM      8  C   UNL     1      32.478 -24.104 -14.603  0.00  0.00    +0.023 C 
ATOM      9  C   UNL     1      33.800 -24.229 -14.118  0.00  0.00    +0.004 C 
ENDROOT
BRANCH   6  13
ATOM     10  N   UNL     1      36.407 -23.304 -12.978  0.00  0.00    -0.338 NA
ATOM     11  N   UNL     1      38.644 -24.199 -12.922  0.00  0.00    -0.170 NA
ATOM     12  N   UNL     1      37.826 -22.887 -11.156  0.00  0.00    -0.293 N 
ATOM     13  C   UNL     1      36.247 -23.897 -14.176  0.00  0.00    +0.146 C 
ATOM     14  C   UNL     1      37.215 -24.645 -14.806  0.00  0.00    +0.055 C 
ATOM     15  C   UNL     1      38.409 -24.764 -14.124  0.00  0.00    +0.114 C 
ATOM     16  C   UNL     1      37.615 -23.493 -12.415  0.00  0.00    +0.141 C 
ATOM     17  H   UNL     1      37.108 -22.359 -10.737  0.00  0.00    +0.155 HD
ATOM     18  H   UNL     1      38.691 -22.993 -10.698  0.00  0.00    +0.155 HD
ENDBRANCH   6  13
BRANCH   4  20
ATOM     19 CL   UNL     1      35.740 -19.309 -22.069  0.00  0.00    -0.082 Cl
ATOM     20  C   UNL     1      33.784 -21.547 -18.667  0.00  0.00    +0.037 C 
ATOM     21  C   UNL     1      33.015 -20.749 -19.518  0.00  0.00    +0.004 C 
ATOM     22  C   UNL     1      35.163 -21.648 -18.876  0.00  0.00    +0.004 C 
ATOM     23  C   UNL     1      33.618 -20.056 -20.569  0.00  0.00    +0.011 C 
ATOM     24  C   UNL     1      35.766 -20.957 -19.926  0.00  0.00    +0.011 C 
ATOM     25  C   UNL     1      34.995 -20.162 -20.773  0.00  0.00    +0.058 C 
ENDBRANCH   4  20
TORSDOF 2
ENDMDL
MODEL 3
REMARK VINA RESULT:     -11.3      2.025      5.287
REMARK  Name = 2765355
REMARK  2 active torsions:
REMARK  status: ('A' for Active; 'I' for Inactive)
REMARK    1  A    between atoms: C_4  and  C_20
REMARK    2  A    between atoms: C_6  and  C_13
REMARK                            x       y       z     vdW  Elec       q    Type
REMARK                         _______ _______ _______ _____ _____    ______ ____
ROOT
ATOM      1  O   UNL     1      36.519 -22.392 -16.986  0.00  0.00    -0.353 OA
ATOM      2  N   UNL     1      36.566 -23.133 -15.812  0.00  0.00    -0.077 NA
ATOM      3  C   UNL     1      34.425 -22.885 -16.505  0.00  0.00    +0.058 A 
ATOM      4  C   UNL     1      35.232 -22.246 -17.397  0.00  0.00    +0.177 A 
ATOM      5  C   UNL     1      35.294 -23.444 -15.503  0.00  0.00    +0.123 A 
ATOM      6  C   UNL     1      32.538 -23.709 -15.477  0.00  0.00    +0.031 C 
ATOM      7  C   UNL     1      33.042 -22.971 -16.566  0.00  0.00    +0.007 C 
ATOM      8  C   UNL     1      34.767 -24.176 -14.424  0.00  0.00    +0.023 C 
ATOM      9  C   UNL     1      33.359 -24.284 -14.454  0.00  0.00    +0.004 C 
ENDROOT
BRANCH   6  13
ATOM     10  N   UNL     1      30.375 -23.095 -16.183  0.00  0.00    -0.338 NA
ATOM     11  N   UNL     1      28.394 -24.151 -15.305  0.00  0.00    -0.170 NA
ATOM     12  N   UNL     1      28.240 -22.451 -16.916  0.00  0.00    -0.293 N 
ATOM     13  C   UNL     1      31.103 -23.897 -15.384  0.00  0.00    +0.146 C 
ATOM     14  C   UNL     1      30.568 -24.836 -14.532  0.00  0.00    +0.055 C 
ATOM     15  C   UNL     1      29.190 -24.920 -14.534  0.00  0.00    +0.114 C 
ATOM     16  C   UNL     1      29.043 -23.273 -16.094  0.00  0.00    +0.141 C 
ATOM     17  H   UNL     1      28.662 -21.791 -17.514  0.00  0.00    +0.155 HD
ATOM     18  H   UNL     1      27.261 -22.538 -16.892  0.00  0.00    +0.155 HD
ENDBRANCH   6  13
BRANCH   4  20
ATOM     19 CL   UNL     1      34.492 -19.130 -22.414  0.00  0.00    -0.082 Cl
ATOM     20  C   UNL     1      35.053 -21.494 -18.606  0.00  0.00    +0.037 C 
ATOM     21  C   UNL     1      33.769 -21.259 -19.106  0.00  0.00    +0.004 C 
ATOM     22  C   UNL     1      36.162 -20.993 -19.294  0.00  0.00    +0.004 C 
ATOM     23  C   UNL     1      33.595 -20.528 -20.281  0.00  0.00    +0.011 C 
ATOM     24  C   UNL     1      35.989 -20.262 -20.469  0.00  0.00    +0.011 C 
ATOM     25  C   UNL     1      34.706 -20.030 -20.964  0.00  0.00    +0.058 C 
ENDBRANCH   4  20
TORSDOF 2
ENDMDL
MODEL 4
REMARK VINA RESULT:     -10.2      3.973      6.753
REMARK  Name = 2765355
REMARK  2 active torsions:
REMARK  status: ('A' for Active; 'I' for Inactive)
REMARK    1  A    between atoms: C_4  and  C_20
REMARK    2  A    between atoms: C_6  and  C_13
REMARK                            x       y       z     vdW  Elec       q    Type
REMARK                         _______ _______ _______ _____ _____    ______ ____
ROOT
ATOM      1  O   UNL     1      35.521 -24.044 -14.009  0.00  0.00    -0.353 OA
ATOM      2  N   UNL     1      36.839 -23.676 -14.244  0.00  0.00    -0.077 NA
ATOM      3  C   UNL     1      35.496 -22.898 -15.892  0.00  0.00    +0.058 A 
ATOM      4  C   UNL     1      34.720 -23.574 -15.000  0.00  0.00    +0.177 A 
ATOM      5  C   UNL     1      36.844 -22.974 -15.391  0.00  0.00    +0.123 A 
ATOM      6  C   UNL     1      36.137 -21.667 -17.727  0.00  0.00    +0.031 C 
ATOM      7  C   UNL     1      35.059 -22.267 -17.047  0.00  0.00    +0.007 C 
ATOM      8  C   UNL     1      37.903 -22.368 -16.089  0.00  0.00    +0.023 C 
ATOM      9  C   UNL     1      37.494 -21.713 -17.273  0.00  0.00    +0.004 C 
ENDROOT
BRANCH   6  13
ATOM     10  N   UNL     1      36.879 -20.222 -19.436  0.00  0.00    -0.338 NA
ATOM     11  N   UNL     1      35.460 -19.580 -21.275  0.00  0.00    -0.170 NA
ATOM     12  N   UNL     1      37.661 -18.780 -21.114  0.00  0.00    -0.293 N 
ATOM     13  C   UNL     1      35.857 -20.959 -18.961  0.00  0.00    +0.146 C 
ATOM     14  C   UNL     1      34.626 -21.060 -19.570  0.00  0.00    +0.055 C 
ATOM     15  C   UNL     1      34.483 -20.340 -20.739  0.00  0.00    +0.114 C 
ATOM     16  C   UNL     1      36.614 -19.566 -20.582  0.00  0.00    +0.141 C 
ATOM     17  H   UNL     1      38.527 -18.734 -20.648  0.00  0.00    +0.155 HD
ATOM     18  H   UNL     1      37.523 -18.280 -21.950  0.00  0.00    +0.155 HD
ENDBRANCH   6  13
BRANCH   4  20
ATOM     19 CL   UNL     1      28.941 -24.896 -14.460  0.00  0.00    -0.082 Cl
ATOM     20  C   UNL     1      33.327 -23.893 -14.869  0.00  0.00    +0.037 C 
ATOM     21  C   UNL     1      32.883 -24.693 -13.813  0.00  0.00    +0.004 C 
ATOM     22  C   UNL     1      32.403 -23.405 -15.798  0.00  0.00    +0.004 C 
ATOM     23  C   UNL     1      31.529 -25.003 -13.685  0.00  0.00    +0.011 C 
ATOM     24  C   UNL     1      31.048 -23.714 -15.672  0.00  0.00    +0.011 C 
ATOM     25  C   UNL     1      30.611 -24.514 -14.616  0.00  0.00    +0.058 C 
ENDBRANCH   4  20
TORSDOF 2
ENDMDL
MODEL 5
REMARK VINA RESULT:     -10.1     11.348     14.031
REMARK  Name = 2765355
REMARK  2 active torsions:
REMARK  status: ('A' for Active; 'I' for Inactive)
REMARK    1  A    between atoms: C_4  and  C_20
REMARK    2  A    between atoms: C_6  and  C_13
REMARK                            x       y       z     vdW  Elec       q    Type
REMARK                         _______ _______ _______ _____ _____    ______ ____
ROOT
ATOM      1  O   UNL     1      31.655  -8.940 -20.249  0.00  0.00    -0.353 OA
ATOM      2  N   UNL     1      31.519 -10.085 -19.475  0.00  0.00    -0.077 NA
ATOM      3  C   UNL     1      32.402 -10.598 -21.495  0.00  0.00    +0.058 A 
ATOM      4  C   UNL     1      32.185  -9.254 -21.460  0.00  0.00    +0.177 A 
ATOM      5  C   UNL     1      31.972 -11.109 -20.220  0.00  0.00    +0.123 A 
ATOM      6  C   UNL     1      33.016 -12.686 -22.241  0.00  0.00    +0.031 C 
ATOM      7  C   UNL     1      32.934 -11.316 -22.556  0.00  0.00    +0.007 C 
ATOM      8  C   UNL     1      32.063 -12.482 -19.930  0.00  0.00    +0.023 C 
ATOM      9  C   UNL     1      32.602 -13.245 -20.990  0.00  0.00    +0.004 C 
ENDROOT
BRANCH   6  13
ATOM     10  N   UNL     1      34.435 -14.491 -22.778  0.00  0.00    -0.338 NA
ATOM     11  N   UNL     1      34.636 -15.337 -25.026  0.00  0.00    -0.170 NA
ATOM     12  N   UNL     1      35.861 -16.290 -23.265  0.00  0.00    -0.293 N 
ATOM     13  C   UNL     1      33.553 -13.587 -23.244  0.00  0.00    +0.146 C 
ATOM     14  C   UNL     1      33.164 -13.490 -24.561  0.00  0.00    +0.055 C 
ATOM     15  C   UNL     1      33.745 -14.403 -25.418  0.00  0.00    +0.114 C 
ATOM     16  C   UNL     1      34.931 -15.325 -23.712  0.00  0.00    +0.141 C 
ATOM     17  H   UNL     1      36.114 -16.327 -22.314  0.00  0.00    +0.155 HD
ATOM     18  H   UNL     1      36.255 -16.925 -23.905  0.00  0.00    +0.155 HD
ENDBRANCH   6  13
BRANCH   4  20
ATOM     19 CL   UNL     1      32.966  -4.665 -25.170  0.00  0.00    -0.082 Cl
ATOM     20  C   UNL     1      32.374  -8.148 -22.355  0.00  0.00    +0.037 C 
ATOM     21  C   UNL     1      33.574  -7.431 -22.345  0.00  0.00    +0.004 C 
ATOM     22  C   UNL     1      31.359  -7.780 -23.243  0.00  0.00    +0.004 C 
ATOM     23  C   UNL     1      33.757  -6.355 -23.215  0.00  0.00    +0.011 C 
ATOM     24  C   UNL     1      31.542  -6.705 -24.113  0.00  0.00    +0.011 C 
ATOM     25  C   UNL     1      32.740  -5.992 -24.098  0.00  0.00    +0.058 C 
ENDBRANCH   4  20
TORSDOF 2
ENDMDL
MODEL 6
REMARK VINA RESULT:     -10.0     11.830     14.364
REMARK  Name = 2765355
REMARK  2 active torsions:
REMARK  status: ('A' for Active; 'I' for Inactive)
REMARK    1  A    between atoms: C_4  and  C_20
REMARK    2  A    between atoms: C_6  and  C_13
REMARK                            x       y       z     vdW  Elec       q    Type
REMARK                         _______ _______ _______ _____ _____    ______ ____
ROOT
ATOM      1  O   UNL     1      31.662  -8.642 -20.380  0.00  0.00    -0.353 OA
ATOM      2  N   UNL     1      31.465  -9.746 -19.561  0.00  0.00    -0.077 NA
ATOM      3  C   UNL     1      32.423 -10.373 -21.514  0.00  0.00    +0.058 A 
ATOM      4  C   UNL     1      32.237  -9.024 -21.550  0.00  0.00    +0.177 A 
ATOM      5  C   UNL     1      31.925 -10.814 -20.237  0.00  0.00    +0.123 A 
ATOM      6  C   UNL     1      33.020 -12.506 -22.135  0.00  0.00    +0.031 C 
ATOM      7  C   UNL     1      32.984 -11.150 -22.516  0.00  0.00    +0.007 C 
ATOM      8  C   UNL     1      31.971 -12.173 -19.880  0.00  0.00    +0.023 C 
ATOM      9  C   UNL     1      32.538 -12.996 -20.879  0.00  0.00    +0.004 C 
ENDROOT
BRANCH   6  13
ATOM     10  N   UNL     1      32.980 -13.493 -24.275  0.00  0.00    -0.338 NA
ATOM     11  N   UNL     1      34.533 -15.220 -24.918  0.00  0.00    -0.170 NA
ATOM     12  N   UNL     1      32.901 -14.447 -26.418  0.00  0.00    -0.293 N 
ATOM     13  C   UNL     1      33.579 -13.464 -23.070  0.00  0.00    +0.146 C 
ATOM     14  C   UNL     1      34.641 -14.263 -22.712  0.00  0.00    +0.055 C 
ATOM     15  C   UNL     1      35.081 -15.134 -23.689  0.00  0.00    +0.114 C 
ATOM     16  C   UNL     1      33.501 -14.383 -25.140  0.00  0.00    +0.141 C 
ATOM     17  H   UNL     1      32.143 -13.857 -26.636  0.00  0.00    +0.155 HD
ATOM     18  H   UNL     1      33.242 -15.080 -27.090  0.00  0.00    +0.155 HD
ENDBRANCH   6  13
BRANCH   4  20
ATOM     19 CL   UNL     1      33.295  -4.637 -25.432  0.00  0.00    -0.082 Cl
ATOM     20  C   UNL     1      32.491  -7.966 -22.485  0.00  0.00    +0.037 C 
ATOM     21  C   UNL     1      31.459  -7.473 -23.290  0.00  0.00    +0.004 C 
ATOM     22  C   UNL     1      33.773  -7.421 -22.600  0.00  0.00    +0.004 C 
ATOM     23  C   UNL     1      31.706  -6.444 -24.199  0.00  0.00    +0.011 C 
ATOM     24  C   UNL     1      34.021  -6.392 -23.510  0.00  0.00    +0.011 C 
ATOM     25  C   UNL     1      32.989  -5.905 -24.310  0.00  0.00    +0.058 C 
ENDBRANCH   4  20
TORSDOF 2
ENDMDL
MODEL 7
REMARK VINA RESULT:      -9.9      3.710      7.231
REMARK  Name = 2765355
REMARK  2 active torsions:
REMARK  status: ('A' for Active; 'I' for Inactive)
REMARK    1  A    between atoms: C_4  and  C_20
REMARK    2  A    between atoms: C_6  and  C_13
REMARK                            x       y       z     vdW  Elec       q    Type
REMARK                         _______ _______ _______ _____ _____    ______ ____
ROOT
ATOM      1  O   UNL     1      36.677 -22.420 -17.085  0.00  0.00    -0.353 OA
ATOM      2  N   UNL     1      35.984 -21.872 -18.155  0.00  0.00    -0.077 NA
ATOM      3  C   UNL     1      34.541 -22.742 -16.643  0.00  0.00    +0.058 A 
ATOM      4  C   UNL     1      35.807 -22.941 -16.181  0.00  0.00    +0.177 A 
ATOM      5  C   UNL     1      34.676 -22.057 -17.903  0.00  0.00    +0.123 A 
ATOM      6  C   UNL     1      32.245 -22.756 -16.779  0.00  0.00    +0.031 C 
ATOM      7  C   UNL     1      33.368 -23.126 -16.012  0.00  0.00    +0.007 C 
ATOM      8  C   UNL     1      33.540 -21.700 -18.650  0.00  0.00    +0.023 C 
ATOM      9  C   UNL     1      32.324 -22.077 -18.036  0.00  0.00    +0.004 C 
ENDROOT
BRANCH   6  13
ATOM     10  N   UNL     1      29.913 -22.418 -16.844  0.00  0.00    -0.338 NA
ATOM     11  N   UNL     1      28.405 -23.606 -15.387  0.00  0.00    -0.170 NA
ATOM     12  N   UNL     1      27.597 -22.046 -16.944  0.00  0.00    -0.293 N 
ATOM     13  C   UNL     1      30.929 -23.084 -16.264  0.00  0.00    +0.146 C 
ATOM     14  C   UNL     1      30.774 -24.011 -15.258  0.00  0.00    +0.055 C 
ATOM     15  C   UNL     1      29.473 -24.234 -14.855  0.00  0.00    +0.114 C 
ATOM     16  C   UNL     1      28.693 -22.724 -16.363  0.00  0.00    +0.141 C 
ATOM     17  H   UNL     1      27.750 -21.390 -17.663  0.00  0.00    +0.155 HD
ATOM     18  H   UNL     1      26.683 -22.231 -16.632  0.00  0.00    +0.155 HD
ENDBRANCH   6  13
BRANCH   4  20
ATOM     19 CL   UNL     1      38.290 -25.429 -11.376  0.00  0.00    -0.082 Cl
ATOM     20  C   UNL     1      36.406 -23.541 -15.023  0.00  0.00    +0.037 C 
ATOM     21  C   UNL     1      36.582 -24.927 -14.959  0.00  0.00    +0.004 C 
ATOM     22  C   UNL     1      36.818 -22.745 -13.950  0.00  0.00    +0.004 C 
ATOM     23  C   UNL     1      37.165 -25.510 -13.833  0.00  0.00    +0.011 C 
ATOM     24  C   UNL     1      37.400 -23.328 -12.825  0.00  0.00    +0.011 C 
ATOM     25  C   UNL     1      37.573 -24.710 -12.765  0.00  0.00    +0.058 C 
ENDBRANCH   4  20
TORSDOF 2
ENDMDL
MODEL 8
REMARK VINA RESULT:      -9.4      7.781     11.352
REMARK  Name = 2765355
REMARK  2 active torsions:
REMARK  status: ('A' for Active; 'I' for Inactive)
REMARK    1  A    between atoms: C_4  and  C_20
REMARK    2  A    between atoms: C_6  and  C_13
REMARK                            x       y       z     vdW  Elec       q    Type
REMARK                         _______ _______ _______ _____ _____    ______ ____
ROOT
ATOM      1  O   UNL     1      35.596 -17.630 -24.535  0.00  0.00    -0.353 OA
ATOM      2  N   UNL     1      35.220 -16.680 -25.474  0.00  0.00    -0.077 NA
ATOM      3  C   UNL     1      34.678 -15.987 -23.388  0.00  0.00    +0.058 A 
ATOM      4  C   UNL     1      35.269 -17.210 -23.286  0.00  0.00    +0.177 A 
ATOM      5  C   UNL     1      34.657 -15.666 -24.792  0.00  0.00    +0.123 A 
ATOM      6  C   UNL     1      33.654 -14.008 -22.815  0.00  0.00    +0.031 C 
ATOM      7  C   UNL     1      34.200 -15.216 -22.339  0.00  0.00    +0.007 C 
ATOM      8  C   UNL     1      34.105 -14.455 -25.242  0.00  0.00    +0.023 C 
ATOM      9  C   UNL     1      33.607 -13.643 -24.198  0.00  0.00    +0.004 C 
ENDROOT
BRANCH   6  13
ATOM     10  N   UNL     1      32.737 -11.886 -22.353  0.00  0.00    -0.338 NA
ATOM     11  N   UNL     1      32.059 -11.240 -20.132  0.00  0.00    -0.170 NA
ATOM     12  N   UNL     1      31.830  -9.761 -21.940  0.00  0.00    -0.293 N 
ATOM     13  C   UNL     1      33.105 -13.078 -21.847  0.00  0.00    +0.146 C 
ATOM     14  C   UNL     1      32.986 -13.427 -20.520  0.00  0.00    +0.055 C 
ATOM     15  C   UNL     1      32.450 -12.457 -19.699  0.00  0.00    +0.114 C 
ATOM     16  C   UNL     1      32.229 -11.025 -21.451  0.00  0.00    +0.141 C 
ATOM     17  H   UNL     1      31.931  -9.550 -22.897  0.00  0.00    +0.155 HD
ATOM     18  H   UNL     1      31.451  -9.093 -21.325  0.00  0.00    +0.155 HD
ENDBRANCH   6  13
BRANCH   4  20
ATOM     19 CL   UNL     1      36.679 -20.957 -18.880  0.00  0.00    -0.082 Cl
ATOM     20  C   UNL     1      35.609 -18.112 -22.223  0.00  0.00    +0.037 C 
ATOM     21  C   UNL     1      36.904 -18.124 -21.696  0.00  0.00    +0.004 C 
ATOM     22  C   UNL     1      34.648 -18.988 -21.708  0.00  0.00    +0.004 C 
ATOM     23  C   UNL     1      37.235 -19.002 -20.662  0.00  0.00    +0.011 C 
ATOM     24  C   UNL     1      34.978 -19.866 -20.676  0.00  0.00    +0.011 C 
ATOM     25  C   UNL     1      36.271 -19.874 -20.153  0.00  0.00    +0.058 C 
ENDBRANCH   4  20
TORSDOF 2
ENDMDL
MODEL 9
REMARK VINA RESULT:      -9.4      4.185      7.128
REMARK  Name = 2765355
REMARK  2 active torsions:
REMARK  status: ('A' for Active; 'I' for Inactive)
REMARK    1  A    between atoms: C_4  and  C_20
REMARK    2  A    between atoms: C_6  and  C_13
REMARK                            x       y       z     vdW  Elec       q    Type
REMARK                         _______ _______ _______ _____ _____    ______ ____
ROOT
ATOM      1  O   UNL     1      33.306 -23.089 -16.691  0.00  0.00    -0.353 OA
ATOM      2  N   UNL     1      32.319 -22.576 -17.522  0.00  0.00    -0.077 NA
ATOM      3  C   UNL     1      34.360 -21.846 -18.175  0.00  0.00    +0.058 A 
ATOM      4  C   UNL     1      34.528 -22.649 -17.087  0.00  0.00    +0.177 A 
ATOM      5  C   UNL     1      32.945 -21.814 -18.437  0.00  0.00    +0.123 A 
ATOM      6  C   UNL     1      34.825 -20.456 -19.948  0.00  0.00    +0.031 C 
ATOM      7  C   UNL     1      35.364 -21.199 -18.879  0.00  0.00    +0.007 C 
ATOM      8  C   UNL     1      32.431 -21.063 -19.508  0.00  0.00    +0.023 C 
ATOM      9  C   UNL     1      33.428 -20.389 -20.250  0.00  0.00    +0.004 C 
ENDROOT
BRANCH   6  13
ATOM     10  N   UNL     1      35.217 -19.290 -21.959  0.00  0.00    -0.338 NA
ATOM     11  N   UNL     1      37.356 -18.306 -22.473  0.00  0.00    -0.170 NA
ATOM     12  N   UNL     1      35.560 -18.138 -23.975  0.00  0.00    -0.293 N 
ATOM     13  C   UNL     1      35.741 -19.713 -20.793  0.00  0.00    +0.146 C 
ATOM     14  C   UNL     1      37.038 -19.481 -20.396  0.00  0.00    +0.055 C 
ATOM     15  C   UNL     1      37.810 -18.763 -21.288  0.00  0.00    +0.114 C 
ATOM     16  C   UNL     1      36.069 -18.601 -22.741  0.00  0.00    +0.141 C 
ATOM     17  H   UNL     1      34.625 -18.324 -24.222  0.00  0.00    +0.155 HD
ATOM     18  H   UNL     1      36.139 -17.629 -24.585  0.00  0.00    +0.155 HD
ENDBRANCH   6  13
BRANCH   4  20
ATOM     19 CL   UNL     1      39.120 -24.572 -13.823  0.00  0.00    -0.082 Cl
ATOM     20  C   UNL     1      35.635 -23.113 -16.301  0.00  0.00    +0.037 C 
ATOM     21  C   UNL     1      35.512 -24.268 -15.523  0.00  0.00    +0.004 C 
ATOM     22  C   UNL     1      36.845 -22.413 -16.305  0.00  0.00    +0.004 C 
ATOM     23  C   UNL     1      36.588 -24.720 -14.758  0.00  0.00    +0.011 C 
ATOM     24  C   UNL     1      37.921 -22.863 -15.541  0.00  0.00    +0.011 C 
ATOM     25  C   UNL     1      37.793 -24.016 -14.767  0.00  0.00    +0.058 C 
ENDBRANCH   4  20
TORSDOF 2
ENDMDL
