MODEL 1
REMARK VINA RESULT:     -13.4      0.000      0.000
REMARK  Name = 16741238
REMARK  6 active torsions:
REMARK  status: ('A' for Active; 'I' for Inactive)
REMARK    1  A    between atoms: N_1  and  C_22
REMARK    2  A    between atoms: C_10  and  C_15
REMARK    3  A    between atoms: C_15  and  C_16
REMARK    4  A    between atoms: C_22  and  C_23
REMARK    5  A    between atoms: C_23  and  C_26
REMARK    6  A    between atoms: N_25  and  C_28
REMARK                            x       y       z     vdW  Elec       q    Type
REMARK                         _______ _______ _______ _____ _____    ______ ____
ROOT
ATOM      1  N   UNL     1      34.174 -13.764 -24.595  0.00  0.00    -0.249 N 
ATOM      2  N   UNL     1      33.476 -15.850 -25.568  0.00  0.00    -0.373 NA
ATOM      3  N   UNL     1      32.852 -13.849 -26.545  0.00  0.00    -0.321 N 
ATOM      4  C   UNL     1      34.912 -14.389 -23.496  0.00  0.00    +0.071 C 
ATOM      5  C   UNL     1      34.852 -15.890 -23.534  0.00  0.00    +0.045 C 
ATOM      6  C   UNL     1      33.511 -14.540 -25.552  0.00  0.00    +0.239 C 
ATOM      7  C   UNL     1      34.148 -16.549 -24.552  0.00  0.00    +0.136 C 
ATOM      8  C   UNL     1      35.506 -16.637 -22.544  0.00  0.00    +0.007 C 
ATOM      9  C   UNL     1      34.111 -17.949 -24.564  0.00  0.00    +0.032 C 
ATOM     10  C   UNL     1      35.462 -18.030 -22.565  0.00  0.00    +0.039 C 
ATOM     11  C   UNL     1      34.764 -18.687 -23.576  0.00  0.00    +0.006 C 
ATOM     12  H   UNL     1      32.866 -12.864 -26.552  0.00  0.00    +0.146 HD
ATOM     13  H   UNL     1      32.367 -14.340 -27.247  0.00  0.00    +0.146 HD
ENDROOT
BRANCH  10  15
ATOM     14  O   UNL     1      37.354 -18.632 -21.329  0.00  0.00    -0.287 OA
ATOM     15  C   UNL     1      36.142 -18.797 -21.534  0.00  0.00    +0.196 C 
BRANCH  15  16
ATOM     16  C   UNL     1      35.434 -19.800 -20.683  0.00  0.00    +0.039 C 
ATOM     17  C   UNL     1      34.040 -19.819 -20.640  0.00  0.00    +0.003 C 
ATOM     18  C   UNL     1      36.167 -20.719 -19.931  0.00  0.00    +0.003 C 
ATOM     19  C   UNL     1      33.379 -20.756 -19.847  0.00  0.00    +0.000 C 
ATOM     20  C   UNL     1      35.506 -21.656 -19.138  0.00  0.00    +0.000 C 
ATOM     21  C   UNL     1      34.111 -21.674 -19.095  0.00  0.00    +0.000 C 
ENDBRANCH  15  16
ENDBRANCH  10  15
BRANCH   1  22
ATOM     22  C   UNL     1      34.195 -12.305 -24.605  0.00  0.00    +0.109 C 
BRANCH  22  23
ATOM     23  C   UNL     1      33.475 -11.753 -23.378  0.00  0.00    +0.107 C 
BRANCH  23  26
ATOM     24  O   UNL     1      34.484  -9.618 -23.816  0.00  0.00    -0.275 OA
ATOM     25  N   UNL     1      32.651  -9.627 -22.396  0.00  0.00    -0.279 N 
ATOM     26  C   UNL     1      33.596 -10.240 -23.226  0.00  0.00    +0.227 C 
ATOM     27  C   UNL     1      31.607 -10.382 -21.706  0.00  0.00    +0.115 C 
BRANCH  25  28
ATOM     28  C   UNL     1      32.637  -8.204 -22.157  0.00  0.00    +0.075 C 
ATOM     29  C   UNL     1      32.735  -7.910 -20.659  0.00  0.00    +0.020 C 
ATOM     30  C   UNL     1      31.389  -7.564 -22.771  0.00  0.00    +0.020 C 
ATOM     31  C   UNL     1      32.669  -6.412 -20.372  0.00  0.00    +0.002 C 
ATOM     32  C   UNL     1      31.326  -6.065 -22.483  0.00  0.00    +0.002 C 
ATOM     33  C   UNL     1      31.426  -5.776 -20.988  0.00  0.00    +0.000 C 
ENDBRANCH  25  28
ENDBRANCH  23  26
ENDBRANCH  22  23
ENDBRANCH   1  22
TORSDOF 6
ENDMDL
MODEL 2
REMARK VINA RESULT:     -11.6      6.327     11.018
REMARK  Name = 16741238
REMARK  6 active torsions:
REMARK  status: ('A' for Active; 'I' for Inactive)
REMARK    1  A    between atoms: N_1  and  C_22
REMARK    2  A    between atoms: C_10  and  C_15
REMARK    3  A    between atoms: C_15  and  C_16
REMARK    4  A    between atoms: C_22  and  C_23
REMARK    5  A    between atoms: C_23  and  C_26
REMARK    6  A    between atoms: N_25  and  C_28
REMARK                            x       y       z     vdW  Elec       q    Type
REMARK                         _______ _______ _______ _____ _____    ______ ____
ROOT
ATOM      1  N   UNL     1      36.373 -22.334 -16.770  0.00  0.00    -0.249 N 
ATOM      2  N   UNL     1      36.777 -23.387 -14.646  0.00  0.00    -0.373 NA
ATOM      3  N   UNL     1      38.555 -22.769 -15.991  0.00  0.00    -0.321 N 
ATOM      4  C   UNL     1      34.916 -22.360 -16.638  0.00  0.00    +0.071 C 
ATOM      5  C   UNL     1      34.460 -22.986 -15.350  0.00  0.00    +0.045 C 
ATOM      6  C   UNL     1      37.198 -22.848 -15.765  0.00  0.00    +0.239 C 
ATOM      7  C   UNL     1      35.394 -23.466 -14.422  0.00  0.00    +0.136 C 
ATOM      8  C   UNL     1      33.088 -23.090 -15.076  0.00  0.00    +0.007 C 
ATOM      9  C   UNL     1      34.940 -24.044 -13.230  0.00  0.00    +0.032 C 
ATOM     10  C   UNL     1      32.647 -23.668 -13.886  0.00  0.00    +0.039 C 
ATOM     11  C   UNL     1      33.574 -24.145 -12.962  0.00  0.00    +0.006 C 
ATOM     12  H   UNL     1      38.892 -22.367 -16.824  0.00  0.00    +0.146 HD
ATOM     13  H   UNL     1      39.186 -23.115 -15.319  0.00  0.00    +0.146 HD
ENDROOT
BRANCH  10  15
ATOM     14  O   UNL     1      30.826 -24.020 -12.462  0.00  0.00    -0.287 OA
ATOM     15  C   UNL     1      31.224 -23.773 -13.610  0.00  0.00    +0.196 C 
BRANCH  15  16
ATOM     16  C   UNL     1      30.188 -23.590 -14.671  0.00  0.00    +0.039 C 
ATOM     17  C   UNL     1      29.639 -22.328 -14.901  0.00  0.00    +0.003 C 
ATOM     18  C   UNL     1      29.768 -24.681 -15.432  0.00  0.00    +0.003 C 
ATOM     19  C   UNL     1      28.673 -22.158 -15.891  0.00  0.00    +0.000 C 
ATOM     20  C   UNL     1      28.801 -24.511 -16.422  0.00  0.00    +0.000 C 
ATOM     21  C   UNL     1      28.253 -23.249 -16.652  0.00  0.00    +0.000 C 
ENDBRANCH  15  16
ENDBRANCH  10  15
BRANCH   1  22
ATOM     22  C   UNL     1      36.873 -21.739 -18.006  0.00  0.00    +0.109 C 
BRANCH  22  23
ATOM     23  C   UNL     1      35.717 -21.214 -18.851  0.00  0.00    +0.107 C 
BRANCH  23  26
ATOM     24  O   UNL     1      37.357 -20.124 -20.224  0.00  0.00    -0.275 OA
ATOM     25  N   UNL     1      35.138 -19.827 -20.827  0.00  0.00    -0.279 N 
ATOM     26  C   UNL     1      36.160 -20.343 -20.022  0.00  0.00    +0.227 C 
ATOM     27  C   UNL     1      33.725 -20.098 -20.570  0.00  0.00    +0.115 C 
BRANCH  25  28
ATOM     28  C   UNL     1      35.403 -18.988 -21.971  0.00  0.00    +0.075 C 
ATOM     29  C   UNL     1      35.514 -17.522 -21.547  0.00  0.00    +0.020 C 
ATOM     30  C   UNL     1      34.326 -19.178 -23.043  0.00  0.00    +0.020 C 
ATOM     31  C   UNL     1      35.742 -16.604 -22.745  0.00  0.00    +0.002 C 
ATOM     32  C   UNL     1      34.557 -18.259 -24.241  0.00  0.00    +0.002 C 
ATOM     33  C   UNL     1      34.670 -16.798 -23.814  0.00  0.00    +0.000 C 
ENDBRANCH  25  28
ENDBRANCH  23  26
ENDBRANCH  22  23
ENDBRANCH   1  22
TORSDOF 6
ENDMDL
MODEL 3
REMARK VINA RESULT:     -11.3      2.294     10.235
REMARK  Name = 16741238
REMARK  6 active torsions:
REMARK  status: ('A' for Active; 'I' for Inactive)
REMARK    1  A    between atoms: N_1  and  C_22
REMARK    2  A    between atoms: C_10  and  C_15
REMARK    3  A    between atoms: C_15  and  C_16
REMARK    4  A    between atoms: C_22  and  C_23
REMARK    5  A    between atoms: C_23  and  C_26
REMARK    6  A    between atoms: N_25  and  C_28
REMARK                            x       y       z     vdW  Elec       q    Type
REMARK                         _______ _______ _______ _____ _____    ______ ____
ROOT
ATOM      1  N   UNL     1      35.418 -17.691 -23.022  0.00  0.00    -0.249 N 
ATOM      2  N   UNL     1      34.270 -17.199 -25.077  0.00  0.00    -0.373 NA
ATOM      3  N   UNL     1      34.908 -19.370 -24.596  0.00  0.00    -0.321 N 
ATOM      4  C   UNL     1      35.410 -16.306 -22.549  0.00  0.00    +0.071 C 
ATOM      5  C   UNL     1      34.747 -15.365 -23.516  0.00  0.00    +0.045 C 
ATOM      6  C   UNL     1      34.847 -18.038 -24.251  0.00  0.00    +0.239 C 
ATOM      7  C   UNL     1      34.213 -15.843 -24.721  0.00  0.00    +0.136 C 
ATOM      8  C   UNL     1      34.663 -14.000 -23.209  0.00  0.00    +0.007 C 
ATOM      9  C   UNL     1      33.601 -14.943 -25.603  0.00  0.00    +0.032 C 
ATOM     10  C   UNL     1      34.051 -13.113 -24.094  0.00  0.00    +0.039 C 
ATOM     11  C   UNL     1      33.520 -13.585 -25.292  0.00  0.00    +0.006 C 
ATOM     12  H   UNL     1      35.336 -20.017 -23.989  0.00  0.00    +0.146 HD
ATOM     13  H   UNL     1      34.523 -19.675 -25.449  0.00  0.00    +0.146 HD
ENDROOT
BRANCH  10  15
ATOM     14  O   UNL     1      34.675 -10.876 -24.371  0.00  0.00    -0.287 OA
ATOM     15  C   UNL     1      33.969 -11.699 -23.769  0.00  0.00    +0.196 C 
BRANCH  15  16
ATOM     16  C   UNL     1      33.049 -11.172 -22.716  0.00  0.00    +0.039 C 
ATOM     17  C   UNL     1      32.715  -9.818 -22.695  0.00  0.00    +0.003 C 
ATOM     18  C   UNL     1      32.522 -12.035 -21.755  0.00  0.00    +0.003 C 
ATOM     19  C   UNL     1      31.856  -9.327 -21.713  0.00  0.00    +0.000 C 
ATOM     20  C   UNL     1      31.662 -11.544 -20.773  0.00  0.00    +0.000 C 
ATOM     21  C   UNL     1      31.329 -10.189 -20.751  0.00  0.00    +0.000 C 
ENDBRANCH  15  16
ENDBRANCH  10  15
BRANCH   1  22
ATOM     22  C   UNL     1      36.054 -18.649 -22.123  0.00  0.00    +0.109 C 
BRANCH  22  23
ATOM     23  C   UNL     1      35.009 -19.331 -21.245  0.00  0.00    +0.107 C 
BRANCH  23  26
ATOM     24  O   UNL     1      36.824 -20.424 -20.114  0.00  0.00    -0.275 OA
ATOM     25  N   UNL     1      34.683 -21.035 -19.469  0.00  0.00    -0.279 N 
ATOM     26  C   UNL     1      35.601 -20.307 -20.232  0.00  0.00    +0.227 C 
ATOM     27  C   UNL     1      33.238 -20.882 -19.625  0.00  0.00    +0.115 C 
BRANCH  25  28
ATOM     28  C   UNL     1      35.094 -21.993 -18.471  0.00  0.00    +0.075 C 
ATOM     29  C   UNL     1      33.894 -22.442 -17.633  0.00  0.00    +0.020 C 
ATOM     30  C   UNL     1      36.204 -21.415 -17.589  0.00  0.00    +0.020 C 
ATOM     31  C   UNL     1      34.307 -23.417 -16.533  0.00  0.00    +0.002 C 
ATOM     32  C   UNL     1      36.615 -22.392 -16.490  0.00  0.00    +0.002 C 
ATOM     33  C   UNL     1      35.417 -22.839 -15.658  0.00  0.00    +0.000 C 
ENDBRANCH  25  28
ENDBRANCH  23  26
ENDBRANCH  22  23
ENDBRANCH   1  22
TORSDOF 6
ENDMDL
MODEL 4
REMARK VINA RESULT:     -11.3      3.463      6.365
REMARK  Name = 16741238
REMARK  6 active torsions:
REMARK  status: ('A' for Active; 'I' for Inactive)
REMARK    1  A    between atoms: N_1  and  C_22
REMARK    2  A    between atoms: C_10  and  C_15
REMARK    3  A    between atoms: C_15  and  C_16
REMARK    4  A    between atoms: C_22  and  C_23
REMARK    5  A    between atoms: C_23  and  C_26
REMARK    6  A    between atoms: N_25  and  C_28
REMARK                            x       y       z     vdW  Elec       q    Type
REMARK                         _______ _______ _______ _____ _____    ______ ____
ROOT
ATOM      1  N   UNL     1      35.998 -18.940 -21.938  0.00  0.00    -0.249 N 
ATOM      2  N   UNL     1      37.472 -19.441 -20.104  0.00  0.00    -0.373 NA
ATOM      3  N   UNL     1      38.096 -17.891 -21.704  0.00  0.00    -0.321 N 
ATOM      4  C   UNL     1      34.952 -19.867 -21.504  0.00  0.00    +0.071 C 
ATOM      5  C   UNL     1      35.312 -20.600 -20.242  0.00  0.00    +0.045 C 
ATOM      6  C   UNL     1      37.181 -18.793 -21.207  0.00  0.00    +0.239 C 
ATOM      7  C   UNL     1      36.537 -20.361 -19.604  0.00  0.00    +0.136 C 
ATOM      8  C   UNL     1      34.413 -21.530 -19.698  0.00  0.00    +0.007 C 
ATOM      9  C   UNL     1      36.845 -21.057 -18.429  0.00  0.00    +0.032 C 
ATOM     10  C   UNL     1      34.731 -22.218 -18.528  0.00  0.00    +0.039 C 
ATOM     11  C   UNL     1      35.947 -21.982 -17.893  0.00  0.00    +0.006 C 
ATOM     12  H   UNL     1      37.897 -17.392 -22.530  0.00  0.00    +0.146 HD
ATOM     13  H   UNL     1      38.947 -17.744 -21.233  0.00  0.00    +0.146 HD
ENDROOT
BRANCH  10  15
ATOM     14  O   UNL     1      33.544 -24.233 -18.579  0.00  0.00    -0.287 OA
ATOM     15  C   UNL     1      33.794 -23.181 -17.972  0.00  0.00    +0.196 C 
BRANCH  15  16
ATOM     16  C   UNL     1      33.099 -22.961 -16.668  0.00  0.00    +0.039 C 
ATOM     17  C   UNL     1      31.743 -22.635 -16.646  0.00  0.00    +0.003 C 
ATOM     18  C   UNL     1      33.806 -23.082 -15.471  0.00  0.00    +0.003 C 
ATOM     19  C   UNL     1      31.095 -22.431 -15.428  0.00  0.00    +0.000 C 
ATOM     20  C   UNL     1      33.158 -22.877 -14.254  0.00  0.00    +0.000 C 
ATOM     21  C   UNL     1      31.802 -22.551 -14.233  0.00  0.00    +0.000 C 
ENDBRANCH  15  16
ENDBRANCH  10  15
BRANCH   1  22
ATOM     22  C   UNL     1      35.704 -18.203 -23.163  0.00  0.00    +0.109 C 
BRANCH  22  23
ATOM     23  C   UNL     1      34.990 -16.893 -22.839  0.00  0.00    +0.107 C 
BRANCH  23  26
ATOM     24  O   UNL     1      35.335 -16.232 -25.121  0.00  0.00    -0.275 OA
ATOM     25  N   UNL     1      34.650 -14.573 -23.654  0.00  0.00    -0.279 N 
ATOM     26  C   UNL     1      35.013 -15.884 -23.982  0.00  0.00    +0.227 C 
ATOM     27  C   UNL     1      34.272 -14.181 -22.298  0.00  0.00    +0.115 C 
BRANCH  25  28
ATOM     28  C   UNL     1      34.622 -13.510 -24.630  0.00  0.00    +0.075 C 
ATOM     29  C   UNL     1      34.382 -12.162 -23.947  0.00  0.00    +0.020 C 
ATOM     30  C   UNL     1      33.565 -13.787 -25.703  0.00  0.00    +0.020 C 
ATOM     31  C   UNL     1      34.295 -11.024 -24.962  0.00  0.00    +0.002 C 
ATOM     32  C   UNL     1      33.481 -12.648 -26.716  0.00  0.00    +0.002 C 
ATOM     33  C   UNL     1      33.244 -11.305 -26.032  0.00  0.00    +0.000 C 
ENDBRANCH  25  28
ENDBRANCH  23  26
ENDBRANCH  22  23
ENDBRANCH   1  22
TORSDOF 6
ENDMDL
MODEL 5
REMARK VINA RESULT:     -11.3      6.337     11.190
REMARK  Name = 16741238
REMARK  6 active torsions:
REMARK  status: ('A' for Active; 'I' for Inactive)
REMARK    1  A    between atoms: N_1  and  C_22
REMARK    2  A    between atoms: C_10  and  C_15
REMARK    3  A    between atoms: C_15  and  C_16
REMARK    4  A    between atoms: C_22  and  C_23
REMARK    5  A    between atoms: C_23  and  C_26
REMARK    6  A    between atoms: N_25  and  C_28
REMARK                            x       y       z     vdW  Elec       q    Type
REMARK                         _______ _______ _______ _____ _____    ______ ____
ROOT
ATOM      1  N   UNL     1      33.269 -22.817 -17.198  0.00  0.00    -0.249 N 
ATOM      2  N   UNL     1      32.247 -23.087 -15.038  0.00  0.00    -0.373 NA
ATOM      3  N   UNL     1      30.985 -22.358 -16.835  0.00  0.00    -0.321 N 
ATOM      4  C   UNL     1      34.597 -23.243 -16.754  0.00  0.00    +0.071 C 
ATOM      5  C   UNL     1      34.636 -23.595 -15.293  0.00  0.00    +0.045 C 
ATOM      6  C   UNL     1      32.190 -22.771 -16.309  0.00  0.00    +0.239 C 
ATOM      7  C   UNL     1      33.478 -23.504 -14.508  0.00  0.00    +0.136 C 
ATOM      8  C   UNL     1      35.840 -24.018 -14.713  0.00  0.00    +0.007 C 
ATOM      9  C   UNL     1      33.544 -23.840 -13.150  0.00  0.00    +0.032 C 
ATOM     10  C   UNL     1      35.894 -24.349 -13.359  0.00  0.00    +0.039 C 
ATOM     11  C   UNL     1      34.745 -24.260 -12.577  0.00  0.00    +0.006 C 
ATOM     12  H   UNL     1      30.921 -22.117 -17.787  0.00  0.00    +0.146 HD
ATOM     13  H   UNL     1      30.189 -22.306 -16.258  0.00  0.00    +0.146 HD
ENDROOT
BRANCH  10  15
ATOM     14  O   UNL     1      37.338 -24.663 -11.546  0.00  0.00    -0.287 OA
ATOM     15  C   UNL     1      37.147 -24.786 -12.765  0.00  0.00    +0.196 C 
BRANCH  15  16
ATOM     16  C   UNL     1      38.246 -25.396 -13.573  0.00  0.00    +0.039 C 
ATOM     17  C   UNL     1      39.552 -24.926 -13.441  0.00  0.00    +0.003 C 
ATOM     18  C   UNL     1      37.966 -26.436 -14.460  0.00  0.00    +0.003 C 
ATOM     19  C   UNL     1      40.578 -25.496 -14.194  0.00  0.00    +0.000 C 
ATOM     20  C   UNL     1      38.992 -27.006 -15.213  0.00  0.00    +0.000 C 
ATOM     21  C   UNL     1      40.299 -26.535 -15.080  0.00  0.00    +0.000 C 
ENDBRANCH  15  16
ENDBRANCH  10  15
BRANCH   1  22
ATOM     22  C   UNL     1      33.173 -22.458 -18.610  0.00  0.00    +0.109 C 
BRANCH  22  23
ATOM     23  C   UNL     1      34.289 -21.490 -18.991  0.00  0.00    +0.107 C 
BRANCH  23  26
ATOM     24  O   UNL     1      32.687 -20.274 -20.303  0.00  0.00    -0.275 OA
ATOM     25  N   UNL     1      34.920 -19.772 -20.669  0.00  0.00    -0.279 N 
ATOM     26  C   UNL     1      33.878 -20.464 -20.042  0.00  0.00    +0.227 C 
ATOM     27  C   UNL     1      36.325 -20.012 -20.346  0.00  0.00    +0.115 C 
BRANCH  25  28
ATOM     28  C   UNL     1      34.686 -18.770 -21.681  0.00  0.00    +0.075 C 
ATOM     29  C   UNL     1      34.853 -19.372 -23.079  0.00  0.00    +0.020 C 
ATOM     30  C   UNL     1      35.611 -17.568 -21.478  0.00  0.00    +0.020 C 
ATOM     31  C   UNL     1      34.663 -18.322 -24.170  0.00  0.00    +0.002 C 
ATOM     32  C   UNL     1      35.419 -16.519 -22.571  0.00  0.00    +0.002 C 
ATOM     33  C   UNL     1      35.583 -17.122 -23.963  0.00  0.00    +0.000 C 
ENDBRANCH  25  28
ENDBRANCH  23  26
ENDBRANCH  22  23
ENDBRANCH   1  22
TORSDOF 6
ENDMDL
MODEL 6
REMARK VINA RESULT:     -11.1      2.656     11.022
REMARK  Name = 16741238
REMARK  6 active torsions:
REMARK  status: ('A' for Active; 'I' for Inactive)
REMARK    1  A    between atoms: N_1  and  C_22
REMARK    2  A    between atoms: C_10  and  C_15
REMARK    3  A    between atoms: C_15  and  C_16
REMARK    4  A    between atoms: C_22  and  C_23
REMARK    5  A    between atoms: C_23  and  C_26
REMARK    6  A    between atoms: N_25  and  C_28
REMARK                            x       y       z     vdW  Elec       q    Type
REMARK                         _______ _______ _______ _____ _____    ______ ____
ROOT
ATOM      1  N   UNL     1      32.542 -11.947 -22.153  0.00  0.00    -0.249 N 
ATOM      2  N   UNL     1      32.007 -10.960 -20.026  0.00  0.00    -0.373 NA
ATOM      3  N   UNL     1      31.978 -13.259 -20.278  0.00  0.00    -0.321 N 
ATOM      4  C   UNL     1      32.781 -10.666 -22.820  0.00  0.00    +0.071 C 
ATOM      5  C   UNL     1      32.578  -9.489 -21.907  0.00  0.00    +0.045 C 
ATOM      6  C   UNL     1      32.174 -12.001 -20.805  0.00  0.00    +0.239 C 
ATOM      7  C   UNL     1      32.206  -9.681 -20.570  0.00  0.00    +0.136 C 
ATOM      8  C   UNL     1      32.764  -8.189 -22.399  0.00  0.00    +0.007 C 
ATOM      9  C   UNL     1      32.026  -8.565 -19.742  0.00  0.00    +0.032 C 
ATOM     10  C   UNL     1      32.581  -7.085 -21.566  0.00  0.00    +0.039 C 
ATOM     11  C   UNL     1      32.212  -7.274 -20.237  0.00  0.00    +0.006 C 
ATOM     12  H   UNL     1      32.100 -14.055 -20.845  0.00  0.00    +0.146 HD
ATOM     13  H   UNL     1      31.718 -13.361 -19.334  0.00  0.00    +0.146 HD
ENDROOT
BRANCH  10  15
ATOM     14  O   UNL     1      32.326  -4.762 -21.469  0.00  0.00    -0.287 OA
ATOM     15  C   UNL     1      32.775  -5.741 -22.085  0.00  0.00    +0.196 C 
BRANCH  15  16
ATOM     16  C   UNL     1      33.511  -5.472 -23.357  0.00  0.00    +0.039 C 
ATOM     17  C   UNL     1      34.656  -6.204 -23.669  0.00  0.00    +0.003 C 
ATOM     18  C   UNL     1      33.052  -4.489 -24.234  0.00  0.00    +0.003 C 
ATOM     19  C   UNL     1      35.343  -5.953 -24.857  0.00  0.00    +0.000 C 
ATOM     20  C   UNL     1      33.738  -4.238 -25.421  0.00  0.00    +0.000 C 
ATOM     21  C   UNL     1      34.884  -4.970 -25.733  0.00  0.00    +0.000 C 
ENDBRANCH  15  16
ENDBRANCH  10  15
BRANCH   1  22
ATOM     22  C   UNL     1      32.721 -13.126 -22.994  0.00  0.00    +0.109 C 
BRANCH  22  23
ATOM     23  C   UNL     1      34.139 -13.171 -23.556  0.00  0.00    +0.107 C 
BRANCH  23  26
ATOM     24  O   UNL     1      34.701 -14.995 -25.014  0.00  0.00    -0.275 OA
ATOM     25  N   UNL     1      35.004 -15.351 -22.743  0.00  0.00    -0.279 N 
ATOM     26  C   UNL     1      34.636 -14.582 -23.853  0.00  0.00    +0.227 C 
ATOM     27  C   UNL     1      34.920 -14.844 -21.375  0.00  0.00    +0.115 C 
BRANCH  25  28
ATOM     28  C   UNL     1      35.496 -16.703 -22.867  0.00  0.00    +0.075 C 
ATOM     29  C   UNL     1      34.569 -17.530 -23.760  0.00  0.00    +0.020 C 
ATOM     30  C   UNL     1      35.662 -17.347 -21.488  0.00  0.00    +0.020 C 
ATOM     31  C   UNL     1      35.035 -18.980 -23.866  0.00  0.00    +0.002 C 
ATOM     32  C   UNL     1      36.128 -18.797 -21.597  0.00  0.00    +0.002 C 
ATOM     33  C   UNL     1      35.204 -19.618 -22.490  0.00  0.00    +0.000 C 
ENDBRANCH  25  28
ENDBRANCH  23  26
ENDBRANCH  22  23
ENDBRANCH   1  22
TORSDOF 6
ENDMDL
MODEL 7
REMARK VINA RESULT:     -10.9      5.626     10.045
REMARK  Name = 16741238
REMARK  6 active torsions:
REMARK  status: ('A' for Active; 'I' for Inactive)
REMARK    1  A    between atoms: N_1  and  C_22
REMARK    2  A    between atoms: C_10  and  C_15
REMARK    3  A    between atoms: C_15  and  C_16
REMARK    4  A    between atoms: C_22  and  C_23
REMARK    5  A    between atoms: C_23  and  C_26
REMARK    6  A    between atoms: N_25  and  C_28
REMARK                            x       y       z     vdW  Elec       q    Type
REMARK                         _______ _______ _______ _____ _____    ______ ____
ROOT
ATOM      1  N   UNL     1      34.736 -22.005 -18.833  0.00  0.00    -0.249 N 
ATOM      2  N   UNL     1      32.585 -22.288 -17.796  0.00  0.00    -0.373 NA
ATOM      3  N   UNL     1      32.730 -21.545 -19.981  0.00  0.00    -0.321 N 
ATOM      4  C   UNL     1      35.491 -22.438 -17.656  0.00  0.00    +0.071 C 
ATOM      5  C   UNL     1      34.605 -22.799 -16.497  0.00  0.00    +0.045 C 
ATOM      6  C   UNL     1      33.338 -21.963 -18.818  0.00  0.00    +0.239 C 
ATOM      7  C   UNL     1      33.211 -22.711 -16.613  0.00  0.00    +0.136 C 
ATOM      8  C   UNL     1      35.179 -23.229 -15.292  0.00  0.00    +0.007 C 
ATOM      9  C   UNL     1      32.410 -23.056 -15.517  0.00  0.00    +0.032 C 
ATOM     10  C   UNL     1      34.371 -23.569 -14.207  0.00  0.00    +0.039 C 
ATOM     11  C   UNL     1      32.986 -23.483 -14.320  0.00  0.00    +0.006 C 
ATOM     12  H   UNL     1      33.277 -21.297 -20.762  0.00  0.00    +0.146 HD
ATOM     13  H   UNL     1      31.748 -21.494 -20.032  0.00  0.00    +0.146 HD
ENDROOT
BRANCH  10  15
ATOM     14  O   UNL     1      34.338 -23.943 -11.898  0.00  0.00    -0.287 OA
ATOM     15  C   UNL     1      34.974 -24.013 -12.961  0.00  0.00    +0.196 C 
BRANCH  15  16
ATOM     16  C   UNL     1      36.361 -24.566 -12.895  0.00  0.00    +0.039 C 
ATOM     17  C   UNL     1      36.673 -25.749 -13.564  0.00  0.00    +0.003 C 
ATOM     18  C   UNL     1      37.344 -23.898 -12.164  0.00  0.00    +0.003 C 
ATOM     19  C   UNL     1      37.967 -26.264 -13.503  0.00  0.00    +0.000 C 
ATOM     20  C   UNL     1      38.638 -24.414 -12.103  0.00  0.00    +0.000 C 
ATOM     21  C   UNL     1      38.950 -25.597 -12.772  0.00  0.00    +0.000 C 
ENDBRANCH  15  16
ENDBRANCH  10  15
BRANCH   1  22
ATOM     22  C   UNL     1      35.547 -21.637 -19.989  0.00  0.00    +0.109 C 
BRANCH  22  23
ATOM     23  C   UNL     1      35.910 -20.156 -19.937  0.00  0.00    +0.107 C 
BRANCH  23  26
ATOM     24  O   UNL     1      34.214 -19.413 -21.466  0.00  0.00    -0.275 OA
ATOM     25  N   UNL     1      36.351 -18.579 -21.803  0.00  0.00    -0.279 N 
ATOM     26  C   UNL     1      35.401 -19.357 -21.133  0.00  0.00    +0.227 C 
ATOM     27  C   UNL     1      37.752 -18.528 -21.392  0.00  0.00    +0.115 C 
BRANCH  25  28
ATOM     28  C   UNL     1      36.018 -17.769 -22.950  0.00  0.00    +0.075 C 
ATOM     29  C   UNL     1      35.535 -16.386 -22.508  0.00  0.00    +0.020 C 
ATOM     30  C   UNL     1      34.974 -18.470 -23.824  0.00  0.00    +0.020 C 
ATOM     31  C   UNL     1      35.125 -15.524 -23.699  0.00  0.00    +0.002 C 
ATOM     32  C   UNL     1      34.566 -17.606 -25.015  0.00  0.00    +0.002 C 
ATOM     33  C   UNL     1      34.088 -16.227 -24.571  0.00  0.00    +0.000 C 
ENDBRANCH  25  28
ENDBRANCH  23  26
ENDBRANCH  22  23
ENDBRANCH   1  22
TORSDOF 6
ENDMDL
MODEL 8
REMARK VINA RESULT:     -10.8      2.984     11.577
REMARK  Name = 16741238
REMARK  6 active torsions:
REMARK  status: ('A' for Active; 'I' for Inactive)
REMARK    1  A    between atoms: N_1  and  C_22
REMARK    2  A    between atoms: C_10  and  C_15
REMARK    3  A    between atoms: C_15  and  C_16
REMARK    4  A    between atoms: C_22  and  C_23
REMARK    5  A    between atoms: C_23  and  C_26
REMARK    6  A    between atoms: N_25  and  C_28
REMARK                            x       y       z     vdW  Elec       q    Type
REMARK                         _______ _______ _______ _____ _____    ______ ____
ROOT
ATOM      1  N   UNL     1      32.056 -10.051 -20.792  0.00  0.00    -0.249 N 
ATOM      2  N   UNL     1      32.316  -8.075 -19.447  0.00  0.00    -0.373 NA
ATOM      3  N   UNL     1      32.291 -10.161 -18.449  0.00  0.00    -0.321 N 
ATOM      4  C   UNL     1      31.974  -9.321 -22.058  0.00  0.00    +0.071 C 
ATOM      5  C   UNL     1      32.079  -7.833 -21.879  0.00  0.00    +0.045 C 
ATOM      6  C   UNL     1      32.222  -9.376 -19.579  0.00  0.00    +0.239 C 
ATOM      7  C   UNL     1      32.243  -7.279 -20.601  0.00  0.00    +0.136 C 
ATOM      8  C   UNL     1      32.013  -6.992 -22.999  0.00  0.00    +0.007 C 
ATOM      9  C   UNL     1      32.339  -5.889 -20.465  0.00  0.00    +0.032 C 
ATOM     10  C   UNL     1      32.109  -5.609 -22.851  0.00  0.00    +0.039 C 
ATOM     11  C   UNL     1      32.273  -5.057 -21.583  0.00  0.00    +0.006 C 
ATOM     12  H   UNL     1      32.224 -11.141 -18.526  0.00  0.00    +0.146 HD
ATOM     13  H   UNL     1      32.407  -9.743 -17.566  0.00  0.00    +0.146 HD
ENDROOT
BRANCH  10  15
ATOM     14  O   UNL     1      31.049  -4.019 -24.200  0.00  0.00    -0.287 OA
ATOM     15  C   UNL     1      32.039  -4.744 -24.017  0.00  0.00    +0.196 C 
BRANCH  15  16
ATOM     16  C   UNL     1      33.131  -4.682 -25.035  0.00  0.00    +0.039 C 
ATOM     17  C   UNL     1      32.915  -4.037 -26.253  0.00  0.00    +0.003 C 
ATOM     18  C   UNL     1      34.368  -5.269 -24.767  0.00  0.00    +0.003 C 
ATOM     19  C   UNL     1      33.935  -3.979 -27.202  0.00  0.00    +0.000 C 
ATOM     20  C   UNL     1      35.388  -5.210 -25.717  0.00  0.00    +0.000 C 
ATOM     21  C   UNL     1      35.171  -4.566 -26.934  0.00  0.00    +0.000 C 
ENDBRANCH  15  16
ENDBRANCH  10  15
BRANCH   1  22
ATOM     22  C   UNL     1      31.955 -11.503 -20.906  0.00  0.00    +0.109 C 
BRANCH  22  23
ATOM     23  C   UNL     1      32.593 -11.981 -22.207  0.00  0.00    +0.107 C 
BRANCH  23  26
ATOM     24  O   UNL     1      33.634 -13.728 -20.929  0.00  0.00    -0.275 OA
ATOM     25  N   UNL     1      34.039 -13.732 -23.211  0.00  0.00    -0.279 N 
ATOM     26  C   UNL     1      33.464 -13.223 -22.042  0.00  0.00    +0.227 C 
ATOM     27  C   UNL     1      33.826 -13.118 -24.520  0.00  0.00    +0.115 C 
BRANCH  25  28
ATOM     28  C   UNL     1      34.885 -14.902 -23.213  0.00  0.00    +0.075 C 
ATOM     29  C   UNL     1      34.464 -15.866 -24.324  0.00  0.00    +0.020 C 
ATOM     30  C   UNL     1      34.865 -15.586 -21.843  0.00  0.00    +0.020 C 
ATOM     31  C   UNL     1      35.308 -17.138 -24.316  0.00  0.00    +0.002 C 
ATOM     32  C   UNL     1      35.710 -16.858 -21.838  0.00  0.00    +0.002 C 
ATOM     33  C   UNL     1      35.290 -17.816 -22.948  0.00  0.00    +0.000 C 
ENDBRANCH  25  28
ENDBRANCH  23  26
ENDBRANCH  22  23
ENDBRANCH   1  22
TORSDOF 6
ENDMDL
MODEL 9
REMARK VINA RESULT:     -10.8      3.343      5.779
REMARK  Name = 16741238
REMARK  6 active torsions:
REMARK  status: ('A' for Active; 'I' for Inactive)
REMARK    1  A    between atoms: N_1  and  C_22
REMARK    2  A    between atoms: C_10  and  C_15
REMARK    3  A    between atoms: C_15  and  C_16
REMARK    4  A    between atoms: C_22  and  C_23
REMARK    5  A    between atoms: C_23  and  C_26
REMARK    6  A    between atoms: N_25  and  C_28
REMARK                            x       y       z     vdW  Elec       q    Type
REMARK                         _______ _______ _______ _____ _____    ______ ____
ROOT
ATOM      1  N   UNL     1      35.541 -18.501 -22.103  0.00  0.00    -0.249 N 
ATOM      2  N   UNL     1      37.247 -19.578 -20.795  0.00  0.00    -0.373 NA
ATOM      3  N   UNL     1      37.833 -18.076 -22.454  0.00  0.00    -0.321 N 
ATOM      4  C   UNL     1      34.431 -19.162 -21.415  0.00  0.00    +0.071 C 
ATOM      5  C   UNL     1      34.893 -20.103 -20.337  0.00  0.00    +0.045 C 
ATOM      6  C   UNL     1      36.868 -18.756 -21.743  0.00  0.00    +0.239 C 
ATOM      7  C   UNL     1      36.260 -20.269 -20.075  0.00  0.00    +0.136 C 
ATOM      8  C   UNL     1      33.948 -20.818 -19.588  0.00  0.00    +0.007 C 
ATOM      9  C   UNL     1      36.661 -21.151 -19.064  0.00  0.00    +0.032 C 
ATOM     10  C   UNL     1      34.358 -21.694 -18.583  0.00  0.00    +0.039 C 
ATOM     11  C   UNL     1      35.716 -21.860 -18.321  0.00  0.00    +0.006 C 
ATOM     12  H   UNL     1      37.570 -17.453 -23.169  0.00  0.00    +0.146 HD
ATOM     13  H   UNL     1      38.785 -18.214 -22.246  0.00  0.00    +0.146 HD
ENDROOT
BRANCH  10  15
ATOM     14  O   UNL     1      32.251 -22.666 -18.290  0.00  0.00    -0.287 OA
ATOM     15  C   UNL     1      33.372 -22.432 -17.812  0.00  0.00    +0.196 C 
BRANCH  15  16
ATOM     16  C   UNL     1      33.649 -22.939 -16.434  0.00  0.00    +0.039 C 
ATOM     17  C   UNL     1      34.906 -23.454 -16.120  0.00  0.00    +0.003 C 
ATOM     18  C   UNL     1      32.650 -22.895 -15.461  0.00  0.00    +0.003 C 
ATOM     19  C   UNL     1      35.164 -23.927 -14.833  0.00  0.00    +0.000 C 
ATOM     20  C   UNL     1      32.909 -23.367 -14.174  0.00  0.00    +0.000 C 
ATOM     21  C   UNL     1      34.166 -23.883 -13.861  0.00  0.00    +0.000 C 
ENDBRANCH  15  16
ENDBRANCH  10  15
BRANCH   1  22
ATOM     22  C   UNL     1      35.151 -17.578 -23.164  0.00  0.00    +0.109 C 
BRANCH  22  23
ATOM     23  C   UNL     1      35.595 -16.158 -22.826  0.00  0.00    +0.107 C 
BRANCH  23  26
ATOM     24  O   UNL     1      34.184 -15.040 -24.415  0.00  0.00    -0.275 OA
ATOM     25  N   UNL     1      34.196 -14.187 -22.260  0.00  0.00    -0.279 N 
ATOM     26  C   UNL     1      34.597 -15.086 -23.253  0.00  0.00    +0.227 C 
ATOM     27  C   UNL     1      34.698 -14.258 -20.889  0.00  0.00    +0.115 C 
BRANCH  25  28
ATOM     28  C   UNL     1      33.256 -13.121 -22.514  0.00  0.00    +0.075 C 
ATOM     29  C   UNL     1      33.972 -11.904 -23.105  0.00  0.00    +0.020 C 
ATOM     30  C   UNL     1      32.495 -12.754 -21.237  0.00  0.00    +0.020 C 
ATOM     31  C   UNL     1      33.011 -10.741 -23.335  0.00  0.00    +0.002 C 
ATOM     32  C   UNL     1      31.534 -11.590 -21.470  0.00  0.00    +0.002 C 
ATOM     33  C   UNL     1      32.250 -10.380 -22.062  0.00  0.00    +0.000 C 
ENDBRANCH  25  28
ENDBRANCH  23  26
ENDBRANCH  22  23
ENDBRANCH   1  22
TORSDOF 6
ENDMDL
