MODEL 1
REMARK VINA RESULT:     -11.9      0.000      0.000
REMARK  Name = 5326929
REMARK  3 active torsions:
REMARK  status: ('A' for Active; 'I' for Inactive)
REMARK    1  A    between atoms: C_7  and  C_21
REMARK    2  A    between atoms: C_21  and  C_22
REMARK    3  A    between atoms: C_22  and  C_23
REMARK                            x       y       z     vdW  Elec       q    Type
REMARK                         _______ _______ _______ _____ _____    ______ ____
ROOT
ATOM      1  O   UNL     1      34.933 -24.675 -11.811  0.00  0.00    -0.209 OA
ATOM      2  N   UNL     1      34.814 -22.738 -15.314  0.00  0.00    -0.275 N 
ATOM      3  N   UNL     1      30.090 -25.117 -13.800  0.00  0.00    -0.315 N 
ATOM      4  N   UNL     1      30.056 -24.033 -15.739  0.00  0.00    -0.316 N 
ATOM      5  N   UNL     1      36.030 -23.431 -13.390  0.00  0.00    -0.302 NA
ATOM      6  N   UNL     1      37.020 -22.153 -15.086  0.00  0.00    -0.320 N 
ATOM      7  C   UNL     1      32.466 -23.303 -15.657  0.00  0.00    +0.007 C 
ATOM      8  C   UNL     1      33.638 -23.360 -14.885  0.00  0.00    +0.060 C 
ATOM      9  C   UNL     1      31.310 -23.945 -15.180  0.00  0.00    +0.056 C 
ATOM     10  C   UNL     1      31.357 -24.616 -13.963  0.00  0.00    +0.060 C 
ATOM     11  C   UNL     1      33.646 -24.048 -13.661  0.00  0.00    +0.109 C 
ATOM     12  C   UNL     1      32.502 -24.695 -13.169  0.00  0.00    +0.029 C 
ATOM     13  C   UNL     1      34.917 -24.077 -12.882  0.00  0.00    +0.208 C 
ATOM     14  C   UNL     1      29.351 -24.742 -14.888  0.00  0.00    +0.182 C 
ATOM     15  C   UNL     1      35.947 -22.810 -14.537  0.00  0.00    +0.248 C 
ATOM     16  H   UNL     1      34.831 -22.251 -16.169  0.00  0.00    +0.156 HD
ATOM     17  H   UNL     1      29.771 -25.651 -13.038  0.00  0.00    +0.148 HD
ATOM     18  H   UNL     1      29.753 -23.648 -16.593  0.00  0.00    +0.148 HD
ATOM     19  H   UNL     1      36.925 -21.695 -15.953  0.00  0.00    +0.146 HD
ATOM     20  H   UNL     1      37.883 -22.141 -14.614  0.00  0.00    +0.146 HD
ENDROOT
BRANCH   7  21
ATOM     21  C   UNL     1      32.450 -22.571 -16.962  0.00  0.00    +0.034 C 
BRANCH  21  22
ATOM     22  C   UNL     1      33.517 -23.055 -17.961  0.00  0.00    +0.031 C 
BRANCH  22  23
ATOM     23  C   UNL     1      34.011 -21.966 -18.880  0.00  0.00    -0.022 C 
ATOM     24  C   UNL     1      33.093 -21.166 -19.543  0.00  0.00    -0.005 C 
ATOM     25  C   UNL     1      35.375 -21.782 -19.045  0.00  0.00    -0.005 C 
ATOM     26  C   UNL     1      34.921 -19.964 -20.569  0.00  0.00    -0.022 C 
ATOM     27  C   UNL     1      33.551 -20.159 -20.392  0.00  0.00    -0.005 C 
ATOM     28  C   UNL     1      35.833 -20.776 -19.895  0.00  0.00    -0.005 C 
ATOM     29  C   UNL     1      35.410 -18.886 -21.476  0.00  0.00    +0.031 C 
ENDBRANCH  22  23
ENDBRANCH  21  22
ENDBRANCH   7  21
TORSDOF 3
ENDMDL
MODEL 2
REMARK VINA RESULT:     -11.7      1.792      4.186
REMARK  Name = 5326929
REMARK  3 active torsions:
REMARK  status: ('A' for Active; 'I' for Inactive)
REMARK    1  A    between atoms: C_7  and  C_21
REMARK    2  A    between atoms: C_21  and  C_22
REMARK    3  A    between atoms: C_22  and  C_23
REMARK                            x       y       z     vdW  Elec       q    Type
REMARK                         _______ _______ _______ _____ _____    ______ ____
ROOT
ATOM      1  O   UNL     1      28.908 -25.440 -13.871  0.00  0.00    -0.209 OA
ATOM      2  N   UNL     1      29.974 -22.882 -16.762  0.00  0.00    -0.275 N 
ATOM      3  N   UNL     1      34.114 -24.759 -13.663  0.00  0.00    -0.315 N 
ATOM      4  N   UNL     1      34.674 -23.339 -15.278  0.00  0.00    -0.316 N 
ATOM      5  N   UNL     1      28.280 -24.101 -15.619  0.00  0.00    -0.302 NA
ATOM      6  N   UNL     1      27.787 -22.693 -17.426  0.00  0.00    -0.320 N 
ATOM      7  C   UNL     1      32.329 -23.009 -16.140  0.00  0.00    +0.007 C 
ATOM      8  C   UNL     1      30.991 -23.388 -15.946  0.00  0.00    +0.060 C 
ATOM      9  C   UNL     1      33.313 -23.547 -15.293  0.00  0.00    +0.056 C 
ATOM     10  C   UNL     1      32.938 -24.435 -14.290  0.00  0.00    +0.060 C 
ATOM     11  C   UNL     1      30.650 -24.287 -14.923  0.00  0.00    +0.109 C 
ATOM     12  C   UNL     1      31.618 -24.833 -14.067  0.00  0.00    +0.029 C 
ATOM     13  C   UNL     1      29.214 -24.654 -14.762  0.00  0.00    +0.208 C 
ATOM     14  C   UNL     1      35.121 -24.079 -14.290  0.00  0.00    +0.182 C 
ATOM     15  C   UNL     1      28.672 -23.270 -16.549  0.00  0.00    +0.248 C 
ATOM     16  H   UNL     1      30.190 -22.250 -17.485  0.00  0.00    +0.156 HD
ATOM     17  H   UNL     1      34.214 -25.372 -12.900  0.00  0.00    +0.148 HD
ATOM     18  H   UNL     1      35.197 -22.760 -15.877  0.00  0.00    +0.148 HD
ATOM     19  H   UNL     1      28.113 -22.070 -18.116  0.00  0.00    +0.146 HD
ATOM     20  H   UNL     1      26.827 -22.900 -17.365  0.00  0.00    +0.146 HD
ENDROOT
BRANCH   7  21
ATOM     21  C   UNL     1      32.699 -22.052 -17.229  0.00  0.00    +0.034 C 
BRANCH  21  22
ATOM     22  C   UNL     1      33.576 -22.673 -18.332  0.00  0.00    +0.031 C 
BRANCH  22  23
ATOM     23  C   UNL     1      34.285 -21.645 -19.179  0.00  0.00    -0.022 C 
ATOM     24  C   UNL     1      33.539 -20.763 -19.945  0.00  0.00    -0.005 C 
ATOM     25  C   UNL     1      35.670 -21.600 -19.175  0.00  0.00    -0.005 C 
ATOM     26  C   UNL     1      35.589 -19.756 -20.735  0.00  0.00    -0.022 C 
ATOM     27  C   UNL     1      34.195 -19.813 -20.728  0.00  0.00    -0.005 C 
ATOM     28  C   UNL     1      36.326 -20.650 -19.958  0.00  0.00    -0.005 C 
ATOM     29  C   UNL     1      36.290 -18.740 -21.570  0.00  0.00    +0.031 C 
ENDBRANCH  22  23
ENDBRANCH  21  22
ENDBRANCH   7  21
TORSDOF 3
ENDMDL
MODEL 3
REMARK VINA RESULT:     -11.3      1.295      4.076
REMARK  Name = 5326929
REMARK  3 active torsions:
REMARK  status: ('A' for Active; 'I' for Inactive)
REMARK    1  A    between atoms: C_7  and  C_21
REMARK    2  A    between atoms: C_21  and  C_22
REMARK    3  A    between atoms: C_22  and  C_23
REMARK                            x       y       z     vdW  Elec       q    Type
REMARK                         _______ _______ _______ _____ _____    ______ ____
ROOT
ATOM      1  O   UNL     1      31.152 -25.076 -12.706  0.00  0.00    -0.209 OA
ATOM      2  N   UNL     1      30.758 -23.275 -16.261  0.00  0.00    -0.275 N 
ATOM      3  N   UNL     1      35.900 -23.508 -14.320  0.00  0.00    -0.315 N 
ATOM      4  N   UNL     1      35.649 -22.516 -16.292  0.00  0.00    -0.316 N 
ATOM      5  N   UNL     1      29.777 -24.395 -14.405  0.00  0.00    -0.302 NA
ATOM      6  N   UNL     1      28.495 -23.643 -16.217  0.00  0.00    -0.320 N 
ATOM      7  C   UNL     1      33.152 -22.832 -16.411  0.00  0.00    +0.007 C 
ATOM      8  C   UNL     1      32.046 -23.359 -15.725  0.00  0.00    +0.060 C 
ATOM      9  C   UNL     1      34.426 -22.944 -15.828  0.00  0.00    +0.056 C 
ATOM     10  C   UNL     1      34.557 -23.570 -14.593  0.00  0.00    +0.060 C 
ATOM     11  C   UNL     1      32.219 -23.985 -14.480  0.00  0.00    +0.109 C 
ATOM     12  C   UNL     1      33.483 -24.105 -13.881  0.00  0.00    +0.029 C 
ATOM     13  C   UNL     1      31.011 -24.527 -13.794  0.00  0.00    +0.208 C 
ATOM     14  C   UNL     1      36.509 -22.869 -15.365  0.00  0.00    +0.182 C 
ATOM     15  C   UNL     1      29.694 -23.800 -15.566  0.00  0.00    +0.248 C 
ATOM     16  H   UNL     1      30.614 -22.840 -17.132  0.00  0.00    +0.156 HD
ATOM     17  H   UNL     1      36.346 -23.860 -13.517  0.00  0.00    +0.148 HD
ATOM     18  H   UNL     1      35.838 -22.046 -17.136  0.00  0.00    +0.148 HD
ATOM     19  H   UNL     1      28.465 -23.190 -17.091  0.00  0.00    +0.146 HD
ATOM     20  H   UNL     1      27.666 -23.982 -15.810  0.00  0.00    +0.146 HD
ENDROOT
BRANCH   7  21
ATOM     21  C   UNL     1      32.975 -22.165 -17.739  0.00  0.00    +0.034 C 
BRANCH  21  22
ATOM     22  C   UNL     1      33.987 -22.624 -18.805  0.00  0.00    +0.031 C 
BRANCH  22  23
ATOM     23  C   UNL     1      34.628 -21.479 -19.550  0.00  0.00    -0.022 C 
ATOM     24  C   UNL     1      36.009 -21.353 -19.546  0.00  0.00    -0.005 C 
ATOM     25  C   UNL     1      33.826 -20.574 -20.227  0.00  0.00    -0.005 C 
ATOM     26  C   UNL     1      35.806 -19.375 -20.919  0.00  0.00    -0.022 C 
ATOM     27  C   UNL     1      36.601 -20.294 -20.234  0.00  0.00    -0.005 C 
ATOM     28  C   UNL     1      34.418 -19.515 -20.915  0.00  0.00    -0.005 C 
ATOM     29  C   UNL     1      36.439 -18.245 -21.656  0.00  0.00    +0.031 C 
ENDBRANCH  22  23
ENDBRANCH  21  22
ENDBRANCH   7  21
TORSDOF 3
ENDMDL
MODEL 4
REMARK VINA RESULT:     -11.3      1.869      2.715
REMARK  Name = 5326929
REMARK  3 active torsions:
REMARK  status: ('A' for Active; 'I' for Inactive)
REMARK    1  A    between atoms: C_7  and  C_21
REMARK    2  A    between atoms: C_21  and  C_22
REMARK    3  A    between atoms: C_22  and  C_23
REMARK                            x       y       z     vdW  Elec       q    Type
REMARK                         _______ _______ _______ _____ _____    ______ ____
ROOT
ATOM      1  O   UNL     1      37.077 -25.991 -11.656  0.00  0.00    -0.209 OA
ATOM      2  N   UNL     1      37.649 -24.082 -15.131  0.00  0.00    -0.275 N 
ATOM      3  N   UNL     1      32.633 -23.502 -12.946  0.00  0.00    -0.315 N 
ATOM      4  N   UNL     1      32.982 -22.453 -14.874  0.00  0.00    -0.316 N 
ATOM      5  N   UNL     1      38.483 -25.470 -13.387  0.00  0.00    -0.302 NA
ATOM      6  N   UNL     1      39.807 -24.853 -15.219  0.00  0.00    -0.320 N 
ATOM      7  C   UNL     1      35.372 -23.208 -15.136  0.00  0.00    +0.007 C 
ATOM      8  C   UNL     1      36.390 -23.966 -14.535  0.00  0.00    +0.060 C 
ATOM      9  C   UNL     1      34.124 -23.122 -14.495  0.00  0.00    +0.056 C 
ATOM     10  C   UNL     1      33.930 -23.787 -13.289  0.00  0.00    +0.060 C 
ATOM     11  C   UNL     1      36.156 -24.623 -13.316  0.00  0.00    +0.109 C 
ATOM     12  C   UNL     1      34.917 -24.550 -12.662  0.00  0.00    +0.029 C 
ATOM     13  C   UNL     1      37.272 -25.414 -12.722  0.00  0.00    +0.208 C 
ATOM     14  C   UNL     1      32.110 -22.702 -13.925  0.00  0.00    +0.182 C 
ATOM     15  C   UNL     1      38.627 -24.831 -14.518  0.00  0.00    +0.248 C 
ATOM     16  H   UNL     1      37.834 -23.630 -15.985  0.00  0.00    +0.156 HD
ATOM     17  H   UNL     1      32.163 -23.816 -12.141  0.00  0.00    +0.148 HD
ATOM     18  H   UNL     1      32.849 -21.907 -15.682  0.00  0.00    +0.148 HD
ATOM     19  H   UNL     1      39.884 -24.361 -16.069  0.00  0.00    +0.146 HD
ATOM     20  H   UNL     1      40.576 -25.359 -14.872  0.00  0.00    +0.146 HD
ENDROOT
BRANCH   7  21
ATOM     21  C   UNL     1      35.614 -22.505 -16.434  0.00  0.00    +0.034 C 
BRANCH  21  22
ATOM     22  C   UNL     1      34.526 -22.760 -17.494  0.00  0.00    +0.031 C 
BRANCH  22  23
ATOM     23  C   UNL     1      34.573 -21.784 -18.644  0.00  0.00    -0.022 C 
ATOM     24  C   UNL     1      35.801 -21.413 -19.171  0.00  0.00    -0.005 C 
ATOM     25  C   UNL     1      33.389 -21.277 -19.154  0.00  0.00    -0.005 C 
ATOM     26  C   UNL     1      34.659 -19.991 -20.757  0.00  0.00    -0.022 C 
ATOM     27  C   UNL     1      35.843 -20.511 -20.234  0.00  0.00    -0.005 C 
ATOM     28  C   UNL     1      33.431 -20.375 -20.217  0.00  0.00    -0.005 C 
ATOM     29  C   UNL     1      34.704 -19.029 -21.894  0.00  0.00    +0.031 C 
ENDBRANCH  22  23
ENDBRANCH  21  22
ENDBRANCH   7  21
TORSDOF 3
ENDMDL
MODEL 5
REMARK VINA RESULT:     -10.7      1.506      3.985
REMARK  Name = 5326929
REMARK  3 active torsions:
REMARK  status: ('A' for Active; 'I' for Inactive)
REMARK    1  A    between atoms: C_7  and  C_21
REMARK    2  A    between atoms: C_21  and  C_22
REMARK    3  A    between atoms: C_22  and  C_23
REMARK                            x       y       z     vdW  Elec       q    Type
REMARK                         _______ _______ _______ _____ _____    ______ ____
ROOT
ATOM      1  O   UNL     1      32.003 -25.237 -13.162  0.00  0.00    -0.209 OA
ATOM      2  N   UNL     1      32.800 -22.736 -16.188  0.00  0.00    -0.275 N 
ATOM      3  N   UNL     1      37.217 -24.846 -13.679  0.00  0.00    -0.315 N 
ATOM      4  N   UNL     1      37.627 -23.455 -15.363  0.00  0.00    -0.316 N 
ATOM      5  N   UNL     1      31.215 -23.862 -14.815  0.00  0.00    -0.302 NA
ATOM      6  N   UNL     1      30.555 -22.426 -16.544  0.00  0.00    -0.320 N 
ATOM      7  C   UNL     1      35.207 -22.995 -15.896  0.00  0.00    +0.007 C 
ATOM      8  C   UNL     1      33.889 -23.299 -15.517  0.00  0.00    +0.060 C 
ATOM      9  C   UNL     1      36.268 -23.588 -15.189  0.00  0.00    +0.056 C 
ATOM     10  C   UNL     1      35.986 -24.456 -14.139  0.00  0.00    +0.060 C 
ATOM     11  C   UNL     1      33.645 -24.180 -14.452  0.00  0.00    +0.109 C 
ATOM     12  C   UNL     1      34.690 -24.781 -13.734  0.00  0.00    +0.029 C 
ATOM     13  C   UNL     1      32.226 -24.467 -14.092  0.00  0.00    +0.208 C 
ATOM     14  C   UNL     1      38.165 -24.221 -14.442  0.00  0.00    +0.182 C 
ATOM     15  C   UNL     1      31.519 -23.052 -15.795  0.00  0.00    +0.248 C 
ATOM     16  H   UNL     1      32.948 -22.116 -16.937  0.00  0.00    +0.156 HD
ATOM     17  H   UNL     1      37.389 -25.464 -12.933  0.00  0.00    +0.148 HD
ATOM     18  H   UNL     1      38.093 -22.905 -16.032  0.00  0.00    +0.148 HD
ATOM     19  H   UNL     1      30.817 -21.821 -17.277  0.00  0.00    +0.146 HD
ATOM     20  H   UNL     1      29.603 -22.580 -16.350  0.00  0.00    +0.146 HD
ENDROOT
BRANCH   7  21
ATOM     21  C   UNL     1      35.475 -22.058 -17.031  0.00  0.00    +0.034 C 
BRANCH  21  22
ATOM     22  C   UNL     1      34.642 -22.353 -18.292  0.00  0.00    +0.031 C 
BRANCH  22  23
ATOM     23  C   UNL     1      34.774 -21.291 -19.356  0.00  0.00    -0.022 C 
ATOM     24  C   UNL     1      33.631 -20.755 -19.929  0.00  0.00    -0.005 C 
ATOM     25  C   UNL     1      36.037 -20.869 -19.741  0.00  0.00    -0.005 C 
ATOM     26  C   UNL     1      35.019 -19.340 -21.311  0.00  0.00    -0.022 C 
ATOM     27  C   UNL     1      33.755 -19.774 -20.913  0.00  0.00    -0.005 C 
ATOM     28  C   UNL     1      36.161 -19.887 -20.724  0.00  0.00    -0.005 C 
ATOM     29  C   UNL     1      35.151 -18.291 -22.361  0.00  0.00    +0.031 C 
ENDBRANCH  22  23
ENDBRANCH  21  22
ENDBRANCH   7  21
TORSDOF 3
ENDMDL
MODEL 6
REMARK VINA RESULT:     -10.5      3.835      7.215
REMARK  Name = 5326929
REMARK  3 active torsions:
REMARK  status: ('A' for Active; 'I' for Inactive)
REMARK    1  A    between atoms: C_7  and  C_21
REMARK    2  A    between atoms: C_21  and  C_22
REMARK    3  A    between atoms: C_22  and  C_23
REMARK                            x       y       z     vdW  Elec       q    Type
REMARK                         _______ _______ _______ _____ _____    ______ ____
ROOT
ATOM      1  O   UNL     1      33.552 -19.198 -22.001  0.00  0.00    -0.209 OA
ATOM      2  N   UNL     1      36.946 -19.985 -20.026  0.00  0.00    -0.275 N 
ATOM      3  N   UNL     1      32.476 -22.546 -18.097  0.00  0.00    -0.315 N 
ATOM      4  N   UNL     1      34.375 -22.963 -17.023  0.00  0.00    -0.316 N 
ATOM      5  N   UNL     1      35.805 -18.853 -21.781  0.00  0.00    -0.302 NA
ATOM      6  N   UNL     1      38.108 -18.599 -21.436  0.00  0.00    -0.320 N 
ATOM      7  C   UNL     1      35.808 -21.481 -18.472  0.00  0.00    +0.007 C 
ATOM      8  C   UNL     1      35.781 -20.612 -19.574  0.00  0.00    +0.060 C 
ATOM      9  C   UNL     1      34.609 -22.087 -18.058  0.00  0.00    +0.056 C 
ATOM     10  C   UNL     1      33.433 -21.810 -18.747  0.00  0.00    +0.060 C 
ATOM     11  C   UNL     1      34.574 -20.357 -20.245  0.00  0.00    +0.109 C 
ATOM     12  C   UNL     1      33.367 -20.951 -19.846  0.00  0.00    +0.029 C 
ATOM     13  C   UNL     1      34.602 -19.426 -21.409  0.00  0.00    +0.208 C 
ATOM     14  C   UNL     1      33.088 -23.217 -17.075  0.00  0.00    +0.182 C 
ATOM     15  C   UNL     1      36.889 -19.138 -21.109  0.00  0.00    +0.248 C 
ATOM     16  H   UNL     1      37.803 -20.148 -19.571  0.00  0.00    +0.156 HD
ATOM     17  H   UNL     1      31.519 -22.584 -18.325  0.00  0.00    +0.148 HD
ATOM     18  H   UNL     1      35.031 -23.322 -16.382  0.00  0.00    +0.148 HD
ATOM     19  H   UNL     1      38.907 -18.832 -20.909  0.00  0.00    +0.146 HD
ATOM     20  H   UNL     1      38.184 -17.978 -22.195  0.00  0.00    +0.146 HD
ENDROOT
BRANCH   7  21
ATOM     21  C   UNL     1      37.091 -21.757 -17.753  0.00  0.00    +0.034 C 
BRANCH  21  22
ATOM     22  C   UNL     1      37.077 -21.340 -16.271  0.00  0.00    +0.031 C 
BRANCH  22  23
ATOM     23  C   UNL     1      37.317 -22.492 -15.326  0.00  0.00    -0.022 C 
ATOM     24  C   UNL     1      38.387 -23.345 -15.550  0.00  0.00    -0.005 C 
ATOM     25  C   UNL     1      36.465 -22.676 -14.249  0.00  0.00    -0.005 C 
ATOM     26  C   UNL     1      37.757 -24.608 -13.589  0.00  0.00    -0.022 C 
ATOM     27  C   UNL     1      38.608 -24.409 -14.676  0.00  0.00    -0.005 C 
ATOM     28  C   UNL     1      36.686 -23.740 -13.375  0.00  0.00    -0.005 C 
ATOM     29  C   UNL     1      37.994 -25.744 -12.654  0.00  0.00    +0.031 C 
ENDBRANCH  22  23
ENDBRANCH  21  22
ENDBRANCH   7  21
TORSDOF 3
ENDMDL
MODEL 7
REMARK VINA RESULT:     -10.3      1.390      3.965
REMARK  Name = 5326929
REMARK  3 active torsions:
REMARK  status: ('A' for Active; 'I' for Inactive)
REMARK    1  A    between atoms: C_7  and  C_21
REMARK    2  A    between atoms: C_21  and  C_22
REMARK    3  A    between atoms: C_22  and  C_23
REMARK                            x       y       z     vdW  Elec       q    Type
REMARK                         _______ _______ _______ _____ _____    ______ ____
ROOT
ATOM      1  O   UNL     1      34.342 -24.003 -11.803  0.00  0.00    -0.209 OA
ATOM      2  N   UNL     1      32.546 -24.110 -15.382  0.00  0.00    -0.275 N 
ATOM      3  N   UNL     1      37.614 -21.970 -15.377  0.00  0.00    -0.315 N 
ATOM      4  N   UNL     1      36.591 -22.045 -17.348  0.00  0.00    -0.316 N 
ATOM      5  N   UNL     1      32.498 -24.555 -13.044  0.00  0.00    -0.302 NA
ATOM      6  N   UNL     1      30.687 -25.068 -14.439  0.00  0.00    -0.320 N 
ATOM      7  C   UNL     1      34.470 -23.096 -16.485  0.00  0.00    +0.007 C 
ATOM      8  C   UNL     1      33.836 -23.575 -15.327  0.00  0.00    +0.060 C 
ATOM      9  C   UNL     1      35.768 -22.568 -16.377  0.00  0.00    +0.056 C 
ATOM     10  C   UNL     1      36.387 -22.533 -15.132  0.00  0.00    +0.060 C 
ATOM     11  C   UNL     1      34.494 -23.523 -14.088  0.00  0.00    +0.109 C 
ATOM     12  C   UNL     1      35.789 -22.998 -13.960  0.00  0.00    +0.029 C 
ATOM     13  C   UNL     1      33.774 -24.044 -12.890  0.00  0.00    +0.208 C 
ATOM     14  C   UNL     1      37.687 -21.696 -16.715  0.00  0.00    +0.182 C 
ATOM     15  C   UNL     1      31.950 -24.572 -14.231  0.00  0.00    +0.248 C 
ATOM     16  H   UNL     1      32.066 -24.156 -16.239  0.00  0.00    +0.156 HD
ATOM     17  H   UNL     1      38.315 -21.795 -14.709  0.00  0.00    +0.148 HD
ATOM     18  H   UNL     1      36.399 -21.952 -18.309  0.00  0.00    +0.148 HD
ATOM     19  H   UNL     1      30.301 -25.066 -15.346  0.00  0.00    +0.146 HD
ATOM     20  H   UNL     1      30.167 -25.424 -13.684  0.00  0.00    +0.146 HD
ENDROOT
BRANCH   7  21
ATOM     21  C   UNL     1      33.775 -23.150 -17.810  0.00  0.00    +0.034 C 
BRANCH  21  22
ATOM     22  C   UNL     1      32.973 -21.879 -18.144  0.00  0.00    +0.031 C 
BRANCH  22  23
ATOM     23  C   UNL     1      33.570 -21.077 -19.274  0.00  0.00    -0.022 C 
ATOM     24  C   UNL     1      32.746 -20.281 -20.054  0.00  0.00    -0.005 C 
ATOM     25  C   UNL     1      34.934 -21.149 -19.512  0.00  0.00    -0.005 C 
ATOM     26  C   UNL     1      34.669 -19.604 -21.350  0.00  0.00    -0.022 C 
ATOM     27  C   UNL     1      33.299 -19.540 -21.099  0.00  0.00    -0.005 C 
ATOM     28  C   UNL     1      35.487 -20.409 -20.556  0.00  0.00    -0.005 C 
ATOM     29  C   UNL     1      35.260 -18.812 -22.465  0.00  0.00    +0.031 C 
ENDBRANCH  22  23
ENDBRANCH  21  22
ENDBRANCH   7  21
TORSDOF 3
ENDMDL
MODEL 8
REMARK VINA RESULT:     -10.3      2.922      5.853
REMARK  Name = 5326929
REMARK  3 active torsions:
REMARK  status: ('A' for Active; 'I' for Inactive)
REMARK    1  A    between atoms: C_7  and  C_21
REMARK    2  A    between atoms: C_21  and  C_22
REMARK    3  A    between atoms: C_22  and  C_23
REMARK                            x       y       z     vdW  Elec       q    Type
REMARK                         _______ _______ _______ _____ _____    ______ ____
ROOT
ATOM      1  O   UNL     1      37.576 -21.507 -16.920  0.00  0.00    -0.209 OA
ATOM      2  N   UNL     1      34.065 -23.368 -16.420  0.00  0.00    -0.275 N 
ATOM      3  N   UNL     1      37.472 -23.614 -12.108  0.00  0.00    -0.315 N 
ATOM      4  N   UNL     1      35.515 -24.636 -11.861  0.00  0.00    -0.316 N 
ATOM      5  N   UNL     1      35.539 -22.093 -17.786  0.00  0.00    -0.302 NA
ATOM      6  N   UNL     1      33.424 -22.763 -18.537  0.00  0.00    -0.320 N 
ATOM      7  C   UNL     1      34.646 -24.064 -14.156  0.00  0.00    +0.007 C 
ATOM      8  C   UNL     1      34.967 -23.402 -15.352  0.00  0.00    +0.060 C 
ATOM      9  C   UNL     1      35.588 -24.068 -13.112  0.00  0.00    +0.056 C 
ATOM     10  C   UNL     1      36.806 -23.421 -13.291  0.00  0.00    +0.060 C 
ATOM     11  C   UNL     1      36.207 -22.759 -15.495  0.00  0.00    +0.109 C 
ATOM     12  C   UNL     1      37.159 -22.754 -14.465  0.00  0.00    +0.029 C 
ATOM     13  C   UNL     1      36.495 -22.072 -16.787  0.00  0.00    +0.208 C 
ATOM     14  C   UNL     1      36.659 -24.346 -11.287  0.00  0.00    +0.182 C 
ATOM     15  C   UNL     1      34.406 -22.712 -17.580  0.00  0.00    +0.248 C 
ATOM     16  H   UNL     1      33.191 -23.813 -16.342  0.00  0.00    +0.156 HD
ATOM     17  H   UNL     1      38.373 -23.286 -11.889  0.00  0.00    +0.148 HD
ATOM     18  H   UNL     1      34.767 -25.150 -11.479  0.00  0.00    +0.148 HD
ATOM     19  H   UNL     1      32.580 -23.238 -18.352  0.00  0.00    +0.146 HD
ATOM     20  H   UNL     1      33.561 -22.327 -19.408  0.00  0.00    +0.146 HD
ENDROOT
BRANCH   7  21
ATOM     21  C   UNL     1      33.326 -24.751 -13.997  0.00  0.00    +0.034 C 
BRANCH  21  22
ATOM     22  C   UNL     1      32.217 -23.843 -13.433  0.00  0.00    +0.031 C 
BRANCH  22  23
ATOM     23  C   UNL     1      31.073 -23.634 -14.394  0.00  0.00    -0.022 C 
ATOM     24  C   UNL     1      30.030 -24.548 -14.421  0.00  0.00    -0.005 C 
ATOM     25  C   UNL     1      31.083 -22.530 -15.232  0.00  0.00    -0.005 C 
ATOM     26  C   UNL     1      28.971 -23.247 -16.161  0.00  0.00    -0.022 C 
ATOM     27  C   UNL     1      28.974 -24.353 -15.310  0.00  0.00    -0.005 C 
ATOM     28  C   UNL     1      30.026 -22.335 -16.121  0.00  0.00    -0.005 C 
ATOM     29  C   UNL     1      27.841 -23.039 -17.109  0.00  0.00    +0.031 C 
ENDBRANCH  22  23
ENDBRANCH  21  22
ENDBRANCH   7  21
TORSDOF 3
ENDMDL
MODEL 9
REMARK VINA RESULT:     -10.2      1.671      3.937
REMARK  Name = 5326929
REMARK  3 active torsions:
REMARK  status: ('A' for Active; 'I' for Inactive)
REMARK    1  A    between atoms: C_7  and  C_21
REMARK    2  A    between atoms: C_21  and  C_22
REMARK    3  A    between atoms: C_22  and  C_23
REMARK                            x       y       z     vdW  Elec       q    Type
REMARK                         _______ _______ _______ _____ _____    ______ ____
ROOT
ATOM      1  O   UNL     1      31.078 -23.722 -12.378  0.00  0.00    -0.209 OA
ATOM      2  N   UNL     1      32.272 -23.019 -16.136  0.00  0.00    -0.275 N 
ATOM      3  N   UNL     1      36.188 -24.886 -12.753  0.00  0.00    -0.315 N 
ATOM      4  N   UNL     1      36.819 -24.487 -14.845  0.00  0.00    -0.316 N 
ATOM      5  N   UNL     1      30.548 -23.028 -14.495  0.00  0.00    -0.302 NA
ATOM      6  N   UNL     1      30.154 -22.345 -16.701  0.00  0.00    -0.320 N 
ATOM      7  C   UNL     1      34.557 -23.714 -15.642  0.00  0.00    +0.007 C 
ATOM      8  C   UNL     1      33.231 -23.494 -15.236  0.00  0.00    +0.060 C 
ATOM      9  C   UNL     1      35.482 -24.194 -14.699  0.00  0.00    +0.056 C 
ATOM     10  C   UNL     1      35.062 -24.437 -13.396  0.00  0.00    +0.060 C 
ATOM     11  C   UNL     1      32.845 -23.751 -13.911  0.00  0.00    +0.109 C 
ATOM     12  C   UNL     1      33.754 -24.229 -12.956  0.00  0.00    +0.029 C 
ATOM     13  C   UNL     1      31.424 -23.500 -13.534  0.00  0.00    +0.208 C 
ATOM     14  C   UNL     1      37.210 -24.898 -13.661  0.00  0.00    +0.182 C 
ATOM     15  C   UNL     1      30.980 -22.812 -15.710  0.00  0.00    +0.248 C 
ATOM     16  H   UNL     1      32.521 -22.831 -17.069  0.00  0.00    +0.156 HD
ATOM     17  H   UNL     1      36.249 -25.151 -11.807  0.00  0.00    +0.148 HD
ATOM     18  H   UNL     1      37.364 -24.405 -15.661  0.00  0.00    +0.148 HD
ATOM     19  H   UNL     1      30.510 -22.192 -17.607  0.00  0.00    +0.146 HD
ATOM     20  H   UNL     1      29.207 -22.162 -16.508  0.00  0.00    +0.146 HD
ENDROOT
BRANCH   7  21
ATOM     21  C   UNL     1      34.975 -23.443 -17.053  0.00  0.00    +0.034 C 
BRANCH  21  22
ATOM     22  C   UNL     1      35.686 -22.090 -17.244  0.00  0.00    +0.031 C 
BRANCH  22  23
ATOM     23  C   UNL     1      35.294 -21.386 -18.519  0.00  0.00    -0.022 C 
ATOM     24  C   UNL     1      36.271 -20.759 -19.278  0.00  0.00    -0.005 C 
ATOM     25  C   UNL     1      33.965 -21.378 -18.911  0.00  0.00    -0.005 C 
ATOM     26  C   UNL     1      34.574 -20.091 -20.862  0.00  0.00    -0.022 C 
ATOM     27  C   UNL     1      35.908 -20.107 -20.456  0.00  0.00    -0.005 C 
ATOM     28  C   UNL     1      33.602 -20.727 -20.089  0.00  0.00    -0.005 C 
ATOM     29  C   UNL     1      34.186 -19.396 -22.123  0.00  0.00    +0.031 C 
ENDBRANCH  22  23
ENDBRANCH  21  22
ENDBRANCH   7  21
TORSDOF 3
ENDMDL
