MODEL 1
REMARK VINA RESULT:     -11.8      0.000      0.000
REMARK  Name = 24748573
REMARK  3 active torsions:
REMARK  status: ('A' for Active; 'I' for Inactive)
REMARK    1  A    between atoms: N_2  and  C_18
REMARK    2  A    between atoms: C_13  and  C_25
REMARK    3  A    between atoms: C_25  and  O_26
REMARK                            x       y       z     vdW  Elec       q    Type
REMARK                         _______ _______ _______ _____ _____    ______ ____
ROOT
ATOM      1  N   UNL     1      34.610 -22.875 -16.818  0.00  0.00    -0.391 NA
ATOM      2  N   UNL     1      32.906 -22.204 -18.288  0.00  0.00    -0.288 N 
ATOM      3  N   UNL     1      30.366 -23.585 -14.150  0.00  0.00    -0.243 NA
ATOM      4  C   UNL     1      34.127 -23.679 -14.591  0.00  0.00    +0.098 C 
ATOM      5  C   UNL     1      32.727 -23.492 -14.832  0.00  0.00    +0.011 C 
ATOM      6  C   UNL     1      32.307 -22.994 -16.078  0.00  0.00    +0.044 C 
ATOM      7  C   UNL     1      35.023 -23.349 -15.633  0.00  0.00    +0.119 C 
ATOM      8  C   UNL     1      33.286 -22.709 -17.019  0.00  0.00    +0.183 C 
ATOM      9  C   UNL     1      34.665 -24.172 -13.377  0.00  0.00    -0.015 C 
ATOM     10  C   UNL     1      36.391 -23.520 -15.432  0.00  0.00    +0.035 C 
ATOM     11  C   UNL     1      30.946 -22.798 -16.350  0.00  0.00    +0.024 C 
ATOM     12  C   UNL     1      31.690 -23.764 -13.918  0.00  0.00    +0.095 C 
ATOM     13  C   UNL     1      36.903 -24.007 -14.231  0.00  0.00    +0.077 C 
ATOM     14  C   UNL     1      36.038 -24.334 -13.200  0.00  0.00    +0.003 C 
ATOM     15  C   UNL     1      30.029 -23.107 -15.363  0.00  0.00    +0.099 C 
ATOM     16  H   UNL     1      32.020 -22.511 -18.589  0.00  0.00    +0.155 HD
ENDROOT
BRANCH   2  18
ATOM     17 CL   UNL     1      37.298 -20.349 -20.164  0.00  0.00    -0.082 Cl
ATOM     18  C   UNL     1      33.548 -21.352 -19.199  0.00  0.00    +0.051 C 
ATOM     19  C   UNL     1      34.941 -21.281 -19.224  0.00  0.00    +0.026 C 
ATOM     20  C   UNL     1      32.794 -20.579 -20.083  0.00  0.00    +0.015 C 
ATOM     21  C   UNL     1      35.580 -20.437 -20.133  0.00  0.00    +0.059 C 
ATOM     22  C   UNL     1      33.434 -19.736 -20.991  0.00  0.00    +0.002 C 
ATOM     23  C   UNL     1      34.826 -19.665 -21.016  0.00  0.00    +0.011 C 
ENDBRANCH   2  18
BRANCH  13  25
ATOM     24  O   UNL     1      38.908 -24.422 -12.995  0.00  0.00    -0.245 OA
ATOM     25  C   UNL     1      38.337 -24.169 -14.061  0.00  0.00    +0.338 C 
BRANCH  25  26
ATOM     26  O   UNL     1      39.021 -24.013 -15.228  0.00  0.00    -0.477 OA
ATOM     27  H   UNL     1      39.955 -24.094 -15.239  0.00  0.00    +0.295 HD
ENDBRANCH  25  26
ENDBRANCH  13  25
TORSDOF 3
ENDMDL
MODEL 2
REMARK VINA RESULT:     -11.0      2.947      6.216
REMARK  Name = 24748573
REMARK  3 active torsions:
REMARK  status: ('A' for Active; 'I' for Inactive)
REMARK    1  A    between atoms: N_2  and  C_18
REMARK    2  A    between atoms: C_13  and  C_25
REMARK    3  A    between atoms: C_25  and  O_26
REMARK                            x       y       z     vdW  Elec       q    Type
REMARK                         _______ _______ _______ _____ _____    ______ ____
ROOT
ATOM      1  N   UNL     1      35.500 -23.157 -15.859  0.00  0.00    -0.391 NA
ATOM      2  N   UNL     1      35.618 -24.330 -13.827  0.00  0.00    -0.288 N 
ATOM      3  N   UNL     1      30.669 -24.259 -14.820  0.00  0.00    -0.243 NA
ATOM      4  C   UNL     1      33.393 -22.731 -16.963  0.00  0.00    +0.098 C 
ATOM      5  C   UNL     1      32.706 -23.416 -15.908  0.00  0.00    +0.011 C 
ATOM      6  C   UNL     1      33.451 -23.959 -14.845  0.00  0.00    +0.044 C 
ATOM      7  C   UNL     1      34.801 -22.635 -16.878  0.00  0.00    +0.119 C 
ATOM      8  C   UNL     1      34.829 -23.797 -14.878  0.00  0.00    +0.183 C 
ATOM      9  C   UNL     1      32.749 -22.145 -18.080  0.00  0.00    -0.015 C 
ATOM     10  C   UNL     1      35.498 -21.975 -17.886  0.00  0.00    +0.035 C 
ATOM     11  C   UNL     1      32.815 -24.636 -13.796  0.00  0.00    +0.024 C 
ATOM     12  C   UNL     1      31.314 -23.610 -15.819  0.00  0.00    +0.095 C 
ATOM     13  C   UNL     1      34.848 -21.404 -18.979  0.00  0.00    +0.077 C 
ATOM     14  C   UNL     1      33.469 -21.490 -19.077  0.00  0.00    +0.003 C 
ATOM     15  C   UNL     1      31.439 -24.755 -13.832  0.00  0.00    +0.099 C 
ATOM     16  H   UNL     1      35.154 -24.361 -12.959  0.00  0.00    +0.155 HD
ENDROOT
BRANCH   2  18
ATOM     17 CL   UNL     1      39.164 -27.460 -15.798  0.00  0.00    -0.082 Cl
ATOM     18  C   UNL     1      36.932 -24.821 -13.785  0.00  0.00    +0.051 C 
ATOM     19  C   UNL     1      37.346 -25.786 -14.704  0.00  0.00    +0.026 C 
ATOM     20  C   UNL     1      37.825 -24.341 -12.827  0.00  0.00    +0.015 C 
ATOM     21  C   UNL     1      38.653 -26.270 -14.665  0.00  0.00    +0.059 C 
ATOM     22  C   UNL     1      39.132 -24.826 -12.788  0.00  0.00    +0.002 C 
ATOM     23  C   UNL     1      39.546 -25.790 -13.707  0.00  0.00    +0.011 C 
ENDBRANCH   2  18
BRANCH  13  25
ATOM     24  O   UNL     1      35.139 -20.017 -20.906  0.00  0.00    -0.245 OA
ATOM     25  C   UNL     1      35.614 -20.725 -20.011  0.00  0.00    +0.338 C 
BRANCH  25  26
ATOM     26  O   UNL     1      36.952 -20.946 -19.897  0.00  0.00    -0.477 OA
ATOM     27  H   UNL     1      37.289 -21.412 -19.157  0.00  0.00    +0.295 HD
ENDBRANCH  25  26
ENDBRANCH  13  25
TORSDOF 3
ENDMDL
MODEL 3
REMARK VINA RESULT:     -11.0      1.544      2.284
REMARK  Name = 24748573
REMARK  3 active torsions:
REMARK  status: ('A' for Active; 'I' for Inactive)
REMARK    1  A    between atoms: N_2  and  C_18
REMARK    2  A    between atoms: C_13  and  C_25
REMARK    3  A    between atoms: C_25  and  O_26
REMARK                            x       y       z     vdW  Elec       q    Type
REMARK                         _______ _______ _______ _____ _____    ______ ____
ROOT
ATOM      1  N   UNL     1      36.072 -23.529 -16.063  0.00  0.00    -0.391 NA
ATOM      2  N   UNL     1      34.270 -22.596 -17.245  0.00  0.00    -0.288 N 
ATOM      3  N   UNL     1      32.252 -23.664 -12.742  0.00  0.00    -0.243 NA
ATOM      4  C   UNL     1      35.840 -24.291 -13.780  0.00  0.00    +0.098 C 
ATOM      5  C   UNL     1      34.461 -23.900 -13.795  0.00  0.00    +0.011 C 
ATOM      6  C   UNL     1      33.924 -23.327 -14.961  0.00  0.00    +0.044 C 
ATOM      7  C   UNL     1      36.596 -24.077 -14.956  0.00  0.00    +0.119 C 
ATOM      8  C   UNL     1      34.771 -23.170 -16.049  0.00  0.00    +0.183 C 
ATOM      9  C   UNL     1      36.489 -24.876 -12.665  0.00  0.00    -0.015 C 
ATOM     10  C   UNL     1      37.939 -24.446 -14.976  0.00  0.00    +0.035 C 
ATOM     11  C   UNL     1      32.580 -22.933 -15.013  0.00  0.00    +0.024 C 
ATOM     12  C   UNL     1      33.555 -24.034 -12.725  0.00  0.00    +0.095 C 
ATOM     13  C   UNL     1      38.561 -25.021 -13.869  0.00  0.00    +0.077 C 
ATOM     14  C   UNL     1      37.834 -25.237 -12.710  0.00  0.00    +0.003 C 
ATOM     15  C   UNL     1      31.798 -23.122 -13.889  0.00  0.00    +0.099 C 
ATOM     16  H   UNL     1      33.312 -22.768 -17.397  0.00  0.00    +0.155 HD
ENDROOT
BRANCH   2  18
ATOM     17 CL   UNL     1      33.720 -19.678 -21.420  0.00  0.00    -0.082 Cl
ATOM     18  C   UNL     1      34.875 -21.831 -18.253  0.00  0.00    +0.051 C 
ATOM     19  C   UNL     1      34.088 -21.209 -19.224  0.00  0.00    +0.026 C 
ATOM     20  C   UNL     1      36.262 -21.689 -18.284  0.00  0.00    +0.015 C 
ATOM     21  C   UNL     1      34.689 -20.445 -20.224  0.00  0.00    +0.059 C 
ATOM     22  C   UNL     1      36.863 -20.925 -19.285  0.00  0.00    +0.002 C 
ATOM     23  C   UNL     1      36.076 -20.303 -20.254  0.00  0.00    +0.011 C 
ENDBRANCH   2  18
BRANCH  13  25
ATOM     24  O   UNL     1      40.448 -26.445 -13.503  0.00  0.00    -0.245 OA
ATOM     25  C   UNL     1      39.965 -25.391 -13.931  0.00  0.00    +0.338 C 
BRANCH  25  26
ATOM     26  O   UNL     1      40.730 -24.435 -14.527  0.00  0.00    -0.477 OA
ATOM     27  H   UNL     1      40.441 -23.544 -14.538  0.00  0.00    +0.295 HD
ENDBRANCH  25  26
ENDBRANCH  13  25
TORSDOF 3
ENDMDL
MODEL 4
REMARK VINA RESULT:     -10.6      3.947      6.814
REMARK  Name = 24748573
REMARK  3 active torsions:
REMARK  status: ('A' for Active; 'I' for Inactive)
REMARK    1  A    between atoms: N_2  and  C_18
REMARK    2  A    between atoms: C_13  and  C_25
REMARK    3  A    between atoms: C_25  and  O_26
REMARK                            x       y       z     vdW  Elec       q    Type
REMARK                         _______ _______ _______ _____ _____    ______ ____
ROOT
ATOM      1  N   UNL     1      33.833 -22.490 -17.626  0.00  0.00    -0.391 NA
ATOM      2  N   UNL     1      33.212 -23.824 -15.796  0.00  0.00    -0.288 N 
ATOM      3  N   UNL     1      38.097 -22.894 -14.926  0.00  0.00    -0.243 NA
ATOM      4  C   UNL     1      36.084 -21.647 -17.882  0.00  0.00    +0.098 C 
ATOM      5  C   UNL     1      36.462 -22.298 -16.663  0.00  0.00    +0.011 C 
ATOM      6  C   UNL     1      35.498 -23.035 -15.953  0.00  0.00    +0.044 C 
ATOM      7  C   UNL     1      34.744 -21.783 -18.312  0.00  0.00    +0.119 C 
ATOM      8  C   UNL     1      34.216 -23.093 -16.481  0.00  0.00    +0.183 C 
ATOM      9  C   UNL     1      36.968 -20.880 -18.680  0.00  0.00    -0.015 C 
ATOM     10  C   UNL     1      34.345 -21.164 -19.494  0.00  0.00    +0.035 C 
ATOM     11  C   UNL     1      35.830 -23.685 -14.756  0.00  0.00    +0.024 C 
ATOM     12  C   UNL     1      37.744 -22.277 -16.079  0.00  0.00    +0.095 C 
ATOM     13  C   UNL     1      35.228 -20.413 -20.266  0.00  0.00    +0.077 C 
ATOM     14  C   UNL     1      36.544 -20.270 -19.859  0.00  0.00    +0.003 C 
ATOM     15  C   UNL     1      37.128 -23.584 -14.294  0.00  0.00    +0.099 C 
ATOM     16  H   UNL     1      33.560 -24.589 -15.282  0.00  0.00    +0.155 HD
ENDROOT
BRANCH   2  18
ATOM     17 CL   UNL     1      28.728 -25.621 -14.090  0.00  0.00    -0.082 Cl
ATOM     18  C   UNL     1      31.821 -23.669 -15.709  0.00  0.00    +0.051 C 
ATOM     19  C   UNL     1      31.055 -24.614 -15.025  0.00  0.00    +0.026 C 
ATOM     20  C   UNL     1      31.203 -22.569 -16.305  0.00  0.00    +0.015 C 
ATOM     21  C   UNL     1      29.672 -24.457 -14.935  0.00  0.00    +0.059 C 
ATOM     22  C   UNL     1      29.819 -22.414 -16.215  0.00  0.00    +0.002 C 
ATOM     23  C   UNL     1      29.055 -23.358 -15.530  0.00  0.00    +0.011 C 
ENDBRANCH   2  18
BRANCH  13  25
ATOM     24  O   UNL     1      35.499 -19.355 -22.395  0.00  0.00    -0.245 OA
ATOM     25  C   UNL     1      34.770 -19.781 -21.493  0.00  0.00    +0.338 C 
BRANCH  25  26
ATOM     26  O   UNL     1      33.413 -19.699 -21.561  0.00  0.00    -0.477 OA
ATOM     27  H   UNL     1      32.978 -18.908 -21.311  0.00  0.00    +0.295 HD
ENDBRANCH  25  26
ENDBRANCH  13  25
TORSDOF 3
ENDMDL
MODEL 5
REMARK VINA RESULT:     -10.3      3.283      6.098
REMARK  Name = 24748573
REMARK  3 active torsions:
REMARK  status: ('A' for Active; 'I' for Inactive)
REMARK    1  A    between atoms: N_2  and  C_18
REMARK    2  A    between atoms: C_13  and  C_25
REMARK    3  A    between atoms: C_25  and  O_26
REMARK                            x       y       z     vdW  Elec       q    Type
REMARK                         _______ _______ _______ _____ _____    ______ ____
ROOT
ATOM      1  N   UNL     1      34.202 -23.479 -15.537  0.00  0.00    -0.391 NA
ATOM      2  N   UNL     1      32.999 -24.665 -13.905  0.00  0.00    -0.288 N 
ATOM      3  N   UNL     1      37.311 -23.521 -11.541  0.00  0.00    -0.243 NA
ATOM      4  C   UNL     1      36.410 -22.598 -15.102  0.00  0.00    +0.098 C 
ATOM      5  C   UNL     1      36.355 -23.128 -13.772  0.00  0.00    +0.011 C 
ATOM      6  C   UNL     1      35.206 -23.827 -13.360  0.00  0.00    +0.044 C 
ATOM      7  C   UNL     1      35.292 -22.809 -15.941  0.00  0.00    +0.119 C 
ATOM      8  C   UNL     1      34.176 -23.967 -14.279  0.00  0.00    +0.183 C 
ATOM      9  C   UNL     1      37.513 -21.878 -15.626  0.00  0.00    -0.015 C 
ATOM     10  C   UNL     1      35.314 -22.309 -17.241  0.00  0.00    +0.035 C 
ATOM     11  C   UNL     1      35.116 -24.360 -12.067  0.00  0.00    +0.024 C 
ATOM     12  C   UNL     1      37.366 -23.018 -12.798  0.00  0.00    +0.095 C 
ATOM     13  C   UNL     1      36.407 -21.602 -17.739  0.00  0.00    +0.077 C 
ATOM     14  C   UNL     1      37.510 -21.386 -16.929  0.00  0.00    +0.003 C 
ATOM     15  C   UNL     1      36.184 -24.181 -11.209  0.00  0.00    +0.099 C 
ATOM     16  H   UNL     1      33.152 -25.371 -13.237  0.00  0.00    +0.155 HD
ENDROOT
BRANCH   2  18
ATOM     17 CL   UNL     1      29.468 -22.092 -16.582  0.00  0.00    -0.082 Cl
ATOM     18  C   UNL     1      31.660 -24.543 -14.304  0.00  0.00    +0.051 C 
ATOM     19  C   UNL     1      31.274 -23.498 -15.144  0.00  0.00    +0.026 C 
ATOM     20  C   UNL     1      30.713 -25.469 -13.863  0.00  0.00    +0.015 C 
ATOM     21  C   UNL     1      29.944 -23.379 -15.544  0.00  0.00    +0.059 C 
ATOM     22  C   UNL     1      29.383 -25.349 -14.263  0.00  0.00    +0.002 C 
ATOM     23  C   UNL     1      28.998 -24.305 -15.104  0.00  0.00    +0.011 C 
ENDBRANCH   2  18
BRANCH  13  25
ATOM     24  O   UNL     1      36.929 -20.051 -19.483  0.00  0.00    -0.245 OA
ATOM     25  C   UNL     1      36.389 -21.094 -19.101  0.00  0.00    +0.338 C 
BRANCH  25  26
ATOM     26  O   UNL     1      35.699 -21.904 -19.950  0.00  0.00    -0.477 OA
ATOM     27  H   UNL     1      34.877 -21.622 -20.301  0.00  0.00    +0.295 HD
ENDBRANCH  25  26
ENDBRANCH  13  25
TORSDOF 3
ENDMDL
MODEL 6
REMARK VINA RESULT:     -10.1      3.004      5.447
REMARK  Name = 24748573
REMARK  3 active torsions:
REMARK  status: ('A' for Active; 'I' for Inactive)
REMARK    1  A    between atoms: N_2  and  C_18
REMARK    2  A    between atoms: C_13  and  C_25
REMARK    3  A    between atoms: C_25  and  O_26
REMARK                            x       y       z     vdW  Elec       q    Type
REMARK                         _______ _______ _______ _____ _____    ______ ____
ROOT
ATOM      1  N   UNL     1      33.693 -23.123 -14.686  0.00  0.00    -0.391 NA
ATOM      2  N   UNL     1      32.178 -22.485 -16.363  0.00  0.00    -0.288 N 
ATOM      3  N   UNL     1      36.670 -21.803 -18.563  0.00  0.00    -0.243 NA
ATOM      4  C   UNL     1      36.083 -23.055 -15.037  0.00  0.00    +0.098 C 
ATOM      5  C   UNL     1      35.870 -22.572 -16.369  0.00  0.00    +0.011 C 
ATOM      6  C   UNL     1      34.554 -22.376 -16.824  0.00  0.00    +0.044 C 
ATOM      7  C   UNL     1      34.944 -23.313 -14.241  0.00  0.00    +0.119 C 
ATOM      8  C   UNL     1      33.520 -22.666 -15.945  0.00  0.00    +0.183 C 
ATOM      9  C   UNL     1      37.361 -23.289 -14.472  0.00  0.00    -0.015 C 
ATOM     10  C   UNL     1      35.116 -23.783 -12.941  0.00  0.00    +0.035 C 
ATOM     11  C   UNL     1      34.305 -21.905 -18.120  0.00  0.00    +0.024 C 
ATOM     12  C   UNL     1      36.876 -22.260 -17.304  0.00  0.00    +0.095 C 
ATOM     13  C   UNL     1      36.382 -24.007 -12.401  0.00  0.00    +0.077 C 
ATOM     14  C   UNL     1      37.508 -23.760 -13.169  0.00  0.00    +0.003 C 
ATOM     15  C   UNL     1      35.386 -21.637 -18.938  0.00  0.00    +0.099 C 
ATOM     16  H   UNL     1      32.062 -21.766 -17.026  0.00  0.00    +0.155 HD
ENDROOT
BRANCH   2  18
ATOM     17 CL   UNL     1      27.079 -22.261 -15.910  0.00  0.00    -0.082 Cl
ATOM     18  C   UNL     1      30.982 -23.130 -16.015  0.00  0.00    +0.051 C 
ATOM     19  C   UNL     1      29.767 -22.452 -16.120  0.00  0.00    +0.026 C 
ATOM     20  C   UNL     1      31.007 -24.451 -15.565  0.00  0.00    +0.015 C 
ATOM     21  C   UNL     1      28.578 -23.096 -15.778  0.00  0.00    +0.059 C 
ATOM     22  C   UNL     1      29.817 -25.093 -15.223  0.00  0.00    +0.002 C 
ATOM     23  C   UNL     1      28.603 -24.416 -15.330  0.00  0.00    +0.011 C 
ENDBRANCH   2  18
BRANCH  13  25
ATOM     24  O   UNL     1      35.588 -24.867 -10.315  0.00  0.00    -0.245 OA
ATOM     25  C   UNL     1      36.518 -24.500 -11.041  0.00  0.00    +0.338 C 
BRANCH  25  26
ATOM     26  O   UNL     1      37.814 -24.523 -10.622  0.00  0.00    -0.477 OA
ATOM     27  H   UNL     1      38.056 -24.095  -9.825  0.00  0.00    +0.295 HD
ENDBRANCH  25  26
ENDBRANCH  13  25
TORSDOF 3
ENDMDL
MODEL 7
REMARK VINA RESULT:      -9.8      3.551      6.841
REMARK  Name = 24748573
REMARK  3 active torsions:
REMARK  status: ('A' for Active; 'I' for Inactive)
REMARK    1  A    between atoms: N_2  and  C_18
REMARK    2  A    between atoms: C_13  and  C_25
REMARK    3  A    between atoms: C_25  and  O_26
REMARK                            x       y       z     vdW  Elec       q    Type
REMARK                         _______ _______ _______ _____ _____    ______ ____
ROOT
ATOM      1  N   UNL     1      34.478 -23.872 -15.300  0.00  0.00    -0.391 NA
ATOM      2  N   UNL     1      36.757 -23.578 -15.785  0.00  0.00    -0.288 N 
ATOM      3  N   UNL     1      34.465 -20.968 -19.448  0.00  0.00    -0.243 NA
ATOM      4  C   UNL     1      32.747 -22.880 -16.665  0.00  0.00    +0.098 C 
ATOM      5  C   UNL     1      33.751 -22.307 -17.514  0.00  0.00    +0.011 C 
ATOM      6  C   UNL     1      35.107 -22.539 -17.222  0.00  0.00    +0.044 C 
ATOM      7  C   UNL     1      33.180 -23.658 -15.567  0.00  0.00    +0.119 C 
ATOM      8  C   UNL     1      35.402 -23.321 -16.115  0.00  0.00    +0.183 C 
ATOM      9  C   UNL     1      31.354 -22.715 -16.861  0.00  0.00    -0.015 C 
ATOM     10  C   UNL     1      32.231 -24.230 -14.724  0.00  0.00    +0.035 C 
ATOM     11  C   UNL     1      36.117 -21.995 -18.028  0.00  0.00    +0.024 C 
ATOM     12  C   UNL     1      33.513 -21.508 -18.649  0.00  0.00    +0.095 C 
ATOM     13  C   UNL     1      30.863 -24.057 -14.931  0.00  0.00    +0.077 C 
ATOM     14  C   UNL     1      30.423 -23.297 -16.003  0.00  0.00    +0.003 C 
ATOM     15  C   UNL     1      35.745 -21.228 -19.116  0.00  0.00    +0.099 C 
ATOM     16  H   UNL     1      37.359 -23.594 -16.564  0.00  0.00    +0.155 HD
ENDROOT
BRANCH   2  18
ATOM     17 CL   UNL     1      37.130 -22.546 -10.780  0.00  0.00    -0.082 Cl
ATOM     18  C   UNL     1      37.405 -23.815 -14.563  0.00  0.00    +0.051 C 
ATOM     19  C   UNL     1      36.995 -23.139 -13.413  0.00  0.00    +0.026 C 
ATOM     20  C   UNL     1      38.457 -24.729 -14.497  0.00  0.00    +0.015 C 
ATOM     21  C   UNL     1      37.636 -23.378 -12.198  0.00  0.00    +0.059 C 
ATOM     22  C   UNL     1      39.099 -24.967 -13.282  0.00  0.00    +0.002 C 
ATOM     23  C   UNL     1      38.688 -24.292 -12.133  0.00  0.00    +0.011 C 
ENDBRANCH   2  18
BRANCH  13  25
ATOM     24  O   UNL     1      28.738 -24.962 -14.310  0.00  0.00    -0.245 OA
ATOM     25  C   UNL     1      29.905 -24.669 -14.027  0.00  0.00    +0.338 C 
BRANCH  25  26
ATOM     26  O   UNL     1      30.429 -24.902 -12.792  0.00  0.00    -0.477 OA
ATOM     27  H   UNL     1      30.677 -25.772 -12.545  0.00  0.00    +0.295 HD
ENDBRANCH  25  26
ENDBRANCH  13  25
TORSDOF 3
ENDMDL
MODEL 8
REMARK VINA RESULT:      -9.7      3.134      4.940
REMARK  Name = 24748573
REMARK  3 active torsions:
REMARK  status: ('A' for Active; 'I' for Inactive)
REMARK    1  A    between atoms: N_2  and  C_18
REMARK    2  A    between atoms: C_13  and  C_25
REMARK    3  A    between atoms: C_25  and  O_26
REMARK                            x       y       z     vdW  Elec       q    Type
REMARK                         _______ _______ _______ _____ _____    ______ ____
ROOT
ATOM      1  N   UNL     1      34.231 -22.576 -16.182  0.00  0.00    -0.391 NA
ATOM      2  N   UNL     1      36.269 -21.808 -17.062  0.00  0.00    -0.288 N 
ATOM      3  N   UNL     1      37.720 -25.200 -13.616  0.00  0.00    -0.243 NA
ATOM      4  C   UNL     1      34.146 -24.254 -14.445  0.00  0.00    +0.098 C 
ATOM      5  C   UNL     1      35.578 -24.316 -14.441  0.00  0.00    +0.011 C 
ATOM      6  C   UNL     1      36.302 -23.493 -15.321  0.00  0.00    +0.044 C 
ATOM      7  C   UNL     1      33.530 -23.357 -15.347  0.00  0.00    +0.119 C 
ATOM      8  C   UNL     1      35.579 -22.654 -16.157  0.00  0.00    +0.183 C 
ATOM      9  C   UNL     1      33.315 -25.035 -13.604  0.00  0.00    -0.015 C 
ATOM     10  C   UNL     1      32.140 -23.271 -15.376  0.00  0.00    +0.035 C 
ATOM     11  C   UNL     1      37.703 -23.525 -15.346  0.00  0.00    +0.024 C 
ATOM     12  C   UNL     1      36.365 -25.145 -13.617  0.00  0.00    +0.095 C 
ATOM     13  C   UNL     1      31.338 -24.047 -14.541  0.00  0.00    +0.077 C 
ATOM     14  C   UNL     1      31.926 -24.931 -13.652  0.00  0.00    +0.003 C 
ATOM     15  C   UNL     1      38.354 -24.386 -14.482  0.00  0.00    +0.099 C 
ATOM     16  H   UNL     1      37.157 -21.526 -16.743  0.00  0.00    +0.155 HD
ENDROOT
BRANCH   2  18
ATOM     17 CL   UNL     1      37.607 -18.959 -21.105  0.00  0.00    -0.082 Cl
ATOM     18  C   UNL     1      35.931 -21.293 -18.322  0.00  0.00    +0.051 C 
ATOM     19  C   UNL     1      36.831 -20.475 -19.006  0.00  0.00    +0.026 C 
ATOM     20  C   UNL     1      34.697 -21.603 -18.895  0.00  0.00    +0.015 C 
ATOM     21  C   UNL     1      36.497 -19.967 -20.261  0.00  0.00    +0.059 C 
ATOM     22  C   UNL     1      34.363 -21.095 -20.150  0.00  0.00    +0.002 C 
ATOM     23  C   UNL     1      35.264 -20.277 -20.833  0.00  0.00    +0.011 C 
ENDBRANCH   2  18
BRANCH  13  25
ATOM     24  O   UNL     1      29.269 -22.925 -14.970  0.00  0.00    -0.245 OA
ATOM     25  C   UNL     1      29.890 -23.929 -14.604  0.00  0.00    +0.338 C 
BRANCH  25  26
ATOM     26  O   UNL     1      29.257 -25.068 -14.210  0.00  0.00    -0.477 OA
ATOM     27  H   UNL     1      28.415 -25.019 -13.803  0.00  0.00    +0.295 HD
ENDBRANCH  25  26
ENDBRANCH  13  25
TORSDOF 3
ENDMDL
MODEL 9
REMARK VINA RESULT:      -9.3     12.567     15.364
REMARK  Name = 24748573
REMARK  3 active torsions:
REMARK  status: ('A' for Active; 'I' for Inactive)
REMARK    1  A    between atoms: N_2  and  C_18
REMARK    2  A    between atoms: C_13  and  C_25
REMARK    3  A    between atoms: C_25  and  O_26
REMARK                            x       y       z     vdW  Elec       q    Type
REMARK                         _______ _______ _______ _____ _____    ______ ____
ROOT
ATOM      1  N   UNL     1      33.033  -9.515 -23.643  0.00  0.00    -0.391 NA
ATOM      2  N   UNL     1      32.616  -7.333 -22.879  0.00  0.00    -0.288 N 
ATOM      3  N   UNL     1      31.741 -10.161 -18.790  0.00  0.00    -0.243 NA
ATOM      4  C   UNL     1      32.810 -11.436 -22.193  0.00  0.00    +0.098 C 
ATOM      5  C   UNL     1      32.428 -10.572 -21.115  0.00  0.00    +0.011 C 
ATOM      6  C   UNL     1      32.360  -9.186 -21.339  0.00  0.00    +0.044 C 
ATOM      7  C   UNL     1      33.102 -10.839 -23.441  0.00  0.00    +0.119 C 
ATOM      8  C   UNL     1      32.671  -8.724 -22.610  0.00  0.00    +0.183 C 
ATOM      9  C   UNL     1      32.912 -12.845 -22.084  0.00  0.00    -0.015 C 
ATOM     10  C   UNL     1      33.475 -11.650 -24.510  0.00  0.00    +0.035 C 
ATOM     11  C   UNL     1      31.991  -8.310 -20.309  0.00  0.00    +0.024 C 
ATOM     12  C   UNL     1      32.102 -10.981 -19.807  0.00  0.00    +0.095 C 
ATOM     13  C   UNL     1      33.570 -13.035 -24.385  0.00  0.00    +0.077 C 
ATOM     14  C   UNL     1      33.288 -13.634 -23.168  0.00  0.00    +0.003 C 
ATOM     15  C   UNL     1      31.695  -8.844 -19.069  0.00  0.00    +0.099 C 
ATOM     16  H   UNL     1      31.951  -6.850 -22.338  0.00  0.00    +0.155 HD
ENDROOT
BRANCH   2  18
ATOM     17 CL   UNL     1      32.535  -3.495 -26.272  0.00  0.00    -0.082 Cl
ATOM     18  C   UNL     1      33.326  -6.513 -23.769  0.00  0.00    +0.051 C 
ATOM     19  C   UNL     1      32.655  -5.528 -24.496  0.00  0.00    +0.026 C 
ATOM     20  C   UNL     1      34.702  -6.678 -23.924  0.00  0.00    +0.015 C 
ATOM     21  C   UNL     1      33.361  -4.709 -25.376  0.00  0.00    +0.059 C 
ATOM     22  C   UNL     1      35.408  -5.859 -24.805  0.00  0.00    +0.002 C 
ATOM     23  C   UNL     1      34.737  -4.875 -25.531  0.00  0.00    +0.011 C 
ENDBRANCH   2  18
BRANCH  13  25
ATOM     24  O   UNL     1      34.360 -15.015 -25.470  0.00  0.00    -0.245 OA
ATOM     25  C   UNL     1      33.965 -13.846 -25.525  0.00  0.00    +0.338 C 
BRANCH  25  26
ATOM     26  O   UNL     1      33.854 -13.175 -26.704  0.00  0.00    -0.477 OA
ATOM     27  H   UNL     1      34.488 -13.310 -27.381  0.00  0.00    +0.295 HD
ENDBRANCH  25  26
ENDBRANCH  13  25
TORSDOF 3
ENDMDL
