MODEL 1
REMARK VINA RESULT:     -12.2      0.000      0.000
REMARK  Name = 11952989
REMARK  5 active torsions:
REMARK  status: ('A' for Active; 'I' for Inactive)
REMARK    1  A    between atoms: C_4  and  C_21
REMARK    2  A    between atoms: C_6  and  C_11
REMARK    3  A    between atoms: C_24  and  C_27
REMARK    4  A    between atoms: C_27  and  C_29
REMARK    5  A    between atoms: C_29  and  O_30
REMARK                            x       y       z     vdW  Elec       q    Type
REMARK                         _______ _______ _______ _____ _____    ______ ____
ROOT
ATOM      1  N   UNL     1      33.214 -25.041 -13.686  0.00  0.00    -0.297 N 
ATOM      2  N   UNL     1      35.185 -24.342 -14.882  0.00  0.00    -0.229 NA
ATOM      3  C   UNL     1      32.897 -23.603 -15.364  0.00  0.00    +0.033 C 
ATOM      4  C   UNL     1      31.641 -23.904 -14.775  0.00  0.00    +0.017 C 
ATOM      5  C   UNL     1      33.857 -24.327 -14.663  0.00  0.00    +0.132 C 
ATOM      6  C   UNL     1      34.710 -22.772 -16.690  0.00  0.00    +0.019 C 
ATOM      7  C   UNL     1      33.344 -22.792 -16.421  0.00  0.00    +0.004 C 
ATOM      8  C   UNL     1      31.867 -24.792 -13.745  0.00  0.00    +0.063 C 
ATOM      9  C   UNL     1      35.559 -23.544 -15.909  0.00  0.00    +0.100 C 
ATOM     10  H   UNL     1      33.652 -25.641 -13.040  0.00  0.00    +0.154 HD
ENDROOT
BRANCH   6  11
ATOM     11  C   UNL     1      35.235 -21.959 -17.765  0.00  0.00    +0.001 C 
ATOM     12  C   UNL     1      34.866 -20.657 -19.787  0.00  0.00    +0.000 C 
ATOM     13  C   UNL     1      34.373 -21.448 -18.736  0.00  0.00    +0.000 C 
ATOM     14  C   UNL     1      36.253 -20.380 -19.853  0.00  0.00    +0.000 C 
ATOM     15  C   UNL     1      36.598 -21.687 -17.830  0.00  0.00    +0.000 C 
ATOM     16  C   UNL     1      37.105 -20.903 -18.867  0.00  0.00    +0.000 C 
ATOM     17  C   UNL     1      34.013 -20.134 -20.774  0.00  0.00    +0.000 C 
ATOM     18  C   UNL     1      36.746 -19.589 -20.904  0.00  0.00    +0.000 C 
ATOM     19  C   UNL     1      34.522 -19.350 -21.810  0.00  0.00    +0.000 C 
ATOM     20  C   UNL     1      35.885 -19.078 -21.876  0.00  0.00    +0.000 C 
ENDBRANCH   6  11
BRANCH   4  21
ATOM     21  C   UNL     1      30.328 -23.433 -15.110  0.00  0.00    +0.001 C 
ATOM     22  C   UNL     1      29.818 -22.289 -14.495  0.00  0.00    -0.000 C 
ATOM     23  C   UNL     1      29.559 -24.117 -16.052  0.00  0.00    -0.000 C 
ATOM     24  C   UNL     1      27.775 -22.516 -15.763  0.00  0.00    -0.011 C 
ATOM     25  C   UNL     1      28.542 -21.831 -14.821  0.00  0.00    -0.004 C 
ATOM     26  C   UNL     1      28.283 -23.659 -16.379  0.00  0.00    -0.004 C 
BRANCH  24  27
ATOM     27  C   UNL     1      26.411 -22.023 -16.113  0.00  0.00    +0.136 C 
BRANCH  27  29
ATOM     28  O   UNL     1      26.344 -20.052 -17.542  0.00  0.00    -0.250 OA
ATOM     29  C   UNL     1      26.359 -21.270 -17.428  0.00  0.00    +0.318 C 
BRANCH  29  30
ATOM     30  O   UNL     1      26.332 -22.113 -18.494  0.00  0.00    -0.480 OA
ATOM     31  H   UNL     1      25.996 -22.983 -18.394  0.00  0.00    +0.295 HD
ENDBRANCH  29  30
ENDBRANCH  27  29
ENDBRANCH  24  27
ENDBRANCH   4  21
TORSDOF 5
ENDMDL
MODEL 2
REMARK VINA RESULT:     -12.2      4.941      7.100
REMARK  Name = 11952989
REMARK  5 active torsions:
REMARK  status: ('A' for Active; 'I' for Inactive)
REMARK    1  A    between atoms: C_4  and  C_21
REMARK    2  A    between atoms: C_6  and  C_11
REMARK    3  A    between atoms: C_24  and  C_27
REMARK    4  A    between atoms: C_27  and  C_29
REMARK    5  A    between atoms: C_29  and  O_30
REMARK                            x       y       z     vdW  Elec       q    Type
REMARK                         _______ _______ _______ _____ _____    ______ ____
ROOT
ATOM      1  N   UNL     1      32.228 -23.884 -15.543  0.00  0.00    -0.297 N 
ATOM      2  N   UNL     1      32.027 -22.428 -17.452  0.00  0.00    -0.229 NA
ATOM      3  C   UNL     1      34.139 -23.175 -16.454  0.00  0.00    +0.033 C 
ATOM      4  C   UNL     1      34.441 -24.016 -15.350  0.00  0.00    +0.017 C 
ATOM      5  C   UNL     1      32.751 -23.114 -16.547  0.00  0.00    +0.132 C 
ATOM      6  C   UNL     1      34.181 -21.722 -18.357  0.00  0.00    +0.019 C 
ATOM      7  C   UNL     1      34.883 -22.449 -17.399  0.00  0.00    +0.004 C 
ATOM      8  C   UNL     1      33.245 -24.438 -14.810  0.00  0.00    +0.063 C 
ATOM      9  C   UNL     1      32.794 -21.749 -18.335  0.00  0.00    +0.100 C 
ATOM     10  H   UNL     1      31.267 -24.021 -15.374  0.00  0.00    +0.154 HD
ENDROOT
BRANCH   6  11
ATOM     11  C   UNL     1      34.888 -20.952 -19.358  0.00  0.00    +0.001 C 
ATOM     12  C   UNL     1      34.854 -19.615 -21.390  0.00  0.00    +0.000 C 
ATOM     13  C   UNL     1      34.184 -20.365 -20.410  0.00  0.00    +0.000 C 
ATOM     14  C   UNL     1      36.258 -19.459 -21.302  0.00  0.00    +0.000 C 
ATOM     15  C   UNL     1      36.268 -20.798 -19.271  0.00  0.00    +0.000 C 
ATOM     16  C   UNL     1      36.950 -20.056 -20.235  0.00  0.00    +0.000 C 
ATOM     17  C   UNL     1      34.162 -19.017 -22.456  0.00  0.00    +0.000 C 
ATOM     18  C   UNL     1      36.928 -18.709 -22.282  0.00  0.00    +0.000 C 
ATOM     19  C   UNL     1      34.845 -18.276 -23.421  0.00  0.00    +0.000 C 
ATOM     20  C   UNL     1      36.225 -18.122 -23.335  0.00  0.00    +0.000 C 
ENDBRANCH   6  11
BRANCH   4  21
ATOM     21  C   UNL     1      35.711 -24.415 -14.815  0.00  0.00    +0.001 C 
ATOM     22  C   UNL     1      36.477 -23.506 -14.084  0.00  0.00    -0.000 C 
ATOM     23  C   UNL     1      36.181 -25.712 -15.025  0.00  0.00    -0.000 C 
ATOM     24  C   UNL     1      38.180 -25.191 -13.773  0.00  0.00    -0.011 C 
ATOM     25  C   UNL     1      37.711 -23.895 -13.563  0.00  0.00    -0.004 C 
ATOM     26  C   UNL     1      37.415 -26.100 -14.504  0.00  0.00    -0.004 C 
BRANCH  24  27
ATOM     27  C   UNL     1      39.500 -25.606 -13.213  0.00  0.00    +0.136 C 
BRANCH  27  29
ATOM     28  O   UNL     1      40.872 -26.903 -14.751  0.00  0.00    -0.250 OA
ATOM     29  C   UNL     1      40.564 -25.820 -14.271  0.00  0.00    +0.318 C 
BRANCH  29  30
ATOM     30  O   UNL     1      41.155 -24.653 -14.639  0.00  0.00    -0.480 OA
ATOM     31  H   UNL     1      41.710 -24.626 -15.394  0.00  0.00    +0.295 HD
ENDBRANCH  29  30
ENDBRANCH  27  29
ENDBRANCH  24  27
ENDBRANCH   4  21
TORSDOF 5
ENDMDL
MODEL 3
REMARK VINA RESULT:     -11.9      7.071     10.738
REMARK  Name = 11952989
REMARK  5 active torsions:
REMARK  status: ('A' for Active; 'I' for Inactive)
REMARK    1  A    between atoms: C_4  and  C_21
REMARK    2  A    between atoms: C_6  and  C_11
REMARK    3  A    between atoms: C_24  and  C_27
REMARK    4  A    between atoms: C_27  and  C_29
REMARK    5  A    between atoms: C_29  and  O_30
REMARK                            x       y       z     vdW  Elec       q    Type
REMARK                         _______ _______ _______ _____ _____    ______ ____
ROOT
ATOM      1  N   UNL     1      34.114 -14.316 -25.669  0.00  0.00    -0.297 N 
ATOM      2  N   UNL     1      35.113 -16.477 -25.302  0.00  0.00    -0.229 NA
ATOM      3  C   UNL     1      34.208 -15.018 -23.551  0.00  0.00    +0.033 C 
ATOM      4  C   UNL     1      33.594 -13.737 -23.584  0.00  0.00    +0.017 C 
ATOM      5  C   UNL     1      34.520 -15.350 -24.866  0.00  0.00    +0.132 C 
ATOM      6  C   UNL     1      35.158 -17.132 -22.950  0.00  0.00    +0.019 C 
ATOM      7  C   UNL     1      34.541 -15.948 -22.553  0.00  0.00    +0.004 C 
ATOM      8  C   UNL     1      33.549 -13.331 -24.900  0.00  0.00    +0.063 C 
ATOM      9  C   UNL     1      35.412 -17.336 -24.299  0.00  0.00    +0.100 C 
ATOM     10  H   UNL     1      34.211 -14.286 -26.649  0.00  0.00    +0.154 HD
ENDROOT
BRANCH   6  11
ATOM     11  C   UNL     1      35.528 -18.132 -21.972  0.00  0.00    +0.001 C 
ATOM     12  C   UNL     1      34.893 -19.942 -20.475  0.00  0.00    +0.000 C 
ATOM     13  C   UNL     1      34.552 -18.966 -21.426  0.00  0.00    +0.000 C 
ATOM     14  C   UNL     1      36.244 -20.072 -20.071  0.00  0.00    +0.000 C 
ATOM     15  C   UNL     1      36.855 -18.259 -21.575  0.00  0.00    +0.000 C 
ATOM     16  C   UNL     1      37.213 -19.223 -20.631  0.00  0.00    +0.000 C 
ATOM     17  C   UNL     1      33.924 -20.791 -19.915  0.00  0.00    +0.000 C 
ATOM     18  C   UNL     1      36.585 -21.047 -19.120  0.00  0.00    +0.000 C 
ATOM     19  C   UNL     1      34.283 -21.754 -18.971  0.00  0.00    +0.000 C 
ATOM     20  C   UNL     1      35.610 -21.882 -18.574  0.00  0.00    +0.000 C 
ENDBRANCH   6  11
BRANCH   4  21
ATOM     21  C   UNL     1      33.083 -12.932 -22.513  0.00  0.00    +0.001 C 
ATOM     22  C   UNL     1      32.746 -11.597 -22.741  0.00  0.00    -0.000 C 
ATOM     23  C   UNL     1      32.921 -13.483 -21.241  0.00  0.00    -0.000 C 
ATOM     24  C   UNL     1      32.088 -11.366 -20.428  0.00  0.00    -0.011 C 
ATOM     25  C   UNL     1      32.249 -10.815 -21.699  0.00  0.00    -0.004 C 
ATOM     26  C   UNL     1      32.424 -12.700 -20.199  0.00  0.00    -0.004 C 
BRANCH  24  27
ATOM     27  C   UNL     1      31.553 -10.529 -19.315  0.00  0.00    +0.136 C 
BRANCH  27  29
ATOM     28  O   UNL     1      31.673  -8.121 -19.659  0.00  0.00    -0.250 OA
ATOM     29  C   UNL     1      32.182  -9.152 -19.239  0.00  0.00    +0.318 C 
BRANCH  29  30
ATOM     30  O   UNL     1      33.401  -9.184 -18.639  0.00  0.00    -0.480 OA
ATOM     31  H   UNL     1      34.086  -8.618 -18.940  0.00  0.00    +0.295 HD
ENDBRANCH  29  30
ENDBRANCH  27  29
ENDBRANCH  24  27
ENDBRANCH   4  21
TORSDOF 5
ENDMDL
MODEL 4
REMARK VINA RESULT:     -11.6      1.351      2.448
REMARK  Name = 11952989
REMARK  5 active torsions:
REMARK  status: ('A' for Active; 'I' for Inactive)
REMARK    1  A    between atoms: C_4  and  C_21
REMARK    2  A    between atoms: C_6  and  C_11
REMARK    3  A    between atoms: C_24  and  C_27
REMARK    4  A    between atoms: C_27  and  C_29
REMARK    5  A    between atoms: C_29  and  O_30
REMARK                            x       y       z     vdW  Elec       q    Type
REMARK                         _______ _______ _______ _____ _____    ______ ____
ROOT
ATOM      1  N   UNL     1      36.320 -23.955 -14.393  0.00  0.00    -0.297 N 
ATOM      2  N   UNL     1      37.691 -22.785 -15.992  0.00  0.00    -0.229 NA
ATOM      3  C   UNL     1      35.240 -22.839 -15.997  0.00  0.00    +0.033 C 
ATOM      4  C   UNL     1      34.286 -23.464 -15.149  0.00  0.00    +0.017 C 
ATOM      5  C   UNL     1      36.497 -23.165 -15.498  0.00  0.00    +0.132 C 
ATOM      6  C   UNL     1      36.396 -21.606 -17.692  0.00  0.00    +0.019 C 
ATOM      7  C   UNL     1      35.188 -22.026 -17.141  0.00  0.00    +0.004 C 
ATOM      8  C   UNL     1      34.980 -24.143 -14.172  0.00  0.00    +0.063 C 
ATOM      9  C   UNL     1      37.582 -22.005 -17.092  0.00  0.00    +0.100 C 
ATOM     10  H   UNL     1      37.044 -24.330 -13.841  0.00  0.00    +0.154 HD
ENDROOT
BRANCH   6  11
ATOM     11  C   UNL     1      36.413 -20.767 -18.871  0.00  0.00    +0.001 C 
ATOM     12  C   UNL     1      35.290 -19.897 -20.846  0.00  0.00    +0.000 C 
ATOM     13  C   UNL     1      35.291 -20.705 -19.698  0.00  0.00    +0.000 C 
ATOM     14  C   UNL     1      36.445 -19.140 -21.160  0.00  0.00    +0.000 C 
ATOM     15  C   UNL     1      37.548 -20.024 -19.180  0.00  0.00    +0.000 C 
ATOM     16  C   UNL     1      37.565 -19.214 -20.316  0.00  0.00    +0.000 C 
ATOM     17  C   UNL     1      34.170 -19.823 -21.691  0.00  0.00    +0.000 C 
ATOM     18  C   UNL     1      36.444 -18.332 -22.309  0.00  0.00    +0.000 C 
ATOM     19  C   UNL     1      34.189 -19.014 -22.827  0.00  0.00    +0.000 C 
ATOM     20  C   UNL     1      35.323 -18.270 -23.136  0.00  0.00    +0.000 C 
ENDBRANCH   6  11
BRANCH   4  21
ATOM     21  C   UNL     1      32.853 -23.455 -15.210  0.00  0.00    +0.001 C 
ATOM     22  C   UNL     1      32.108 -24.126 -14.239  0.00  0.00    -0.000 C 
ATOM     23  C   UNL     1      32.201 -22.775 -16.240  0.00  0.00    -0.000 C 
ATOM     24  C   UNL     1      30.065 -23.437 -15.328  0.00  0.00    -0.011 C 
ATOM     25  C   UNL     1      30.715 -24.117 -14.299  0.00  0.00    -0.004 C 
ATOM     26  C   UNL     1      30.808 -22.766 -16.299  0.00  0.00    -0.004 C 
BRANCH  24  27
ATOM     27  C   UNL     1      28.574 -23.425 -15.389  0.00  0.00    +0.136 C 
BRANCH  27  29
ATOM     28  O   UNL     1      27.804 -21.636 -16.849  0.00  0.00    -0.250 OA
ATOM     29  C   UNL     1      28.026 -22.826 -16.668  0.00  0.00    +0.318 C 
BRANCH  29  30
ATOM     30  O   UNL     1      27.802 -23.773 -17.616  0.00  0.00    -0.480 OA
ATOM     31  H   UNL     1      26.933 -23.916 -17.939  0.00  0.00    +0.295 HD
ENDBRANCH  29  30
ENDBRANCH  27  29
ENDBRANCH  24  27
ENDBRANCH   4  21
TORSDOF 5
ENDMDL
MODEL 5
REMARK VINA RESULT:     -10.9      4.124      7.526
REMARK  Name = 11952989
REMARK  5 active torsions:
REMARK  status: ('A' for Active; 'I' for Inactive)
REMARK    1  A    between atoms: C_4  and  C_21
REMARK    2  A    between atoms: C_6  and  C_11
REMARK    3  A    between atoms: C_24  and  C_27
REMARK    4  A    between atoms: C_27  and  C_29
REMARK    5  A    between atoms: C_29  and  O_30
REMARK                            x       y       z     vdW  Elec       q    Type
REMARK                         _______ _______ _______ _____ _____    ______ ____
ROOT
ATOM      1  N   UNL     1      31.391 -23.108 -16.074  0.00  0.00    -0.297 N 
ATOM      2  N   UNL     1      32.711 -24.295 -14.446  0.00  0.00    -0.229 NA
ATOM      3  C   UNL     1      33.604 -23.059 -16.366  0.00  0.00    +0.033 C 
ATOM      4  C   UNL     1      32.987 -22.314 -17.406  0.00  0.00    +0.017 C 
ATOM      5  C   UNL     1      32.582 -23.540 -15.553  0.00  0.00    +0.132 C 
ATOM      6  C   UNL     1      35.112 -24.167 -14.872  0.00  0.00    +0.019 C 
ATOM      7  C   UNL     1      34.922 -23.386 -16.009  0.00  0.00    +0.004 C 
ATOM      8  C   UNL     1      31.625 -22.363 -17.200  0.00  0.00    +0.063 C 
ATOM      9  C   UNL     1      34.001 -24.580 -14.150  0.00  0.00    +0.100 C 
ATOM     10  H   UNL     1      30.502 -23.304 -15.697  0.00  0.00    +0.154 HD
ENDROOT
BRANCH   6  11
ATOM     11  C   UNL     1      36.445 -24.540 -14.450  0.00  0.00    +0.001 C 
ATOM     12  C   UNL     1      38.444 -25.891 -14.759  0.00  0.00    +0.000 C 
ATOM     13  C   UNL     1      37.150 -25.516 -15.155  0.00  0.00    +0.000 C 
ATOM     14  C   UNL     1      39.032 -25.266 -13.633  0.00  0.00    +0.000 C 
ATOM     15  C   UNL     1      37.021 -23.926 -13.343  0.00  0.00    +0.000 C 
ATOM     16  C   UNL     1      38.307 -24.285 -12.936  0.00  0.00    +0.000 C 
ATOM     17  C   UNL     1      39.169 -26.872 -15.456  0.00  0.00    +0.000 C 
ATOM     18  C   UNL     1      40.326 -25.640 -13.237  0.00  0.00    +0.000 C 
ATOM     19  C   UNL     1      40.454 -27.230 -15.048  0.00  0.00    +0.000 C 
ATOM     20  C   UNL     1      41.032 -26.616 -13.941  0.00  0.00    +0.000 C 
ENDBRANCH   6  11
BRANCH   4  21
ATOM     21  C   UNL     1      33.574 -21.609 -18.509  0.00  0.00    +0.001 C 
ATOM     22  C   UNL     1      32.770 -20.846 -19.357  0.00  0.00    -0.000 C 
ATOM     23  C   UNL     1      34.949 -21.685 -18.735  0.00  0.00    -0.000 C 
ATOM     24  C   UNL     1      34.716 -20.237 -20.654  0.00  0.00    -0.011 C 
ATOM     25  C   UNL     1      33.342 -20.161 -20.429  0.00  0.00    -0.004 C 
ATOM     26  C   UNL     1      35.520 -21.000 -19.806  0.00  0.00    -0.004 C 
BRANCH  24  27
ATOM     27  C   UNL     1      35.326 -19.501 -21.799  0.00  0.00    +0.136 C 
BRANCH  27  29
ATOM     28  O   UNL     1      37.580 -18.663 -21.415  0.00  0.00    -0.250 OA
ATOM     29  C   UNL     1      36.370 -18.486 -21.378  0.00  0.00    +0.318 C 
BRANCH  29  30
ATOM     30  O   UNL     1      35.804 -17.328 -20.945  0.00  0.00    -0.480 OA
ATOM     31  H   UNL     1      34.879 -17.200 -21.026  0.00  0.00    +0.295 HD
ENDBRANCH  29  30
ENDBRANCH  27  29
ENDBRANCH  24  27
ENDBRANCH   4  21
TORSDOF 5
ENDMDL
MODEL 6
REMARK VINA RESULT:     -10.8     11.182     14.663
REMARK  Name = 11952989
REMARK  5 active torsions:
REMARK  status: ('A' for Active; 'I' for Inactive)
REMARK    1  A    between atoms: C_4  and  C_21
REMARK    2  A    between atoms: C_6  and  C_11
REMARK    3  A    between atoms: C_24  and  C_27
REMARK    4  A    between atoms: C_27  and  C_29
REMARK    5  A    between atoms: C_29  and  O_30
REMARK                            x       y       z     vdW  Elec       q    Type
REMARK                         _______ _______ _______ _____ _____    ______ ____
ROOT
ATOM      1  N   UNL     1      31.465 -11.208 -19.992  0.00  0.00    -0.297 N 
ATOM      2  N   UNL     1      31.628  -8.858 -20.492  0.00  0.00    -0.229 NA
ATOM      3  C   UNL     1      32.692 -10.657 -21.774  0.00  0.00    +0.033 C 
ATOM      4  C   UNL     1      32.703 -12.070 -21.627  0.00  0.00    +0.017 C 
ATOM      5  C   UNL     1      31.911 -10.150 -20.739  0.00  0.00    +0.132 C 
ATOM      6  C   UNL     1      32.993  -8.383 -22.460  0.00  0.00    +0.019 C 
ATOM      7  C   UNL     1      33.254  -9.735 -22.671  0.00  0.00    +0.004 C 
ATOM      8  C   UNL     1      31.940 -12.380 -20.522  0.00  0.00    +0.063 C 
ATOM      9  C   UNL     1      32.195  -8.014 -21.386  0.00  0.00    +0.100 C 
ATOM     10  H   UNL     1      30.890 -11.138 -19.194  0.00  0.00    +0.154 HD
ENDROOT
BRANCH   6  11
ATOM     11  C   UNL     1      33.543  -7.382 -23.348  0.00  0.00    +0.001 C 
ATOM     12  C   UNL     1      33.233  -5.411 -24.741  0.00  0.00    +0.000 C 
ATOM     13  C   UNL     1      32.716  -6.391 -23.878  0.00  0.00    +0.000 C 
ATOM     14  C   UNL     1      34.610  -5.437 -25.071  0.00  0.00    +0.000 C 
ATOM     15  C   UNL     1      34.896  -7.407 -23.672  0.00  0.00    +0.000 C 
ATOM     16  C   UNL     1      35.427  -6.442 -24.527  0.00  0.00    +0.000 C 
ATOM     17  C   UNL     1      32.415  -4.407 -25.285  0.00  0.00    +0.000 C 
ATOM     18  C   UNL     1      35.127  -4.458 -25.934  0.00  0.00    +0.000 C 
ATOM     19  C   UNL     1      32.948  -3.442 -26.141  0.00  0.00    +0.000 C 
ATOM     20  C   UNL     1      34.301  -3.467 -26.465  0.00  0.00    +0.000 C 
ENDBRANCH   6  11
BRANCH   4  21
ATOM     21  C   UNL     1      33.352 -13.074 -22.420  0.00  0.00    +0.001 C 
ATOM     22  C   UNL     1      34.278 -13.937 -21.832  0.00  0.00    -0.000 C 
ATOM     23  C   UNL     1      33.058 -13.190 -23.779  0.00  0.00    -0.000 C 
ATOM     24  C   UNL     1      34.614 -15.028 -23.962  0.00  0.00    -0.011 C 
ATOM     25  C   UNL     1      34.909 -14.913 -22.603  0.00  0.00    -0.004 C 
ATOM     26  C   UNL     1      33.689 -14.166 -24.550  0.00  0.00    -0.004 C 
BRANCH  24  27
ATOM     27  C   UNL     1      35.288 -16.075 -24.784  0.00  0.00    +0.136 C 
BRANCH  27  29
ATOM     28  O   UNL     1      35.418 -18.252 -23.702  0.00  0.00    -0.250 OA
ATOM     29  C   UNL     1      34.836 -17.484 -24.457  0.00  0.00    +0.318 C 
BRANCH  29  30
ATOM     30  O   UNL     1      33.688 -17.812 -25.106  0.00  0.00    -0.480 OA
ATOM     31  H   UNL     1      33.392 -18.702 -25.113  0.00  0.00    +0.295 HD
ENDBRANCH  29  30
ENDBRANCH  27  29
ENDBRANCH  24  27
ENDBRANCH   4  21
TORSDOF 5
ENDMDL
MODEL 7
REMARK VINA RESULT:     -10.7      5.866      9.731
REMARK  Name = 11952989
REMARK  5 active torsions:
REMARK  status: ('A' for Active; 'I' for Inactive)
REMARK    1  A    between atoms: C_4  and  C_21
REMARK    2  A    between atoms: C_6  and  C_11
REMARK    3  A    between atoms: C_24  and  C_27
REMARK    4  A    between atoms: C_27  and  C_29
REMARK    5  A    between atoms: C_29  and  O_30
REMARK                            x       y       z     vdW  Elec       q    Type
REMARK                         _______ _______ _______ _____ _____    ______ ____
ROOT
ATOM      1  N   UNL     1      35.605 -16.435 -24.965  0.00  0.00    -0.297 N 
ATOM      2  N   UNL     1      36.101 -18.644 -24.145  0.00  0.00    -0.229 NA
ATOM      3  C   UNL     1      35.055 -16.850 -22.841  0.00  0.00    +0.033 C 
ATOM      4  C   UNL     1      34.694 -15.512 -23.156  0.00  0.00    +0.017 C 
ATOM      5  C   UNL     1      35.619 -17.397 -23.990  0.00  0.00    +0.132 C 
ATOM      6  C   UNL     1      35.455 -18.975 -21.814  0.00  0.00    +0.019 C 
ATOM      7  C   UNL     1      34.969 -17.674 -21.708  0.00  0.00    +0.004 C 
ATOM      8  C   UNL     1      35.045 -15.286 -24.470  0.00  0.00    +0.063 C 
ATOM      9  C   UNL     1      35.994 -19.393 -23.023  0.00  0.00    +0.100 C 
ATOM     10  H   UNL     1      35.944 -16.550 -25.883  0.00  0.00    +0.154 HD
ENDROOT
BRANCH   6  11
ATOM     11  C   UNL     1      35.397 -19.875 -20.682  0.00  0.00    +0.001 C 
ATOM     12  C   UNL     1      34.088 -21.202 -19.119  0.00  0.00    +0.000 C 
ATOM     13  C   UNL     1      34.163 -20.329 -20.216  0.00  0.00    +0.000 C 
ATOM     14  C   UNL     1      35.283 -21.622 -18.486  0.00  0.00    +0.000 C 
ATOM     15  C   UNL     1      36.572 -20.287 -20.061  0.00  0.00    +0.000 C 
ATOM     16  C   UNL     1      36.517 -21.155 -18.970  0.00  0.00    +0.000 C 
ATOM     17  C   UNL     1      32.855 -21.669 -18.635  0.00  0.00    +0.000 C 
ATOM     18  C   UNL     1      35.209 -22.495 -17.389  0.00  0.00    +0.000 C 
ATOM     19  C   UNL     1      32.801 -22.536 -17.544  0.00  0.00    +0.000 C 
ATOM     20  C   UNL     1      33.975 -22.949 -16.921  0.00  0.00    +0.000 C 
ENDBRANCH   6  11
BRANCH   4  21
ATOM     21  C   UNL     1      34.080 -14.507 -22.339  0.00  0.00    +0.001 C 
ATOM     22  C   UNL     1      34.217 -14.554 -20.951  0.00  0.00    -0.000 C 
ATOM     23  C   UNL     1      33.345 -13.478 -22.931  0.00  0.00    -0.000 C 
ATOM     24  C   UNL     1      32.886 -12.548 -20.749  0.00  0.00    -0.011 C 
ATOM     25  C   UNL     1      33.621 -13.575 -20.157  0.00  0.00    -0.004 C 
ATOM     26  C   UNL     1      32.748 -12.500 -22.137  0.00  0.00    -0.004 C 
BRANCH  24  27
ATOM     27  C   UNL     1      32.250 -11.500 -19.899  0.00  0.00    +0.136 C 
BRANCH  27  29
ATOM     28  O   UNL     1      31.880  -9.354 -20.988  0.00  0.00    -0.250 OA
ATOM     29  C   UNL     1      31.472 -10.469 -20.691  0.00  0.00    +0.318 C 
BRANCH  29  30
ATOM     30  O   UNL     1      30.242 -10.925 -21.047  0.00  0.00    -0.480 OA
ATOM     31  H   UNL     1      29.572 -10.319 -21.298  0.00  0.00    +0.295 HD
ENDBRANCH  29  30
ENDBRANCH  27  29
ENDBRANCH  24  27
ENDBRANCH   4  21
TORSDOF 5
ENDMDL
MODEL 8
REMARK VINA RESULT:     -10.6      2.431      3.818
REMARK  Name = 11952989
REMARK  5 active torsions:
REMARK  status: ('A' for Active; 'I' for Inactive)
REMARK    1  A    between atoms: C_4  and  C_21
REMARK    2  A    between atoms: C_6  and  C_11
REMARK    3  A    between atoms: C_24  and  C_27
REMARK    4  A    between atoms: C_27  and  C_29
REMARK    5  A    between atoms: C_29  and  O_30
REMARK                            x       y       z     vdW  Elec       q    Type
REMARK                         _______ _______ _______ _____ _____    ______ ____
ROOT
ATOM      1  N   UNL     1      37.508 -23.406 -14.399  0.00  0.00    -0.297 N 
ATOM      2  N   UNL     1      38.216 -22.256 -16.393  0.00  0.00    -0.229 NA
ATOM      3  C   UNL     1      35.890 -22.725 -15.778  0.00  0.00    +0.033 C 
ATOM      4  C   UNL     1      35.299 -23.378 -14.663  0.00  0.00    +0.017 C 
ATOM      5  C   UNL     1      37.267 -22.760 -15.582  0.00  0.00    +0.132 C 
ATOM      6  C   UNL     1      36.359 -21.563 -17.818  0.00  0.00    +0.019 C 
ATOM      7  C   UNL     1      35.418 -22.100 -16.943  0.00  0.00    +0.004 C 
ATOM      8  C   UNL     1      36.320 -23.786 -13.831  0.00  0.00    +0.063 C 
ATOM      9  C   UNL     1      37.706 -21.667 -17.499  0.00  0.00    +0.100 C 
ATOM     10  H   UNL     1      38.400 -23.573 -14.013  0.00  0.00    +0.154 HD
ENDROOT
BRANCH   6  11
ATOM     11  C   UNL     1      35.939 -20.906 -19.036  0.00  0.00    +0.001 C 
ATOM     12  C   UNL     1      36.450 -19.471 -20.933  0.00  0.00    +0.000 C 
ATOM     13  C   UNL     1      36.841 -20.115 -19.749  0.00  0.00    +0.000 C 
ATOM     14  C   UNL     1      35.124 -19.631 -21.402  0.00  0.00    +0.000 C 
ATOM     15  C   UNL     1      34.635 -21.063 -19.497  0.00  0.00    +0.000 C 
ATOM     16  C   UNL     1      34.229 -20.430 -20.672  0.00  0.00    +0.000 C 
ATOM     17  C   UNL     1      37.345 -18.671 -21.663  0.00  0.00    +0.000 C 
ATOM     18  C   UNL     1      34.732 -18.986 -22.587  0.00  0.00    +0.000 C 
ATOM     19  C   UNL     1      36.937 -18.038 -22.838  0.00  0.00    +0.000 C 
ATOM     20  C   UNL     1      35.634 -18.195 -23.299  0.00  0.00    +0.000 C 
ENDBRANCH   6  11
BRANCH   4  21
ATOM     21  C   UNL     1      33.918 -23.620 -14.362  0.00  0.00    +0.001 C 
ATOM     22  C   UNL     1      33.551 -24.746 -13.622  0.00  0.00    -0.000 C 
ATOM     23  C   UNL     1      32.939 -22.732 -14.808  0.00  0.00    -0.000 C 
ATOM     24  C   UNL     1      31.230 -24.092 -13.776  0.00  0.00    -0.011 C 
ATOM     25  C   UNL     1      32.208 -24.981 -13.330  0.00  0.00    -0.004 C 
ATOM     26  C   UNL     1      31.596 -22.967 -14.516  0.00  0.00    -0.004 C 
BRANCH  24  27
ATOM     27  C   UNL     1      29.794 -24.344 -13.460  0.00  0.00    +0.136 C 
BRANCH  27  29
ATOM     28  O   UNL     1      28.714 -24.500 -15.637  0.00  0.00    -0.250 OA
ATOM     29  C   UNL     1      29.040 -25.028 -14.582  0.00  0.00    +0.318 C 
BRANCH  29  30
ATOM     30  O   UNL     1      28.756 -26.324 -14.285  0.00  0.00    -0.480 OA
ATOM     31  H   UNL     1      27.967 -26.537 -13.825  0.00  0.00    +0.295 HD
ENDBRANCH  29  30
ENDBRANCH  27  29
ENDBRANCH  24  27
ENDBRANCH   4  21
TORSDOF 5
ENDMDL
MODEL 9
REMARK VINA RESULT:     -10.4      6.638     10.195
REMARK  Name = 11952989
REMARK  5 active torsions:
REMARK  status: ('A' for Active; 'I' for Inactive)
REMARK    1  A    between atoms: C_4  and  C_21
REMARK    2  A    between atoms: C_6  and  C_11
REMARK    3  A    between atoms: C_24  and  C_27
REMARK    4  A    between atoms: C_27  and  C_29
REMARK    5  A    between atoms: C_29  and  O_30
REMARK                            x       y       z     vdW  Elec       q    Type
REMARK                         _______ _______ _______ _____ _____    ______ ____
ROOT
ATOM      1  N   UNL     1      35.631 -17.450 -25.111  0.00  0.00    -0.297 N 
ATOM      2  N   UNL     1      34.898 -15.158 -25.016  0.00  0.00    -0.229 NA
ATOM      3  C   UNL     1      34.817 -16.751 -23.153  0.00  0.00    +0.033 C 
ATOM      4  C   UNL     1      35.199 -18.114 -23.031  0.00  0.00    +0.017 C 
ATOM      5  C   UNL     1      35.100 -16.368 -24.461  0.00  0.00    +0.132 C 
ATOM      6  C   UNL     1      34.031 -14.513 -22.827  0.00  0.00    +0.019 C 
ATOM      7  C   UNL     1      34.260 -15.783 -22.302  0.00  0.00    +0.004 C 
ATOM      8  C   UNL     1      35.696 -18.517 -24.252  0.00  0.00    +0.063 C 
ATOM      9  C   UNL     1      34.361 -14.265 -24.152  0.00  0.00    +0.100 C 
ATOM     10  H   UNL     1      35.923 -17.461 -26.052  0.00  0.00    +0.154 HD
ENDROOT
BRANCH   6  11
ATOM     11  C   UNL     1      33.459 -13.470 -22.003  0.00  0.00    +0.001 C 
ATOM     12  C   UNL     1      32.664 -11.184 -21.760  0.00  0.00    +0.000 C 
ATOM     13  C   UNL     1      33.218 -12.207 -22.545  0.00  0.00    +0.000 C 
ATOM     14  C   UNL     1      32.348 -11.445 -20.404  0.00  0.00    +0.000 C 
ATOM     15  C   UNL     1      33.149 -13.727 -20.671  0.00  0.00    +0.000 C 
ATOM     16  C   UNL     1      32.597 -12.723 -19.876  0.00  0.00    +0.000 C 
ATOM     17  C   UNL     1      32.415  -9.906 -22.289  0.00  0.00    +0.000 C 
ATOM     18  C   UNL     1      31.794 -10.422 -19.619  0.00  0.00    +0.000 C 
ATOM     19  C   UNL     1      31.863  -8.902 -21.492  0.00  0.00    +0.000 C 
ATOM     20  C   UNL     1      31.554  -9.158 -20.160  0.00  0.00    +0.000 C 
ENDBRANCH   6  11
BRANCH   4  21
ATOM     21  C   UNL     1      35.123 -18.995 -21.903  0.00  0.00    +0.001 C 
ATOM     22  C   UNL     1      33.883 -19.459 -21.460  0.00  0.00    -0.000 C 
ATOM     23  C   UNL     1      36.289 -19.391 -21.245  0.00  0.00    -0.000 C 
ATOM     24  C   UNL     1      34.976 -20.711 -19.706  0.00  0.00    -0.011 C 
ATOM     25  C   UNL     1      33.810 -20.316 -20.363  0.00  0.00    -0.004 C 
ATOM     26  C   UNL     1      36.215 -20.248 -20.148  0.00  0.00    -0.004 C 
BRANCH  24  27
ATOM     27  C   UNL     1      34.896 -21.630 -18.534  0.00  0.00    +0.136 C 
BRANCH  27  29
ATOM     28  O   UNL     1      32.642 -22.416 -18.052  0.00  0.00    -0.250 OA
ATOM     29  C   UNL     1      33.724 -22.589 -18.597  0.00  0.00    +0.318 C 
BRANCH  29  30
ATOM     30  O   UNL     1      34.010 -23.690 -19.341  0.00  0.00    -0.480 OA
ATOM     31  H   UNL     1      34.858 -23.785 -19.730  0.00  0.00    +0.295 HD
ENDBRANCH  29  30
ENDBRANCH  27  29
ENDBRANCH  24  27
ENDBRANCH   4  21
TORSDOF 5
ENDMDL
