MODEL 1
REMARK VINA RESULT:     -12.3      0.000      0.000
REMARK  Name = 68488178
REMARK  9 active torsions:
REMARK  status: ('A' for Active; 'I' for Inactive)
REMARK    1  A    between atoms: N_1  and  C_10
REMARK    2  A    between atoms: N_2  and  C_29
REMARK    3  A    between atoms: C_10  and  C_11
REMARK    4  A    between atoms: C_16  and  O_17
REMARK    5  A    between atoms: O_17  and  C_18
REMARK    6  A    between atoms: C_23  and  C_26
REMARK    7  A    between atoms: C_29  and  C_30
REMARK    8  A    between atoms: C_35  and  C_37
REMARK    9  A    between atoms: C_37  and  O_38
REMARK                            x       y       z     vdW  Elec       q    Type
REMARK                         _______ _______ _______ _____ _____    ______ ____
ROOT
ATOM      1  N   UNL     1      33.362 -23.254 -16.997  0.00  0.00    +0.388 N 
ATOM      2  N   UNL     1      34.396 -24.659 -14.804  0.00  0.00    +0.388 N 
ATOM      3  C   UNL     1      34.467 -22.725 -16.161  0.00  0.00    -0.081 C 
ATOM      4  C   UNL     1      33.217 -23.764 -14.696  0.00  0.00    -0.081 C 
ATOM      5  C   UNL     1      33.798 -22.369 -14.846  0.00  0.00    -0.046 C 
ATOM      6  C   UNL     1      32.448 -23.899 -16.023  0.00  0.00    -0.098 C 
ATOM      7  C   UNL     1      35.306 -23.944 -15.735  0.00  0.00    -0.098 C 
ATOM      8  H   UNL     1      33.699 -23.905 -17.707  0.00  0.00    -0.079 HD
ATOM      9  H   UNL     1      34.141 -25.586 -15.145  0.00  0.00    -0.079 HD
ENDROOT
BRANCH   1  10
ATOM     10  C   UNL     1      32.695 -22.212 -17.769  0.00  0.00    -0.050 C 
BRANCH  10  11
ATOM     11  C   UNL     1      33.629 -21.554 -18.749  0.00  0.00    -0.043 C 
ATOM     12  C   UNL     1      33.130 -20.654 -19.691  0.00  0.00    -0.003 C 
ATOM     13  C   UNL     1      34.993 -21.843 -18.714  0.00  0.00    -0.003 C 
ATOM     14  C   UNL     1      33.995 -20.044 -20.599  0.00  0.00    +0.037 C 
ATOM     15  C   UNL     1      35.859 -21.233 -19.623  0.00  0.00    +0.037 C 
ATOM     16  C   UNL     1      35.360 -20.333 -20.565  0.00  0.00    +0.145 C 
BRANCH  16  17
ATOM     17  O   UNL     1      36.204 -19.739 -21.452  0.00  0.00    -0.453 OA
BRANCH  17  18
ATOM     18  C   UNL     1      35.726 -18.654 -22.169  0.00  0.00    +0.145 C 
ATOM     19  C   UNL     1      35.191 -18.842 -23.443  0.00  0.00    +0.038 C 
ATOM     20  C   UNL     1      35.779 -17.375 -21.616  0.00  0.00    +0.038 C 
ATOM     21  C   UNL     1      34.713 -17.750 -24.166  0.00  0.00    +0.008 C 
ATOM     22  C   UNL     1      35.301 -16.283 -22.339  0.00  0.00    +0.008 C 
ATOM     23  C   UNL     1      34.766 -16.470 -23.615  0.00  0.00    +0.054 C 
BRANCH  23  26
ATOM     24  O   UNL     1      34.355 -14.141 -23.723  0.00  0.00    -0.431 OA
ATOM     25  N   UNL     1      33.753 -15.301 -25.569  0.00  0.00    -0.206 NA
ATOM     26  C   UNL     1      34.272 -15.340 -24.362  0.00  0.00    +0.230 C 
ATOM     27  C   UNL     1      33.834 -13.263 -24.625  0.00  0.00    +0.202 C 
ATOM     28  C   UNL     1      33.471 -13.971 -25.743  0.00  0.00    +0.143 C 
ENDBRANCH  23  26
ENDBRANCH  17  18
ENDBRANCH  16  17
ENDBRANCH  10  11
ENDBRANCH   1  10
BRANCH   2  29
ATOM     29  C   UNL     1      35.024 -24.920 -13.514  0.00  0.00    -0.050 C 
BRANCH  29  30
ATOM     30  C   UNL     1      36.505 -25.151 -13.649  0.00  0.00    -0.043 C 
ATOM     31  C   UNL     1      36.980 -26.168 -14.477  0.00  0.00    -0.006 C 
ATOM     32  C   UNL     1      37.404 -24.349 -12.944  0.00  0.00    -0.006 C 
ATOM     33  C   UNL     1      38.352 -26.383 -14.600  0.00  0.00    +0.006 C 
ATOM     34  C   UNL     1      38.775 -24.564 -13.067  0.00  0.00    +0.006 C 
ATOM     35  C   UNL     1      39.251 -25.580 -13.897  0.00  0.00    +0.075 C 
BRANCH  35  37
ATOM     36  O   UNL     1      41.282 -26.824 -13.673  0.00  0.00    -0.245 OA
ATOM     37  C   UNL     1      40.681 -25.804 -14.026  0.00  0.00    +0.338 C 
BRANCH  37  38
ATOM     38  O   UNL     1      41.324 -24.748 -14.595  0.00  0.00    -0.477 OA
ATOM     39  H   UNL     1      41.186 -23.881 -14.265  0.00  0.00    +0.295 HD
ENDBRANCH  37  38
ENDBRANCH  35  37
ENDBRANCH  29  30
ENDBRANCH   2  29
TORSDOF 9
ENDMDL
MODEL 2
REMARK VINA RESULT:     -12.1      4.921     14.876
REMARK  Name = 68488178
REMARK  9 active torsions:
REMARK  status: ('A' for Active; 'I' for Inactive)
REMARK    1  A    between atoms: N_1  and  C_10
REMARK    2  A    between atoms: N_2  and  C_29
REMARK    3  A    between atoms: C_10  and  C_11
REMARK    4  A    between atoms: C_16  and  O_17
REMARK    5  A    between atoms: O_17  and  C_18
REMARK    6  A    between atoms: C_23  and  C_26
REMARK    7  A    between atoms: C_29  and  C_30
REMARK    8  A    between atoms: C_35  and  C_37
REMARK    9  A    between atoms: C_37  and  O_38
REMARK                            x       y       z     vdW  Elec       q    Type
REMARK                         _______ _______ _______ _____ _____    ______ ____
ROOT
ATOM      1  N   UNL     1      34.141 -11.890 -23.699  0.00  0.00    +0.388 N 
ATOM      2  N   UNL     1      34.972  -9.214 -23.676  0.00  0.00    +0.388 N 
ATOM      3  C   UNL     1      34.515 -11.160 -24.935  0.00  0.00    -0.081 C 
ATOM      4  C   UNL     1      33.543  -9.605 -23.742  0.00  0.00    -0.081 C 
ATOM      5  C   UNL     1      33.380 -10.173 -25.140  0.00  0.00    -0.046 C 
ATOM      6  C   UNL     1      33.405 -10.884 -22.894  0.00  0.00    -0.098 C 
ATOM      7  C   UNL     1      35.657 -10.205 -24.543  0.00  0.00    -0.098 C 
ATOM      8  H   UNL     1      34.959 -12.257 -23.211  0.00  0.00    -0.079 HD
ATOM      9  H   UNL     1      35.327  -9.223 -22.718  0.00  0.00    -0.079 HD
ENDROOT
BRANCH   1  10
ATOM     10  C   UNL     1      33.334 -13.074 -23.969  0.00  0.00    -0.050 C 
BRANCH  10  11
ATOM     11  C   UNL     1      34.099 -14.345 -23.713  0.00  0.00    -0.043 C 
ATOM     12  C   UNL     1      34.642 -14.588 -22.451  0.00  0.00    -0.003 C 
ATOM     13  C   UNL     1      34.265 -15.278 -24.736  0.00  0.00    -0.003 C 
ATOM     14  C   UNL     1      35.351 -15.766 -22.212  0.00  0.00    +0.037 C 
ATOM     15  C   UNL     1      34.974 -16.456 -24.497  0.00  0.00    +0.037 C 
ATOM     16  C   UNL     1      35.517 -16.700 -23.235  0.00  0.00    +0.145 C 
BRANCH  16  17
ATOM     17  O   UNL     1      36.210 -17.848 -23.003  0.00  0.00    -0.453 OA
BRANCH  17  18
ATOM     18  C   UNL     1      35.711 -18.719 -22.048  0.00  0.00    +0.145 C 
ATOM     19  C   UNL     1      34.356 -19.051 -22.047  0.00  0.00    +0.038 C 
ATOM     20  C   UNL     1      36.563 -19.262 -21.087  0.00  0.00    +0.038 C 
ATOM     21  C   UNL     1      33.854 -19.925 -21.084  0.00  0.00    +0.008 C 
ATOM     22  C   UNL     1      36.060 -20.136 -20.123  0.00  0.00    +0.008 C 
ATOM     23  C   UNL     1      34.705 -20.468 -20.122  0.00  0.00    +0.054 C 
BRANCH  23  26
ATOM     24  O   UNL     1      35.123 -21.984 -18.352  0.00  0.00    -0.431 OA
ATOM     25  N   UNL     1      32.938 -21.689 -18.856  0.00  0.00    -0.206 NA
ATOM     26  C   UNL     1      34.185 -21.372 -19.125  0.00  0.00    +0.230 C 
ATOM     27  C   UNL     1      34.386 -22.765 -17.514  0.00  0.00    +0.202 C 
ATOM     28  C   UNL     1      33.061 -22.582 -17.823  0.00  0.00    +0.143 C 
ENDBRANCH  23  26
ENDBRANCH  17  18
ENDBRANCH  16  17
ENDBRANCH  10  11
ENDBRANCH   1  10
BRANCH   2  29
ATOM     29  C   UNL     1      35.201  -7.844 -24.120  0.00  0.00    -0.050 C 
BRANCH  29  30
ATOM     30  C   UNL     1      34.196  -6.889 -23.533  0.00  0.00    -0.043 C 
ATOM     31  C   UNL     1      33.640  -5.887 -24.329  0.00  0.00    -0.006 C 
ATOM     32  C   UNL     1      33.822  -7.006 -22.194  0.00  0.00    -0.006 C 
ATOM     33  C   UNL     1      32.710  -5.002 -23.784  0.00  0.00    +0.006 C 
ATOM     34  C   UNL     1      32.893  -6.120 -21.651  0.00  0.00    +0.006 C 
ATOM     35  C   UNL     1      32.335  -5.118 -22.446  0.00  0.00    +0.075 C 
BRANCH  35  37
ATOM     36  O   UNL     1      30.852  -3.242 -22.473  0.00  0.00    -0.245 OA
ATOM     37  C   UNL     1      31.365  -4.196 -21.879  0.00  0.00    +0.338 C 
BRANCH  37  38
ATOM     38  O   UNL     1      31.060  -4.491 -20.586  0.00  0.00    -0.477 OA
ATOM     39  H   UNL     1      30.336  -5.053 -20.391  0.00  0.00    +0.295 HD
ENDBRANCH  37  38
ENDBRANCH  35  37
ENDBRANCH  29  30
ENDBRANCH   2  29
TORSDOF 9
ENDMDL
MODEL 3
REMARK VINA RESULT:     -11.8      5.297     15.265
REMARK  Name = 68488178
REMARK  9 active torsions:
REMARK  status: ('A' for Active; 'I' for Inactive)
REMARK    1  A    between atoms: N_1  and  C_10
REMARK    2  A    between atoms: N_2  and  C_29
REMARK    3  A    between atoms: C_10  and  C_11
REMARK    4  A    between atoms: C_16  and  O_17
REMARK    5  A    between atoms: O_17  and  C_18
REMARK    6  A    between atoms: C_23  and  C_26
REMARK    7  A    between atoms: C_29  and  C_30
REMARK    8  A    between atoms: C_35  and  C_37
REMARK    9  A    between atoms: C_37  and  O_38
REMARK                            x       y       z     vdW  Elec       q    Type
REMARK                         _______ _______ _______ _____ _____    ______ ____
ROOT
ATOM      1  N   UNL     1      33.835 -11.339 -23.347  0.00  0.00    +0.388 N 
ATOM      2  N   UNL     1      34.915  -8.763 -23.572  0.00  0.00    +0.388 N 
ATOM      3  C   UNL     1      34.359 -10.803 -24.626  0.00  0.00    -0.081 C 
ATOM      4  C   UNL     1      33.463  -9.034 -23.704  0.00  0.00    -0.081 C 
ATOM      5  C   UNL     1      33.341  -9.755 -25.035  0.00  0.00    -0.046 C 
ATOM      6  C   UNL     1      33.145 -10.180 -22.726  0.00  0.00    -0.098 C 
ATOM      7  C   UNL     1      35.559  -9.910 -24.261  0.00  0.00    -0.098 C 
ATOM      8  H   UNL     1      34.579 -11.712 -22.756  0.00  0.00    -0.079 HD
ATOM      9  H   UNL     1      35.202  -8.684 -22.596  0.00  0.00    -0.079 HD
ENDROOT
BRANCH   1  10
ATOM     10  C   UNL     1      32.938 -12.473 -23.538  0.00  0.00    -0.050 C 
BRANCH  10  11
ATOM     11  C   UNL     1      33.692 -13.771 -23.654  0.00  0.00    -0.043 C 
ATOM     12  C   UNL     1      34.549 -14.173 -22.629  0.00  0.00    -0.003 C 
ATOM     13  C   UNL     1      33.533 -14.571 -24.786  0.00  0.00    -0.003 C 
ATOM     14  C   UNL     1      35.248 -15.375 -22.736  0.00  0.00    +0.037 C 
ATOM     15  C   UNL     1      34.232 -15.774 -24.892  0.00  0.00    +0.037 C 
ATOM     16  C   UNL     1      35.089 -16.176 -23.867  0.00  0.00    +0.145 C 
BRANCH  16  17
ATOM     17  O   UNL     1      35.771 -17.349 -23.972  0.00  0.00    -0.453 OA
BRANCH  17  18
ATOM     18  C   UNL     1      35.795 -18.181 -22.865  0.00  0.00    +0.145 C 
ATOM     19  C   UNL     1      36.953 -18.285 -22.095  0.00  0.00    +0.038 C 
ATOM     20  C   UNL     1      34.660 -18.916 -22.522  0.00  0.00    +0.038 C 
ATOM     21  C   UNL     1      36.977 -19.126 -20.983  0.00  0.00    +0.008 C 
ATOM     22  C   UNL     1      34.684 -19.757 -21.409  0.00  0.00    +0.008 C 
ATOM     23  C   UNL     1      35.843 -19.862 -20.638  0.00  0.00    +0.054 C 
BRANCH  23  26
ATOM     24  O   UNL     1      36.942 -20.573 -18.666  0.00  0.00    -0.431 OA
ATOM     25  N   UNL     1      35.007 -21.652 -19.120  0.00  0.00    -0.206 NA
ATOM     26  C   UNL     1      35.868 -20.731 -19.488  0.00  0.00    +0.230 C 
ATOM     27  C   UNL     1      36.728 -21.491 -17.683  0.00  0.00    +0.202 C 
ATOM     28  C   UNL     1      35.553 -22.143 -17.962  0.00  0.00    +0.143 C 
ENDBRANCH  23  26
ENDBRANCH  17  18
ENDBRANCH  16  17
ENDBRANCH  10  11
ENDBRANCH   1  10
BRANCH   2  29
ATOM     29  C   UNL     1      35.304  -7.485 -24.156  0.00  0.00    -0.050 C 
BRANCH  29  30
ATOM     30  C   UNL     1      34.361  -6.379 -23.761  0.00  0.00    -0.043 C 
ATOM     31  C   UNL     1      34.056  -5.365 -24.670  0.00  0.00    -0.006 C 
ATOM     32  C   UNL     1      33.794  -6.367 -22.486  0.00  0.00    -0.006 C 
ATOM     33  C   UNL     1      33.184  -4.341 -24.303  0.00  0.00    +0.006 C 
ATOM     34  C   UNL     1      32.922  -5.343 -22.120  0.00  0.00    +0.006 C 
ATOM     35  C   UNL     1      32.616  -4.329 -23.029  0.00  0.00    +0.075 C 
BRANCH  35  37
ATOM     36  O   UNL     1      31.727  -2.110 -23.094  0.00  0.00    -0.245 OA
ATOM     37  C   UNL     1      31.706  -3.262 -22.648  0.00  0.00    +0.338 C 
BRANCH  37  38
ATOM     38  O   UNL     1      30.793  -3.662 -21.721  0.00  0.00    -0.477 OA
ATOM     39  H   UNL     1      30.295  -4.444 -21.860  0.00  0.00    +0.295 HD
ENDBRANCH  37  38
ENDBRANCH  35  37
ENDBRANCH  29  30
ENDBRANCH   2  29
TORSDOF 9
ENDMDL
MODEL 4
REMARK VINA RESULT:     -11.6      4.235      7.713
REMARK  Name = 68488178
REMARK  9 active torsions:
REMARK  status: ('A' for Active; 'I' for Inactive)
REMARK    1  A    between atoms: N_1  and  C_10
REMARK    2  A    between atoms: N_2  and  C_29
REMARK    3  A    between atoms: C_10  and  C_11
REMARK    4  A    between atoms: C_16  and  O_17
REMARK    5  A    between atoms: O_17  and  C_18
REMARK    6  A    between atoms: C_23  and  C_26
REMARK    7  A    between atoms: C_29  and  C_30
REMARK    8  A    between atoms: C_35  and  C_37
REMARK    9  A    between atoms: C_37  and  O_38
REMARK                            x       y       z     vdW  Elec       q    Type
REMARK                         _______ _______ _______ _____ _____    ______ ____
ROOT
ATOM      1  N   UNL     1      35.532 -17.302 -21.649  0.00  0.00    +0.388 N 
ATOM      2  N   UNL     1      35.672 -19.813 -20.415  0.00  0.00    +0.388 N 
ATOM      3  C   UNL     1      34.867 -18.504 -22.208  0.00  0.00    -0.081 C 
ATOM      4  C   UNL     1      36.707 -19.331 -21.362  0.00  0.00    -0.081 C 
ATOM      5  C   UNL     1      36.013 -19.361 -22.713  0.00  0.00    -0.046 C 
ATOM      6  C   UNL     1      36.827 -17.813 -21.135  0.00  0.00    -0.098 C 
ATOM      7  C   UNL     1      34.395 -19.336 -21.002  0.00  0.00    -0.098 C 
ATOM      8  H   UNL     1      34.970 -16.859 -20.921  0.00  0.00    -0.079 HD
ATOM      9  H   UNL     1      35.824 -19.457 -19.470  0.00  0.00    -0.079 HD
ENDROOT
BRANCH   1  10
ATOM     10  C   UNL     1      35.713 -16.248 -22.641  0.00  0.00    -0.050 C 
BRANCH  10  11
ATOM     11  C   UNL     1      34.751 -15.109 -22.430  0.00  0.00    -0.043 C 
ATOM     12  C   UNL     1      34.073 -14.560 -23.519  0.00  0.00    -0.003 C 
ATOM     13  C   UNL     1      34.539 -14.603 -21.148  0.00  0.00    -0.003 C 
ATOM     14  C   UNL     1      33.182 -13.504 -23.324  0.00  0.00    +0.037 C 
ATOM     15  C   UNL     1      33.648 -13.547 -20.953  0.00  0.00    +0.037 C 
ATOM     16  C   UNL     1      32.969 -12.998 -22.042  0.00  0.00    +0.145 C 
BRANCH  16  17
ATOM     17  O   UNL     1      32.101 -11.967 -21.852  0.00  0.00    -0.453 OA
BRANCH  17  18
ATOM     18  C   UNL     1      32.480 -10.714 -22.304  0.00  0.00    +0.145 C 
ATOM     19  C   UNL     1      31.889  -9.571 -21.766  0.00  0.00    +0.038 C 
ATOM     20  C   UNL     1      33.452 -10.596 -23.297  0.00  0.00    +0.038 C 
ATOM     21  C   UNL     1      32.268  -8.309 -22.223  0.00  0.00    +0.008 C 
ATOM     22  C   UNL     1      33.831  -9.334 -23.754  0.00  0.00    +0.008 C 
ATOM     23  C   UNL     1      33.240  -8.190 -23.217  0.00  0.00    +0.054 C 
BRANCH  23  26
ATOM     24  O   UNL     1      32.698  -5.907 -23.532  0.00  0.00    -0.431 OA
ATOM     25  N   UNL     1      34.758  -6.505 -24.249  0.00  0.00    -0.206 NA
ATOM     26  C   UNL     1      33.632  -6.885 -23.690  0.00  0.00    +0.230 C 
ATOM     27  C   UNL     1      33.304  -4.802 -24.048  0.00  0.00    +0.202 C 
ATOM     28  C   UNL     1      34.554  -5.169 -24.481  0.00  0.00    +0.143 C 
ENDBRANCH  23  26
ENDBRANCH  17  18
ENDBRANCH  16  17
ENDBRANCH  10  11
ENDBRANCH   1  10
BRANCH   2  29
ATOM     29  C   UNL     1      35.693 -21.262 -20.250  0.00  0.00    -0.050 C 
BRANCH  29  30
ATOM     30  C   UNL     1      35.738 -21.661 -18.799  0.00  0.00    -0.043 C 
ATOM     31  C   UNL     1      34.619 -22.242 -18.201  0.00  0.00    -0.006 C 
ATOM     32  C   UNL     1      36.897 -21.448 -18.052  0.00  0.00    -0.006 C 
ATOM     33  C   UNL     1      34.661 -22.610 -16.857  0.00  0.00    +0.006 C 
ATOM     34  C   UNL     1      36.938 -21.816 -16.708  0.00  0.00    +0.006 C 
ATOM     35  C   UNL     1      35.820 -22.399 -16.109  0.00  0.00    +0.075 C 
BRANCH  35  37
ATOM     36  O   UNL     1      36.881 -23.088 -14.080  0.00  0.00    -0.245 OA
ATOM     37  C   UNL     1      35.863 -22.783 -14.709  0.00  0.00    +0.338 C 
BRANCH  37  38
ATOM     38  O   UNL     1      34.631 -22.775 -14.129  0.00  0.00    -0.477 OA
ATOM     39  H   UNL     1      34.494 -23.215 -13.312  0.00  0.00    +0.295 HD
ENDBRANCH  37  38
ENDBRANCH  35  37
ENDBRANCH  29  30
ENDBRANCH   2  29
TORSDOF 9
ENDMDL
MODEL 5
REMARK VINA RESULT:     -11.6      2.996     12.497
REMARK  Name = 68488178
REMARK  9 active torsions:
REMARK  status: ('A' for Active; 'I' for Inactive)
REMARK    1  A    between atoms: N_1  and  C_10
REMARK    2  A    between atoms: N_2  and  C_29
REMARK    3  A    between atoms: C_10  and  C_11
REMARK    4  A    between atoms: C_16  and  O_17
REMARK    5  A    between atoms: O_17  and  C_18
REMARK    6  A    between atoms: C_23  and  C_26
REMARK    7  A    between atoms: C_29  and  C_30
REMARK    8  A    between atoms: C_35  and  C_37
REMARK    9  A    between atoms: C_37  and  O_38
REMARK                            x       y       z     vdW  Elec       q    Type
REMARK                         _______ _______ _______ _____ _____    ______ ____
ROOT
ATOM      1  N   UNL     1      35.023 -18.786 -21.610  0.00  0.00    +0.388 N 
ATOM      2  N   UNL     1      34.844 -16.204 -22.685  0.00  0.00    +0.388 N 
ATOM      3  C   UNL     1      36.061 -17.752 -21.378  0.00  0.00    -0.081 C 
ATOM      4  C   UNL     1      35.433 -17.342 -23.433  0.00  0.00    -0.081 C 
ATOM      5  C   UNL     1      36.749 -17.610 -22.724  0.00  0.00    -0.046 C 
ATOM      6  C   UNL     1      34.628 -18.590 -23.027  0.00  0.00    -0.098 C 
ATOM      7  C   UNL     1      35.318 -16.407 -21.292  0.00  0.00    -0.098 C 
ATOM      8  H   UNL     1      34.236 -18.687 -20.968  0.00  0.00    -0.079 HD
ATOM      9  H   UNL     1      33.826 -16.189 -22.752  0.00  0.00    -0.079 HD
ENDROOT
BRANCH   1  10
ATOM     10  C   UNL     1      35.511 -20.137 -21.358  0.00  0.00    -0.050 C 
BRANCH  10  11
ATOM     11  C   UNL     1      34.732 -20.820 -20.266  0.00  0.00    -0.043 C 
ATOM     12  C   UNL     1      35.344 -21.795 -19.478  0.00  0.00    -0.003 C 
ATOM     13  C   UNL     1      33.398 -20.478 -20.042  0.00  0.00    -0.003 C 
ATOM     14  C   UNL     1      34.623 -22.428 -18.465  0.00  0.00    +0.037 C 
ATOM     15  C   UNL     1      32.676 -21.112 -19.030  0.00  0.00    +0.037 C 
ATOM     16  C   UNL     1      33.289 -22.086 -18.241  0.00  0.00    +0.145 C 
BRANCH  16  17
ATOM     17  O   UNL     1      32.584 -22.705 -17.254  0.00  0.00    -0.453 OA
BRANCH  17  18
ATOM     18  C   UNL     1      33.243 -22.978 -16.067  0.00  0.00    +0.145 C 
ATOM     19  C   UNL     1      34.614 -22.744 -15.962  0.00  0.00    +0.038 C 
ATOM     20  C   UNL     1      32.536 -23.487 -14.978  0.00  0.00    +0.038 C 
ATOM     21  C   UNL     1      35.279 -23.022 -14.767  0.00  0.00    +0.008 C 
ATOM     22  C   UNL     1      33.200 -23.764 -13.784  0.00  0.00    +0.008 C 
ATOM     23  C   UNL     1      34.573 -23.532 -13.677  0.00  0.00    +0.054 C 
BRANCH  23  26
ATOM     24  O   UNL     1      36.440 -23.164 -12.270  0.00  0.00    -0.431 OA
ATOM     25  N   UNL     1      34.911 -24.621 -11.462  0.00  0.00    -0.206 NA
ATOM     26  C   UNL     1      35.260 -23.819 -12.442  0.00  0.00    +0.230 C 
ATOM     27  C   UNL     1      36.874 -23.603 -11.056  0.00  0.00    +0.202 C 
ATOM     28  C   UNL     1      35.943 -24.485 -10.569  0.00  0.00    +0.143 C 
ENDBRANCH  23  26
ENDBRANCH  17  18
ENDBRANCH  16  17
ENDBRANCH  10  11
ENDBRANCH   1  10
BRANCH   2  29
ATOM     29  C   UNL     1      35.250 -14.910 -23.220  0.00  0.00    -0.050 C 
BRANCH  29  30
ATOM     30  C   UNL     1      34.316 -13.809 -22.792  0.00  0.00    -0.043 C 
ATOM     31  C   UNL     1      34.178 -12.666 -23.580  0.00  0.00    -0.006 C 
ATOM     32  C   UNL     1      33.589 -13.932 -21.607  0.00  0.00    -0.006 C 
ATOM     33  C   UNL     1      33.314 -11.647 -23.183  0.00  0.00    +0.006 C 
ATOM     34  C   UNL     1      32.725 -12.912 -21.211  0.00  0.00    +0.006 C 
ATOM     35  C   UNL     1      32.586 -11.769 -21.999  0.00  0.00    +0.075 C 
BRANCH  35  37
ATOM     36  O   UNL     1      31.903  -9.496 -21.703  0.00  0.00    -0.245 OA
ATOM     37  C   UNL     1      31.685 -10.706 -21.586  0.00  0.00    +0.338 C 
BRANCH  37  38
ATOM     38  O   UNL     1      30.533 -11.184 -21.039  0.00  0.00    -0.477 OA
ATOM     39  H   UNL     1      30.569 -11.824 -20.356  0.00  0.00    +0.295 HD
ENDBRANCH  37  38
ENDBRANCH  35  37
ENDBRANCH  29  30
ENDBRANCH   2  29
TORSDOF 9
ENDMDL
MODEL 6
REMARK VINA RESULT:     -11.5      5.245     10.252
REMARK  Name = 68488178
REMARK  9 active torsions:
REMARK  status: ('A' for Active; 'I' for Inactive)
REMARK    1  A    between atoms: N_1  and  C_10
REMARK    2  A    between atoms: N_2  and  C_29
REMARK    3  A    between atoms: C_10  and  C_11
REMARK    4  A    between atoms: C_16  and  O_17
REMARK    5  A    between atoms: O_17  and  C_18
REMARK    6  A    between atoms: C_23  and  C_26
REMARK    7  A    between atoms: C_29  and  C_30
REMARK    8  A    between atoms: C_35  and  C_37
REMARK    9  A    between atoms: C_37  and  O_38
REMARK                            x       y       z     vdW  Elec       q    Type
REMARK                         _______ _______ _______ _____ _____    ______ ____
ROOT
ATOM      1  N   UNL     1      34.110 -15.333 -23.663  0.00  0.00    +0.388 N 
ATOM      2  N   UNL     1      35.009 -17.671 -22.407  0.00  0.00    +0.388 N 
ATOM      3  C   UNL     1      34.715 -16.460 -24.414  0.00  0.00    -0.081 C 
ATOM      4  C   UNL     1      35.860 -16.465 -22.550  0.00  0.00    -0.081 C 
ATOM      5  C   UNL     1      36.183 -16.414 -24.033  0.00  0.00    -0.046 C 
ATOM      6  C   UNL     1      34.918 -15.253 -22.420  0.00  0.00    -0.098 C 
ATOM      7  C   UNL     1      34.271 -17.746 -23.694  0.00  0.00    -0.098 C 
ATOM      8  H   UNL     1      33.119 -15.488 -23.475  0.00  0.00    -0.079 HD
ATOM      9  H   UNL     1      34.383 -17.605 -21.603  0.00  0.00    -0.079 HD
ENDROOT
BRANCH   1  10
ATOM     10  C   UNL     1      34.132 -14.083 -24.413  0.00  0.00    -0.050 C 
BRANCH  10  11
ATOM     11  C   UNL     1      33.585 -12.935 -23.607  0.00  0.00    -0.043 C 
ATOM     12  C   UNL     1      32.755 -13.185 -22.513  0.00  0.00    -0.003 C 
ATOM     13  C   UNL     1      33.906 -11.623 -23.953  0.00  0.00    -0.003 C 
ATOM     14  C   UNL     1      32.247 -12.122 -21.766  0.00  0.00    +0.037 C 
ATOM     15  C   UNL     1      33.399 -10.560 -23.206  0.00  0.00    +0.037 C 
ATOM     16  C   UNL     1      32.569 -10.810 -22.112  0.00  0.00    +0.145 C 
BRANCH  16  17
ATOM     17  O   UNL     1      32.073  -9.772 -21.384  0.00  0.00    -0.453 OA
BRANCH  17  18
ATOM     18  C   UNL     1      32.122  -8.508 -21.947  0.00  0.00    +0.145 C 
ATOM     19  C   UNL     1      31.203  -8.148 -22.932  0.00  0.00    +0.038 C 
ATOM     20  C   UNL     1      33.092  -7.596 -21.531  0.00  0.00    +0.038 C 
ATOM     21  C   UNL     1      31.255  -6.876 -23.502  0.00  0.00    +0.008 C 
ATOM     22  C   UNL     1      33.144  -6.324 -22.100  0.00  0.00    +0.008 C 
ATOM     23  C   UNL     1      32.224  -5.963 -23.086  0.00  0.00    +0.054 C 
BRANCH  23  26
ATOM     24  O   UNL     1      31.156  -3.895 -23.515  0.00  0.00    -0.431 OA
ATOM     25  N   UNL     1      33.252  -4.073 -24.344  0.00  0.00    -0.206 NA
ATOM     26  C   UNL     1      32.278  -4.648 -23.676  0.00  0.00    +0.230 C 
ATOM     27  C   UNL     1      31.461  -2.729 -24.150  0.00  0.00    +0.202 C 
ATOM     28  C   UNL     1      32.734  -2.842 -24.651  0.00  0.00    +0.143 C 
ENDBRANCH  23  26
ENDBRANCH  17  18
ENDBRANCH  16  17
ENDBRANCH  10  11
ENDBRANCH   1  10
BRANCH   2  29
ATOM     29  C   UNL     1      35.785 -18.879 -22.149  0.00  0.00    -0.050 C 
BRANCH  29  30
ATOM     30  C   UNL     1      35.131 -19.754 -21.114  0.00  0.00    -0.043 C 
ATOM     31  C   UNL     1      33.739 -19.801 -21.018  0.00  0.00    -0.006 C 
ATOM     32  C   UNL     1      35.915 -20.518 -20.249  0.00  0.00    -0.006 C 
ATOM     33  C   UNL     1      33.134 -20.612 -20.059  0.00  0.00    +0.006 C 
ATOM     34  C   UNL     1      35.310 -21.328 -19.289  0.00  0.00    +0.006 C 
ATOM     35  C   UNL     1      33.918 -21.376 -19.194  0.00  0.00    +0.075 C 
BRANCH  35  37
ATOM     36  O   UNL     1      32.107 -22.146 -17.835  0.00  0.00    -0.245 OA
ATOM     37  C   UNL     1      33.287 -22.221 -18.195  0.00  0.00    +0.338 C 
BRANCH  37  38
ATOM     38  O   UNL     1      34.145 -23.140 -17.672  0.00  0.00    -0.477 OA
ATOM     39  H   UNL     1      34.770 -23.565 -18.226  0.00  0.00    +0.295 HD
ENDBRANCH  37  38
ENDBRANCH  35  37
ENDBRANCH  29  30
ENDBRANCH   2  29
TORSDOF 9
ENDMDL
MODEL 7
REMARK VINA RESULT:     -11.2      3.790      6.956
REMARK  Name = 68488178
REMARK  9 active torsions:
REMARK  status: ('A' for Active; 'I' for Inactive)
REMARK    1  A    between atoms: N_1  and  C_10
REMARK    2  A    between atoms: N_2  and  C_29
REMARK    3  A    between atoms: C_10  and  C_11
REMARK    4  A    between atoms: C_16  and  O_17
REMARK    5  A    between atoms: O_17  and  C_18
REMARK    6  A    between atoms: C_23  and  C_26
REMARK    7  A    between atoms: C_29  and  C_30
REMARK    8  A    between atoms: C_35  and  C_37
REMARK    9  A    between atoms: C_37  and  O_38
REMARK                            x       y       z     vdW  Elec       q    Type
REMARK                         _______ _______ _______ _____ _____    ______ ____
ROOT
ATOM      1  N   UNL     1      33.618 -23.655 -15.050  0.00  0.00    +0.388 N 
ATOM      2  N   UNL     1      30.929 -24.445 -15.016  0.00  0.00    +0.388 N 
ATOM      3  C   UNL     1      32.794 -23.628 -13.817  0.00  0.00    -0.081 C 
ATOM      4  C   UNL     1      31.352 -23.065 -15.362  0.00  0.00    -0.081 C 
ATOM      5  C   UNL     1      31.825 -22.482 -14.043  0.00  0.00    -0.046 C 
ATOM      6  C   UNL     1      32.689 -23.198 -16.114  0.00  0.00    -0.098 C 
ATOM      7  C   UNL     1      31.840 -24.833 -13.909  0.00  0.00    -0.098 C 
ATOM      8  H   UNL     1      33.997 -24.584 -15.235  0.00  0.00    -0.079 HD
ATOM      9  H   UNL     1      30.996 -25.077 -15.815  0.00  0.00    -0.079 HD
ENDROOT
BRANCH   1  10
ATOM     10  C   UNL     1      34.800 -22.808 -14.953  0.00  0.00    -0.050 C 
BRANCH  10  11
ATOM     11  C   UNL     1      35.320 -22.412 -16.309  0.00  0.00    -0.043 C 
ATOM     12  C   UNL     1      34.485 -22.488 -17.424  0.00  0.00    -0.003 C 
ATOM     13  C   UNL     1      36.636 -21.971 -16.451  0.00  0.00    -0.003 C 
ATOM     14  C   UNL     1      34.966 -22.122 -18.682  0.00  0.00    +0.037 C 
ATOM     15  C   UNL     1      37.117 -21.605 -17.708  0.00  0.00    +0.037 C 
ATOM     16  C   UNL     1      36.282 -21.681 -18.823  0.00  0.00    +0.145 C 
BRANCH  16  17
ATOM     17  O   UNL     1      36.752 -21.324 -20.050  0.00  0.00    -0.453 OA
BRANCH  17  18
ATOM     18  C   UNL     1      36.394 -20.079 -20.540  0.00  0.00    +0.145 C 
ATOM     19  C   UNL     1      35.054 -19.790 -20.797  0.00  0.00    +0.038 C 
ATOM     20  C   UNL     1      37.374 -19.115 -20.778  0.00  0.00    +0.038 C 
ATOM     21  C   UNL     1      34.694 -18.538 -21.293  0.00  0.00    +0.008 C 
ATOM     22  C   UNL     1      37.014 -17.863 -21.274  0.00  0.00    +0.008 C 
ATOM     23  C   UNL     1      35.673 -17.573 -21.532  0.00  0.00    +0.054 C 
BRANCH  23  26
ATOM     24  O   UNL     1      34.916 -15.371 -21.106  0.00  0.00    -0.431 OA
ATOM     25  N   UNL     1      35.278 -15.848 -23.287  0.00  0.00    -0.206 NA
ATOM     26  C   UNL     1      35.300 -16.278 -22.045  0.00  0.00    +0.230 C 
ATOM     27  C   UNL     1      34.623 -14.260 -21.837  0.00  0.00    +0.202 C 
ATOM     28  C   UNL     1      34.845 -14.554 -23.159  0.00  0.00    +0.143 C 
ENDBRANCH  23  26
ENDBRANCH  17  18
ENDBRANCH  16  17
ENDBRANCH  10  11
ENDBRANCH   1  10
BRANCH   2  29
ATOM     29  C   UNL     1      29.526 -24.521 -14.626  0.00  0.00    -0.050 C 
BRANCH  29  30
ATOM     30  C   UNL     1      28.654 -23.660 -15.498  0.00  0.00    -0.043 C 
ATOM     31  C   UNL     1      28.496 -23.970 -16.849  0.00  0.00    -0.006 C 
ATOM     32  C   UNL     1      28.004 -22.550 -14.957  0.00  0.00    -0.006 C 
ATOM     33  C   UNL     1      27.689 -23.171 -17.658  0.00  0.00    +0.006 C 
ATOM     34  C   UNL     1      27.197 -21.751 -15.765  0.00  0.00    +0.006 C 
ATOM     35  C   UNL     1      27.038 -22.062 -17.117  0.00  0.00    +0.075 C 
BRANCH  35  37
ATOM     36  O   UNL     1      25.673 -21.583 -19.022  0.00  0.00    -0.245 OA
ATOM     37  C   UNL     1      26.195 -21.230 -17.960  0.00  0.00    +0.338 C 
BRANCH  37  38
ATOM     38  O   UNL     1      26.027 -19.978 -17.452  0.00  0.00    -0.477 OA
ATOM     39  H   UNL     1      25.347 -19.812 -16.829  0.00  0.00    +0.295 HD
ENDBRANCH  37  38
ENDBRANCH  35  37
ENDBRANCH  29  30
ENDBRANCH   2  29
TORSDOF 9
ENDMDL
MODEL 8
REMARK VINA RESULT:     -11.1      3.628      6.221
REMARK  Name = 68488178
REMARK  9 active torsions:
REMARK  status: ('A' for Active; 'I' for Inactive)
REMARK    1  A    between atoms: N_1  and  C_10
REMARK    2  A    between atoms: N_2  and  C_29
REMARK    3  A    between atoms: C_10  and  C_11
REMARK    4  A    between atoms: C_16  and  O_17
REMARK    5  A    between atoms: O_17  and  C_18
REMARK    6  A    between atoms: C_23  and  C_26
REMARK    7  A    between atoms: C_29  and  C_30
REMARK    8  A    between atoms: C_35  and  C_37
REMARK    9  A    between atoms: C_37  and  O_38
REMARK                            x       y       z     vdW  Elec       q    Type
REMARK                         _______ _______ _______ _____ _____    ______ ____
ROOT
ATOM      1  N   UNL     1      35.897 -19.333 -20.289  0.00  0.00    +0.388 N 
ATOM      2  N   UNL     1      34.498 -21.357 -18.949  0.00  0.00    +0.388 N 
ATOM      3  C   UNL     1      34.859 -20.158 -20.952  0.00  0.00    -0.081 C 
ATOM      4  C   UNL     1      35.811 -21.590 -19.600  0.00  0.00    -0.081 C 
ATOM      5  C   UNL     1      35.502 -21.526 -21.086  0.00  0.00    -0.046 C 
ATOM      6  C   UNL     1      36.620 -20.293 -19.418  0.00  0.00    -0.098 C 
ATOM      7  C   UNL     1      33.789 -20.447 -19.883  0.00  0.00    -0.098 C 
ATOM      8  H   UNL     1      35.490 -18.559 -19.762  0.00  0.00    -0.079 HD
ATOM      9  H   UNL     1      34.601 -20.956 -18.016  0.00  0.00    -0.079 HD
ENDROOT
BRANCH   1  10
ATOM     10  C   UNL     1      36.786 -18.678 -21.241  0.00  0.00    -0.050 C 
BRANCH  10  11
ATOM     11  C   UNL     1      36.031 -17.791 -22.195  0.00  0.00    -0.043 C 
ATOM     12  C   UNL     1      35.668 -16.501 -21.808  0.00  0.00    -0.003 C 
ATOM     13  C   UNL     1      35.696 -18.259 -23.465  0.00  0.00    -0.003 C 
ATOM     14  C   UNL     1      34.968 -15.679 -22.691  0.00  0.00    +0.037 C 
ATOM     15  C   UNL     1      34.996 -17.437 -24.349  0.00  0.00    +0.037 C 
ATOM     16  C   UNL     1      34.633 -16.147 -23.962  0.00  0.00    +0.145 C 
BRANCH  16  17
ATOM     17  O   UNL     1      33.949 -15.345 -24.824  0.00  0.00    -0.453 OA
BRANCH  17  18
ATOM     18  C   UNL     1      33.874 -13.995 -24.525  0.00  0.00    +0.145 C 
ATOM     19  C   UNL     1      33.446 -13.583 -23.263  0.00  0.00    +0.038 C 
ATOM     20  C   UNL     1      34.225 -13.047 -25.486  0.00  0.00    +0.038 C 
ATOM     21  C   UNL     1      33.367 -12.224 -22.963  0.00  0.00    +0.008 C 
ATOM     22  C   UNL     1      34.146 -11.687 -25.186  0.00  0.00    +0.008 C 
ATOM     23  C   UNL     1      33.717 -11.275 -23.923  0.00  0.00    +0.054 C 
BRANCH  23  26
ATOM     24  O   UNL     1      34.757  -9.149 -23.887  0.00  0.00    -0.431 OA
ATOM     25  N   UNL     1      32.635  -9.184 -23.106  0.00  0.00    -0.206 NA
ATOM     26  C   UNL     1      33.635  -9.869 -23.613  0.00  0.00    +0.230 C 
ATOM     27  C   UNL     1      34.424  -7.883 -23.510  0.00  0.00    +0.202 C 
ATOM     28  C   UNL     1      33.135  -7.909 -23.038  0.00  0.00    +0.143 C 
ENDBRANCH  23  26
ENDBRANCH  17  18
ENDBRANCH  16  17
ENDBRANCH  10  11
ENDBRANCH   1  10
BRANCH   2  29
ATOM     29  C   UNL     1      33.758 -22.593 -18.718  0.00  0.00    -0.050 C 
BRANCH  29  30
ATOM     30  C   UNL     1      33.404 -22.772 -17.266  0.00  0.00    -0.043 C 
ATOM     31  C   UNL     1      34.406 -23.040 -16.333  0.00  0.00    -0.006 C 
ATOM     32  C   UNL     1      32.075 -22.670 -16.854  0.00  0.00    -0.006 C 
ATOM     33  C   UNL     1      34.078 -23.207 -14.988  0.00  0.00    +0.006 C 
ATOM     34  C   UNL     1      31.748 -22.837 -15.509  0.00  0.00    +0.006 C 
ATOM     35  C   UNL     1      32.749 -23.104 -14.575  0.00  0.00    +0.075 C 
BRANCH  35  37
ATOM     36  O   UNL     1      31.273 -23.487 -12.732  0.00  0.00    -0.245 OA
ATOM     37  C   UNL     1      32.408 -23.278 -13.173  0.00  0.00    +0.338 C 
BRANCH  37  38
ATOM     38  O   UNL     1      33.494 -23.186 -12.357  0.00  0.00    -0.477 OA
ATOM     39  H   UNL     1      33.688 -22.378 -11.924  0.00  0.00    +0.295 HD
ENDBRANCH  37  38
ENDBRANCH  35  37
ENDBRANCH  29  30
ENDBRANCH   2  29
TORSDOF 9
ENDMDL
MODEL 9
REMARK VINA RESULT:     -10.8      5.471     15.362
REMARK  Name = 68488178
REMARK  9 active torsions:
REMARK  status: ('A' for Active; 'I' for Inactive)
REMARK    1  A    between atoms: N_1  and  C_10
REMARK    2  A    between atoms: N_2  and  C_29
REMARK    3  A    between atoms: C_10  and  C_11
REMARK    4  A    between atoms: C_16  and  O_17
REMARK    5  A    between atoms: O_17  and  C_18
REMARK    6  A    between atoms: C_23  and  C_26
REMARK    7  A    between atoms: C_29  and  C_30
REMARK    8  A    between atoms: C_35  and  C_37
REMARK    9  A    between atoms: C_37  and  O_38
REMARK                            x       y       z     vdW  Elec       q    Type
REMARK                         _______ _______ _______ _____ _____    ______ ____
ROOT
ATOM      1  N   UNL     1      32.868 -10.408 -22.216  0.00  0.00    +0.388 N 
ATOM      2  N   UNL     1      33.378  -7.684 -21.803  0.00  0.00    +0.388 N 
ATOM      3  C   UNL     1      32.685  -9.392 -23.281  0.00  0.00    -0.081 C 
ATOM      4  C   UNL     1      32.071  -8.309 -21.481  0.00  0.00    -0.081 C 
ATOM      5  C   UNL     1      31.461  -8.609 -22.839  0.00  0.00    -0.046 C 
ATOM      6  C   UNL     1      32.384  -9.733 -20.986  0.00  0.00    -0.098 C 
ATOM      7  C   UNL     1      33.789  -8.340 -23.069  0.00  0.00    -0.098 C 
ATOM      8  H   UNL     1      33.841 -10.708 -22.139  0.00  0.00    -0.079 HD
ATOM      9  H   UNL     1      34.059  -7.817 -21.055  0.00  0.00    -0.079 HD
ENDROOT
BRANCH   1  10
ATOM     10  C   UNL     1      32.141 -11.642 -22.487  0.00  0.00    -0.050 C 
BRANCH  10  11
ATOM     11  C   UNL     1      33.072 -12.796 -22.748  0.00  0.00    -0.043 C 
ATOM     12  C   UNL     1      33.702 -13.438 -21.680  0.00  0.00    -0.003 C 
ATOM     13  C   UNL     1      33.306 -13.223 -24.055  0.00  0.00    -0.003 C 
ATOM     14  C   UNL     1      34.565 -14.507 -21.921  0.00  0.00    +0.037 C 
ATOM     15  C   UNL     1      34.169 -14.292 -24.295  0.00  0.00    +0.037 C 
ATOM     16  C   UNL     1      34.799 -14.934 -23.228  0.00  0.00    +0.145 C 
BRANCH  16  17
ATOM     17  O   UNL     1      35.642 -15.977 -23.463  0.00  0.00    -0.453 OA
BRANCH  17  18
ATOM     18  C   UNL     1      35.499 -17.109 -22.678  0.00  0.00    +0.145 C 
ATOM     19  C   UNL     1      34.554 -18.077 -23.016  0.00  0.00    +0.038 C 
ATOM     20  C   UNL     1      36.301 -17.281 -21.550  0.00  0.00    +0.038 C 
ATOM     21  C   UNL     1      34.408 -19.216 -22.224  0.00  0.00    +0.008 C 
ATOM     22  C   UNL     1      36.155 -18.419 -20.758  0.00  0.00    +0.008 C 
ATOM     23  C   UNL     1      35.209 -19.388 -21.095  0.00  0.00    +0.054 C 
BRANCH  23  26
ATOM     24  O   UNL     1      33.777 -20.869 -19.929  0.00  0.00    -0.431 OA
ATOM     25  N   UNL     1      35.977 -21.385 -19.817  0.00  0.00    -0.206 NA
ATOM     26  C   UNL     1      35.058 -20.565 -20.276  0.00  0.00    +0.230 C 
ATOM     27  C   UNL     1      33.911 -21.996 -19.174  0.00  0.00    +0.202 C 
ATOM     28  C   UNL     1      35.246 -22.305 -19.110  0.00  0.00    +0.143 C 
ENDBRANCH  23  26
ENDBRANCH  17  18
ENDBRANCH  16  17
ENDBRANCH  10  11
ENDBRANCH   1  10
BRANCH   2  29
ATOM     29  C   UNL     1      33.288  -6.235 -21.940  0.00  0.00    -0.050 C 
BRANCH  29  30
ATOM     30  C   UNL     1      33.672  -5.777 -23.322  0.00  0.00    -0.043 C 
ATOM     31  C   UNL     1      34.937  -6.078 -23.829  0.00  0.00    -0.006 C 
ATOM     32  C   UNL     1      32.765  -5.052 -24.094  0.00  0.00    -0.006 C 
ATOM     33  C   UNL     1      35.293  -5.654 -25.108  0.00  0.00    +0.006 C 
ATOM     34  C   UNL     1      33.122  -4.628 -25.374  0.00  0.00    +0.006 C 
ATOM     35  C   UNL     1      34.386  -4.929 -25.882  0.00  0.00    +0.075 C 
BRANCH  35  37
ATOM     36  O   UNL     1      34.022  -3.879 -28.000  0.00  0.00    -0.245 OA
ATOM     37  C   UNL     1      34.757  -4.488 -27.216  0.00  0.00    +0.338 C 
BRANCH  37  38
ATOM     38  O   UNL     1      36.039  -4.818 -27.535  0.00  0.00    -0.477 OA
ATOM     39  H   UNL     1      36.286  -4.924 -28.433  0.00  0.00    +0.295 HD
ENDBRANCH  37  38
ENDBRANCH  35  37
ENDBRANCH  29  30
ENDBRANCH   2  29
TORSDOF 9
ENDMDL
