MODEL 1
REMARK VINA RESULT:     -11.7      0.000      0.000
REMARK  Name = 6918151
REMARK  4 active torsions:
REMARK  status: ('A' for Active; 'I' for Inactive)
REMARK    1  A    between atoms: C_2  and  C_11
REMARK    2  A    between atoms: C_7  and  C_18
REMARK    3  A    between atoms: C_11  and  C_12
REMARK    4  A    between atoms: C_18  and  C_23
REMARK                            x       y       z     vdW  Elec       q    Type
REMARK                         _______ _______ _______ _____ _____    ______ ____
ROOT
ATOM      1  O   UNL     1      36.056 -19.958 -20.310  0.00  0.00    -0.479 OA
ATOM      2  C   UNL     1      35.322 -18.945 -21.014  0.00  0.00    +0.171 C 
ATOM      3  C   UNL     1      34.087 -19.529 -21.699  0.00  0.00    +0.049 C 
ATOM      4  C   UNL     1      33.143 -20.082 -20.638  0.00  0.00    +0.033 C 
ATOM      5  C   UNL     1      33.904 -20.893 -19.629  0.00  0.00    +0.012 C 
ATOM      6  C   UNL     1      35.296 -20.778 -19.515  0.00  0.00    +0.134 C 
ATOM      7  C   UNL     1      33.914 -22.519 -17.827  0.00  0.00    -0.021 C 
ATOM      8  C   UNL     1      33.218 -21.759 -18.768  0.00  0.00    -0.006 C 
ATOM      9  C   UNL     1      35.993 -21.548 -18.581  0.00  0.00    +0.036 C 
ATOM     10  C   UNL     1      35.301 -22.416 -17.736  0.00  0.00    -0.001 C 
ENDROOT
BRANCH   2  11
ATOM     11  C   UNL     1      36.269 -18.332 -22.038  0.00  0.00    +0.070 C 
BRANCH  11  12
ATOM     12  C   UNL     1      35.647 -17.153 -22.736  0.00  0.00    -0.019 C 
ATOM     13  C   UNL     1      35.347 -17.239 -24.090  0.00  0.00    -0.004 C 
ATOM     14  C   UNL     1      35.381 -15.995 -22.018  0.00  0.00    -0.004 C 
ATOM     15  C   UNL     1      34.770 -16.147 -24.737  0.00  0.00    -0.000 C 
ATOM     16  C   UNL     1      34.804 -14.902 -22.666  0.00  0.00    -0.000 C 
ATOM     17  C   UNL     1      34.499 -14.978 -24.024  0.00  0.00    -0.000 C 
ENDBRANCH  11  12
ENDBRANCH   2  11
BRANCH   7  18
ATOM     18  C   UNL     1      33.174 -23.442 -16.919  0.00  0.00    +0.047 C 
BRANCH  18  23
ATOM     19  S   UNL     1      32.933 -23.487 -14.170  0.00  0.00    -0.048 S 
ATOM     20  O   UNL     1      30.372 -22.357 -16.827  0.00  0.00    -0.274 OA
ATOM     21  O   UNL     1      30.928 -24.264 -12.658  0.00  0.00    -0.263 OA
ATOM     22  N   UNL     1      30.445 -23.312 -14.722  0.00  0.00    -0.246 N 
ATOM     23  C   UNL     1      32.512 -22.706 -15.758  0.00  0.00    +0.137 C 
ATOM     24  C   UNL     1      31.004 -22.760 -15.857  0.00  0.00    +0.239 C 
ATOM     25  C   UNL     1      31.264 -23.754 -13.716  0.00  0.00    +0.279 C 
ATOM     26  H   UNL     1      29.467 -23.389 -14.637  0.00  0.00    +0.158 HD
ENDBRANCH  18  23
ENDBRANCH   7  18
TORSDOF 4
ENDMDL
MODEL 2
REMARK VINA RESULT:     -11.2      1.402      1.741
REMARK  Name = 6918151
REMARK  4 active torsions:
REMARK  status: ('A' for Active; 'I' for Inactive)
REMARK    1  A    between atoms: C_2  and  C_11
REMARK    2  A    between atoms: C_7  and  C_18
REMARK    3  A    between atoms: C_11  and  C_12
REMARK    4  A    between atoms: C_18  and  C_23
REMARK                            x       y       z     vdW  Elec       q    Type
REMARK                         _______ _______ _______ _____ _____    ______ ____
ROOT
ATOM      1  O   UNL     1      36.305 -19.667 -20.591  0.00  0.00    -0.479 OA
ATOM      2  C   UNL     1      35.416 -18.779 -21.284  0.00  0.00    +0.171 C 
ATOM      3  C   UNL     1      34.203 -19.525 -21.836  0.00  0.00    +0.049 C 
ATOM      4  C   UNL     1      33.406 -20.109 -20.675  0.00  0.00    +0.033 C 
ATOM      5  C   UNL     1      34.324 -20.776 -19.691  0.00  0.00    +0.012 C 
ATOM      6  C   UNL     1      35.700 -20.512 -19.697  0.00  0.00    +0.134 C 
ATOM      7  C   UNL     1      34.644 -22.283 -17.815  0.00  0.00    -0.021 C 
ATOM      8  C   UNL     1      33.801 -21.656 -18.734  0.00  0.00    -0.006 C 
ATOM      9  C   UNL     1      36.544 -21.151 -18.784  0.00  0.00    +0.036 C 
ATOM     10  C   UNL     1      36.015 -22.033 -17.843  0.00  0.00    -0.001 C 
ENDROOT
BRANCH   2  11
ATOM     11  C   UNL     1      36.212 -18.133 -22.412  0.00  0.00    +0.070 C 
BRANCH  11  12
ATOM     12  C   UNL     1      35.498 -16.938 -22.985  0.00  0.00    -0.019 C 
ATOM     13  C   UNL     1      35.309 -15.812 -22.195  0.00  0.00    -0.004 C 
ATOM     14  C   UNL     1      35.039 -16.978 -24.294  0.00  0.00    -0.004 C 
ATOM     15  C   UNL     1      34.647 -14.704 -22.725  0.00  0.00    -0.000 C 
ATOM     16  C   UNL     1      34.378 -15.870 -24.824  0.00  0.00    -0.000 C 
ATOM     17  C   UNL     1      34.181 -14.734 -24.040  0.00  0.00    -0.000 C 
ENDBRANCH  11  12
ENDBRANCH   2  11
BRANCH   7  18
ATOM     18  C   UNL     1      34.078 -23.222 -16.805  0.00  0.00    +0.047 C 
BRANCH  18  23
ATOM     19  S   UNL     1      35.345 -23.445 -14.363  0.00  0.00    -0.048 S 
ATOM     20  O   UNL     1      31.689 -22.479 -15.136  0.00  0.00    -0.274 OA
ATOM     21  O   UNL     1      34.517 -24.534 -12.118  0.00  0.00    -0.263 OA
ATOM     22  N   UNL     1      32.941 -23.534 -13.502  0.00  0.00    -0.246 N 
ATOM     23  C   UNL     1      34.088 -22.633 -15.396  0.00  0.00    +0.137 C 
ATOM     24  C   UNL     1      32.768 -22.858 -14.693  0.00  0.00    +0.239 C 
ATOM     25  C   UNL     1      34.200 -23.931 -13.132  0.00  0.00    +0.279 C 
ATOM     26  H   UNL     1      32.168 -23.729 -12.925  0.00  0.00    +0.158 HD
ENDBRANCH  18  23
ENDBRANCH   7  18
TORSDOF 4
ENDMDL
MODEL 3
REMARK VINA RESULT:     -11.0      1.067      1.852
REMARK  Name = 6918151
REMARK  4 active torsions:
REMARK  status: ('A' for Active; 'I' for Inactive)
REMARK    1  A    between atoms: C_2  and  C_11
REMARK    2  A    between atoms: C_7  and  C_18
REMARK    3  A    between atoms: C_11  and  C_12
REMARK    4  A    between atoms: C_18  and  C_23
REMARK                            x       y       z     vdW  Elec       q    Type
REMARK                         _______ _______ _______ _____ _____    ______ ____
ROOT
ATOM      1  O   UNL     1      34.915 -19.177 -21.055  0.00  0.00    -0.479 OA
ATOM      2  C   UNL     1      36.279 -19.222 -21.499  0.00  0.00    +0.171 C 
ATOM      3  C   UNL     1      37.238 -19.430 -20.329  0.00  0.00    +0.049 C 
ATOM      4  C   UNL     1      36.952 -20.781 -19.684  0.00  0.00    +0.033 C 
ATOM      5  C   UNL     1      35.475 -20.972 -19.496  0.00  0.00    +0.012 C 
ATOM      6  C   UNL     1      34.553 -20.179 -20.191  0.00  0.00    +0.134 C 
ATOM      7  C   UNL     1      33.633 -22.158 -18.452  0.00  0.00    -0.021 C 
ATOM      8  C   UNL     1      35.004 -21.973 -18.635  0.00  0.00    -0.006 C 
ATOM      9  C   UNL     1      33.181 -20.358 -19.996  0.00  0.00    +0.036 C 
ATOM     10  C   UNL     1      32.723 -21.350 -19.129  0.00  0.00    -0.001 C 
ENDROOT
BRANCH   2  11
ATOM     11  C   UNL     1      36.566 -17.903 -22.206  0.00  0.00    +0.070 C 
BRANCH  11  12
ATOM     12  C   UNL     1      35.521 -17.586 -23.241  0.00  0.00    -0.019 C 
ATOM     13  C   UNL     1      34.806 -18.621 -23.830  0.00  0.00    -0.004 C 
ATOM     14  C   UNL     1      35.285 -16.264 -23.594  0.00  0.00    -0.004 C 
ATOM     15  C   UNL     1      33.836 -18.328 -24.789  0.00  0.00    -0.000 C 
ATOM     16  C   UNL     1      34.315 -15.972 -24.553  0.00  0.00    -0.000 C 
ATOM     17  C   UNL     1      33.591 -17.003 -25.150  0.00  0.00    -0.000 C 
ENDBRANCH  11  12
ENDBRANCH   2  11
BRANCH   7  18
ATOM     18  C   UNL     1      33.143 -23.222 -17.529  0.00  0.00    +0.047 C 
BRANCH  18  23
ATOM     19  S   UNL     1      33.415 -23.544 -14.801  0.00  0.00    -0.048 S 
ATOM     20  O   UNL     1      30.340 -22.388 -16.827  0.00  0.00    -0.274 OA
ATOM     21  O   UNL     1      31.778 -24.624 -13.051  0.00  0.00    -0.263 OA
ATOM     22  N   UNL     1      30.862 -23.527 -14.883  0.00  0.00    -0.246 N 
ATOM     23  C   UNL     1      32.659 -22.656 -16.196  0.00  0.00    +0.137 C 
ATOM     24  C   UNL     1      31.165 -22.826 -16.032  0.00  0.00    +0.239 C 
ATOM     25  C   UNL     1      31.880 -23.991 -14.091  0.00  0.00    +0.279 C 
ATOM     26  H   UNL     1      29.924 -23.693 -14.635  0.00  0.00    +0.158 HD
ENDBRANCH  18  23
ENDBRANCH   7  18
TORSDOF 4
ENDMDL
MODEL 4
REMARK VINA RESULT:     -10.9      3.742      9.213
REMARK  Name = 6918151
REMARK  4 active torsions:
REMARK  status: ('A' for Active; 'I' for Inactive)
REMARK    1  A    between atoms: C_2  and  C_11
REMARK    2  A    between atoms: C_7  and  C_18
REMARK    3  A    between atoms: C_11  and  C_12
REMARK    4  A    between atoms: C_18  and  C_23
REMARK                            x       y       z     vdW  Elec       q    Type
REMARK                         _______ _______ _______ _____ _____    ______ ____
ROOT
ATOM      1  O   UNL     1      34.569 -22.923 -16.982  0.00  0.00    -0.479 OA
ATOM      2  C   UNL     1      35.280 -22.871 -15.736  0.00  0.00    +0.171 C 
ATOM      3  C   UNL     1      36.790 -22.954 -15.953  0.00  0.00    +0.049 C 
ATOM      4  C   UNL     1      37.245 -21.743 -16.758  0.00  0.00    +0.033 C 
ATOM      5  C   UNL     1      36.324 -21.507 -17.920  0.00  0.00    +0.012 C 
ATOM      6  C   UNL     1      35.052 -22.092 -17.960  0.00  0.00    +0.134 C 
ATOM      7  C   UNL     1      35.878 -20.445 -20.056  0.00  0.00    -0.021 C 
ATOM      8  C   UNL     1      36.725 -20.670 -18.970  0.00  0.00    -0.006 C 
ATOM      9  C   UNL     1      34.210 -21.875 -19.054  0.00  0.00    +0.036 C 
ATOM     10  C   UNL     1      34.623 -21.049 -20.099  0.00  0.00    -0.001 C 
ENDROOT
BRANCH   2  11
ATOM     11  C   UNL     1      34.790 -24.039 -14.888  0.00  0.00    +0.070 C 
BRANCH  11  12
ATOM     12  C   UNL     1      33.353 -23.865 -14.477  0.00  0.00    -0.019 C 
ATOM     13  C   UNL     1      32.672 -22.710 -14.842  0.00  0.00    -0.004 C 
ATOM     14  C   UNL     1      32.726 -24.861 -13.741  0.00  0.00    -0.004 C 
ATOM     15  C   UNL     1      31.340 -22.549 -14.462  0.00  0.00    -0.000 C 
ATOM     16  C   UNL     1      31.393 -24.699 -13.362  0.00  0.00    -0.000 C 
ATOM     17  C   UNL     1      30.701 -23.544 -13.721  0.00  0.00    -0.000 C 
ENDBRANCH  11  12
ENDBRANCH   2  11
BRANCH   7  18
ATOM     18  C   UNL     1      36.317 -19.557 -21.171  0.00  0.00    +0.047 C 
BRANCH  18  23
ATOM     19  S   UNL     1      35.055 -19.164 -23.595  0.00  0.00    -0.048 S 
ATOM     20  O   UNL     1      35.460 -16.727 -20.629  0.00  0.00    -0.274 OA
ATOM     21  O   UNL     1      35.116 -17.099 -25.220  0.00  0.00    -0.263 OA
ATOM     22  N   UNL     1      35.290 -16.707 -22.936  0.00  0.00    -0.246 N 
ATOM     23  C   UNL     1      35.149 -18.812 -21.813  0.00  0.00    +0.137 C 
ATOM     24  C   UNL     1      35.319 -17.314 -21.697  0.00  0.00    +0.239 C 
ATOM     25  C   UNL     1      35.156 -17.480 -24.060  0.00  0.00    +0.279 C 
ATOM     26  H   UNL     1      35.365 -15.728 -23.012  0.00  0.00    +0.158 HD
ENDBRANCH  18  23
ENDBRANCH   7  18
TORSDOF 4
ENDMDL
MODEL 5
REMARK VINA RESULT:     -10.9      4.707      9.718
REMARK  Name = 6918151
REMARK  4 active torsions:
REMARK  status: ('A' for Active; 'I' for Inactive)
REMARK    1  A    between atoms: C_2  and  C_11
REMARK    2  A    between atoms: C_7  and  C_18
REMARK    3  A    between atoms: C_11  and  C_12
REMARK    4  A    between atoms: C_18  and  C_23
REMARK                            x       y       z     vdW  Elec       q    Type
REMARK                         _______ _______ _______ _____ _____    ______ ____
ROOT
ATOM      1  O   UNL     1      34.924 -22.857 -16.897  0.00  0.00    -0.479 OA
ATOM      2  C   UNL     1      35.676 -22.780 -15.676  0.00  0.00    +0.171 C 
ATOM      3  C   UNL     1      37.179 -22.824 -15.946  0.00  0.00    +0.049 C 
ATOM      4  C   UNL     1      37.573 -21.604 -16.770  0.00  0.00    +0.033 C 
ATOM      5  C   UNL     1      36.606 -21.398 -17.900  0.00  0.00    +0.012 C 
ATOM      6  C   UNL     1      35.349 -22.017 -17.894  0.00  0.00    +0.134 C 
ATOM      7  C   UNL     1      36.057 -20.357 -20.023  0.00  0.00    -0.021 C 
ATOM      8  C   UNL     1      36.947 -20.555 -18.966  0.00  0.00    -0.006 C 
ATOM      9  C   UNL     1      34.465 -21.828 -18.959  0.00  0.00    +0.036 C 
ATOM     10  C   UNL     1      34.818 -20.996 -20.020  0.00  0.00    -0.001 C 
ENDROOT
BRANCH   2  11
ATOM     11  C   UNL     1      35.248 -23.958 -14.808  0.00  0.00    +0.070 C 
BRANCH  11  12
ATOM     12  C   UNL     1      36.203 -24.185 -13.668  0.00  0.00    -0.019 C 
ATOM     13  C   UNL     1      36.385 -23.188 -12.719  0.00  0.00    -0.004 C 
ATOM     14  C   UNL     1      36.891 -25.388 -13.581  0.00  0.00    -0.004 C 
ATOM     15  C   UNL     1      37.271 -23.399 -11.662  0.00  0.00    -0.000 C 
ATOM     16  C   UNL     1      37.776 -25.599 -12.523  0.00  0.00    -0.000 C 
ATOM     17  C   UNL     1      37.966 -24.604 -11.565  0.00  0.00    -0.000 C 
ENDBRANCH  11  12
ENDBRANCH   2  11
BRANCH   7  18
ATOM     18  C   UNL     1      36.433 -19.463 -21.155  0.00  0.00    +0.047 C 
BRANCH  18  23
ATOM     19  S   UNL     1      35.113 -19.184 -23.564  0.00  0.00    -0.048 S 
ATOM     20  O   UNL     1      35.441 -16.669 -20.654  0.00  0.00    -0.274 OA
ATOM     21  O   UNL     1      35.041 -17.152 -25.230  0.00  0.00    -0.263 OA
ATOM     22  N   UNL     1      35.233 -16.705 -22.958  0.00  0.00    -0.246 N 
ATOM     23  C   UNL     1      35.218 -18.791 -21.791  0.00  0.00    +0.137 C 
ATOM     24  C   UNL     1      35.313 -17.284 -21.708  0.00  0.00    +0.239 C 
ATOM     25  C   UNL     1      35.120 -17.507 -24.064  0.00  0.00    +0.279 C 
ATOM     26  H   UNL     1      35.256 -15.726 -23.054  0.00  0.00    +0.158 HD
ENDBRANCH  18  23
ENDBRANCH   7  18
TORSDOF 4
ENDMDL
MODEL 6
REMARK VINA RESULT:     -10.6      4.108      7.191
REMARK  Name = 6918151
REMARK  4 active torsions:
REMARK  status: ('A' for Active; 'I' for Inactive)
REMARK    1  A    between atoms: C_2  and  C_11
REMARK    2  A    between atoms: C_7  and  C_18
REMARK    3  A    between atoms: C_11  and  C_12
REMARK    4  A    between atoms: C_18  and  C_23
REMARK                            x       y       z     vdW  Elec       q    Type
REMARK                         _______ _______ _______ _____ _____    ______ ____
ROOT
ATOM      1  O   UNL     1      33.961 -14.205 -24.853  0.00  0.00    -0.479 OA
ATOM      2  C   UNL     1      34.344 -12.984 -24.203  0.00  0.00    +0.171 C 
ATOM      3  C   UNL     1      34.046 -13.034 -22.705  0.00  0.00    +0.049 C 
ATOM      4  C   UNL     1      34.881 -14.139 -22.068  0.00  0.00    +0.033 C 
ATOM      5  C   UNL     1      34.817 -15.390 -22.896  0.00  0.00    +0.012 C 
ATOM      6  C   UNL     1      34.379 -15.352 -24.226  0.00  0.00    +0.134 C 
ATOM      7  C   UNL     1      35.169 -17.782 -23.105  0.00  0.00    -0.021 C 
ATOM      8  C   UNL     1      35.225 -16.613 -22.346  0.00  0.00    -0.006 C 
ATOM      9  C   UNL     1      34.311 -16.525 -24.980  0.00  0.00    +0.036 C 
ATOM     10  C   UNL     1      34.709 -17.739 -24.420  0.00  0.00    -0.001 C 
ENDROOT
BRANCH   2  11
ATOM     11  C   UNL     1      33.567 -11.855 -24.871  0.00  0.00    +0.070 C 
BRANCH  11  12
ATOM     12  C   UNL     1      34.093 -10.504 -24.468  0.00  0.00    -0.019 C 
ATOM     13  C   UNL     1      35.343 -10.095 -24.915  0.00  0.00    -0.004 C 
ATOM     14  C   UNL     1      33.322  -9.684 -23.655  0.00  0.00    -0.004 C 
ATOM     15  C   UNL     1      35.830  -8.843 -24.542  0.00  0.00    -0.000 C 
ATOM     16  C   UNL     1      33.809  -8.431 -23.283  0.00  0.00    -0.000 C 
ATOM     17  C   UNL     1      35.063  -8.011 -23.725  0.00  0.00    -0.000 C 
ENDBRANCH  11  12
ENDBRANCH   2  11
BRANCH   7  18
ATOM     18  C   UNL     1      35.599 -19.079 -22.509  0.00  0.00    +0.047 C 
BRANCH  18  23
ATOM     19  S   UNL     1      36.930 -19.767 -20.190  0.00  0.00    -0.048 S 
ATOM     20  O   UNL     1      33.149 -19.876 -20.959  0.00  0.00    -0.274 OA
ATOM     21  O   UNL     1      36.602 -21.834 -18.599  0.00  0.00    -0.263 OA
ATOM     22  N   UNL     1      34.737 -20.980 -19.691  0.00  0.00    -0.246 N 
ATOM     23  C   UNL     1      35.439 -19.101 -20.991  0.00  0.00    +0.137 C 
ATOM     24  C   UNL     1      34.304 -20.006 -20.567  0.00  0.00    +0.239 C 
ATOM     25  C   UNL     1      36.065 -21.038 -19.353  0.00  0.00    +0.279 C 
ATOM     26  H   UNL     1      34.100 -21.628 -19.313  0.00  0.00    +0.158 HD
ENDBRANCH  18  23
ENDBRANCH   7  18
TORSDOF 4
ENDMDL
MODEL 7
REMARK VINA RESULT:     -10.5      5.854     10.079
REMARK  Name = 6918151
REMARK  4 active torsions:
REMARK  status: ('A' for Active; 'I' for Inactive)
REMARK    1  A    between atoms: C_2  and  C_11
REMARK    2  A    between atoms: C_7  and  C_18
REMARK    3  A    between atoms: C_11  and  C_12
REMARK    4  A    between atoms: C_18  and  C_23
REMARK                            x       y       z     vdW  Elec       q    Type
REMARK                         _______ _______ _______ _____ _____    ______ ____
ROOT
ATOM      1  O   UNL     1      35.907 -17.330 -20.996  0.00  0.00    -0.479 OA
ATOM      2  C   UNL     1      36.608 -18.301 -21.787  0.00  0.00    +0.171 C 
ATOM      3  C   UNL     1      35.770 -18.755 -22.980  0.00  0.00    +0.049 C 
ATOM      4  C   UNL     1      35.516 -17.562 -23.894  0.00  0.00    +0.033 C 
ATOM      5  C   UNL     1      35.103 -16.364 -23.090  0.00  0.00    +0.012 C 
ATOM      6  C   UNL     1      35.329 -16.310 -21.708  0.00  0.00    +0.134 C 
ATOM      7  C   UNL     1      34.115 -14.149 -22.989  0.00  0.00    -0.021 C 
ATOM      8  C   UNL     1      34.505 -15.268 -23.726  0.00  0.00    -0.006 C 
ATOM      9  C   UNL     1      34.927 -15.195 -20.970  0.00  0.00    +0.036 C 
ATOM     10  C   UNL     1      34.323 -14.114 -21.612  0.00  0.00    -0.001 C 
ENDROOT
BRANCH   2  11
ATOM     11  C   UNL     1      36.931 -19.478 -20.873  0.00  0.00    +0.070 C 
BRANCH  11  12
ATOM     12  C   UNL     1      35.683 -20.152 -20.371  0.00  0.00    -0.019 C 
ATOM     13  C   UNL     1      35.790 -21.234 -19.507  0.00  0.00    -0.004 C 
ATOM     14  C   UNL     1      34.441 -19.683 -20.778  0.00  0.00    -0.004 C 
ATOM     15  C   UNL     1      34.633 -21.858 -19.041  0.00  0.00    -0.000 C 
ATOM     16  C   UNL     1      33.284 -20.308 -20.311  0.00  0.00    -0.000 C 
ATOM     17  C   UNL     1      33.380 -21.395 -19.444  0.00  0.00    -0.000 C 
ENDBRANCH  11  12
ENDBRANCH   2  11
BRANCH   7  18
ATOM     18  C   UNL     1      33.474 -12.990 -23.676  0.00  0.00    +0.047 C 
BRANCH  18  23
ATOM     19  S   UNL     1      32.421 -11.043 -22.027  0.00  0.00    -0.048 S 
ATOM     20  O   UNL     1      34.966 -10.689 -24.907  0.00  0.00    -0.274 OA
ATOM     21  O   UNL     1      31.529  -8.638 -22.603  0.00  0.00    -0.263 OA
ATOM     22  N   UNL     1      33.279  -9.495 -23.870  0.00  0.00    -0.246 N 
ATOM     23  C   UNL     1      33.820 -11.659 -23.013  0.00  0.00    +0.137 C 
ATOM     24  C   UNL     1      34.104 -10.587 -24.040  0.00  0.00    +0.239 C 
ATOM     25  C   UNL     1      32.331  -9.517 -22.879  0.00  0.00    +0.279 C 
ATOM     26  H   UNL     1      33.368  -8.708 -24.454  0.00  0.00    +0.158 HD
ENDBRANCH  18  23
ENDBRANCH   7  18
TORSDOF 4
ENDMDL
MODEL 8
REMARK VINA RESULT:     -10.5      4.265      9.185
REMARK  Name = 6918151
REMARK  4 active torsions:
REMARK  status: ('A' for Active; 'I' for Inactive)
REMARK    1  A    between atoms: C_2  and  C_11
REMARK    2  A    between atoms: C_7  and  C_18
REMARK    3  A    between atoms: C_11  and  C_12
REMARK    4  A    between atoms: C_18  and  C_23
REMARK                            x       y       z     vdW  Elec       q    Type
REMARK                         _______ _______ _______ _____ _____    ______ ____
ROOT
ATOM      1  O   UNL     1      35.343 -22.547 -16.742  0.00  0.00    -0.479 OA
ATOM      2  C   UNL     1      34.136 -23.322 -16.690  0.00  0.00    +0.171 C 
ATOM      3  C   UNL     1      32.928 -22.499 -17.137  0.00  0.00    +0.049 C 
ATOM      4  C   UNL     1      33.114 -22.092 -18.593  0.00  0.00    +0.033 C 
ATOM      5  C   UNL     1      34.506 -21.579 -18.822  0.00  0.00    +0.012 C 
ATOM      6  C   UNL     1      35.530 -21.842 -17.903  0.00  0.00    +0.134 C 
ATOM      7  C   UNL     1      36.090 -20.366 -20.205  0.00  0.00    -0.021 C 
ATOM      8  C   UNL     1      34.800 -20.849 -19.982  0.00  0.00    -0.006 C 
ATOM      9  C   UNL     1      36.818 -21.347 -18.122  0.00  0.00    +0.036 C 
ATOM     10  C   UNL     1      37.097 -20.612 -19.274  0.00  0.00    -0.001 C 
ENDROOT
BRANCH   2  11
ATOM     11  C   UNL     1      33.965 -23.795 -15.251  0.00  0.00    +0.070 C 
BRANCH  11  12
ATOM     12  C   UNL     1      35.271 -24.249 -14.656  0.00  0.00    -0.019 C 
ATOM     13  C   UNL     1      35.842 -25.439 -15.087  0.00  0.00    -0.004 C 
ATOM     14  C   UNL     1      35.887 -23.471 -13.685  0.00  0.00    -0.004 C 
ATOM     15  C   UNL     1      37.052 -25.860 -14.535  0.00  0.00    -0.000 C 
ATOM     16  C   UNL     1      37.097 -23.892 -13.134  0.00  0.00    -0.000 C 
ATOM     17  C   UNL     1      37.680 -25.086 -13.558  0.00  0.00    -0.000 C 
ENDBRANCH  11  12
ENDBRANCH   2  11
BRANCH   7  18
ATOM     18  C   UNL     1      36.390 -19.585 -21.439  0.00  0.00    +0.047 C 
BRANCH  18  23
ATOM     19  S   UNL     1      34.963 -19.117 -23.755  0.00  0.00    -0.048 S 
ATOM     20  O   UNL     1      35.501 -16.807 -20.710  0.00  0.00    -0.274 OA
ATOM     21  O   UNL     1      34.866 -16.979 -25.282  0.00  0.00    -0.263 OA
ATOM     22  N   UNL     1      35.180 -16.687 -22.998  0.00  0.00    -0.246 N 
ATOM     23  C   UNL     1      35.165 -18.844 -21.969  0.00  0.00    +0.137 C 
ATOM     24  C   UNL     1      35.305 -17.348 -21.793  0.00  0.00    +0.239 C 
ATOM     25  C   UNL     1      34.992 -17.411 -24.146  0.00  0.00    +0.279 C 
ATOM     26  H   UNL     1      35.225 -15.704 -23.032  0.00  0.00    +0.158 HD
ENDBRANCH  18  23
ENDBRANCH   7  18
TORSDOF 4
ENDMDL
MODEL 9
REMARK VINA RESULT:     -10.5      4.364      9.286
REMARK  Name = 6918151
REMARK  4 active torsions:
REMARK  status: ('A' for Active; 'I' for Inactive)
REMARK    1  A    between atoms: C_2  and  C_11
REMARK    2  A    between atoms: C_7  and  C_18
REMARK    3  A    between atoms: C_11  and  C_12
REMARK    4  A    between atoms: C_18  and  C_23
REMARK                            x       y       z     vdW  Elec       q    Type
REMARK                         _______ _______ _______ _____ _____    ______ ____
ROOT
ATOM      1  O   UNL     1      35.747 -22.582 -16.671  0.00  0.00    -0.479 OA
ATOM      2  C   UNL     1      34.803 -23.514 -16.122  0.00  0.00    +0.171 C 
ATOM      3  C   UNL     1      33.402 -22.908 -16.051  0.00  0.00    +0.049 C 
ATOM      4  C   UNL     1      32.922 -22.594 -17.463  0.00  0.00    +0.033 C 
ATOM      5  C   UNL     1      34.005 -21.909 -18.245  0.00  0.00    +0.012 C 
ATOM      6  C   UNL     1      35.338 -21.950 -17.818  0.00  0.00    +0.134 C 
ATOM      7  C   UNL     1      34.687 -20.595 -20.169  0.00  0.00    -0.021 C 
ATOM      8  C   UNL     1      33.689 -21.237 -19.434  0.00  0.00    -0.006 C 
ATOM      9  C   UNL     1      36.334 -21.297 -18.549  0.00  0.00    +0.036 C 
ATOM     10  C   UNL     1      36.007 -20.622 -19.725  0.00  0.00    -0.001 C 
ENDROOT
BRANCH   2  11
ATOM     11  C   UNL     1      35.300 -23.893 -14.732  0.00  0.00    +0.070 C 
BRANCH  11  12
ATOM     12  C   UNL     1      36.565 -24.704 -14.795  0.00  0.00    -0.019 C 
ATOM     13  C   UNL     1      37.772 -24.117 -14.438  0.00  0.00    -0.004 C 
ATOM     14  C   UNL     1      36.510 -26.028 -15.208  0.00  0.00    -0.004 C 
ATOM     15  C   UNL     1      38.946 -24.869 -14.496  0.00  0.00    -0.000 C 
ATOM     16  C   UNL     1      37.684 -26.780 -15.266  0.00  0.00    -0.000 C 
ATOM     17  C   UNL     1      38.901 -26.200 -14.911  0.00  0.00    -0.000 C 
ENDBRANCH  11  12
ENDBRANCH   2  11
BRANCH   7  18
ATOM     18  C   UNL     1      34.339 -19.879 -21.430  0.00  0.00    +0.047 C 
BRANCH  18  23
ATOM     19  S   UNL     1      35.658 -17.455 -21.367  0.00  0.00    -0.048 S 
ATOM     20  O   UNL     1      35.249 -19.936 -24.295  0.00  0.00    -0.274 OA
ATOM     21  O   UNL     1      35.677 -15.492 -23.115  0.00  0.00    -0.263 OA
ATOM     22  N   UNL     1      35.466 -17.666 -23.906  0.00  0.00    -0.246 N 
ATOM     23  C   UNL     1      35.536 -19.144 -22.029  0.00  0.00    +0.137 C 
ATOM     24  C   UNL     1      35.398 -18.991 -23.527  0.00  0.00    +0.239 C 
ATOM     25  C   UNL     1      35.605 -16.699 -22.944  0.00  0.00    +0.279 C 
ATOM     26  H   UNL     1      35.415 -17.418 -24.857  0.00  0.00    +0.158 HD
ENDBRANCH  18  23
ENDBRANCH   7  18
TORSDOF 4
ENDMDL
