MODEL 1
REMARK VINA RESULT:     -12.7      0.000      0.000
REMARK  Name = 23656870
REMARK  4 active torsions:
REMARK  status: ('A' for Active; 'I' for Inactive)
REMARK    1  A    between atoms: N_2  and  C_25
REMARK    2  A    between atoms: N_3  and  C_14
REMARK    3  A    between atoms: C_10  and  C_32
REMARK    4  A    between atoms: C_16  and  N_21
REMARK                            x       y       z     vdW  Elec       q    Type
REMARK                         _______ _______ _______ _____ _____    ______ ____
ROOT
ATOM      1  N   UNL     1      32.152 -23.119 -15.114  0.00  0.00    -0.123 N 
ATOM      2  N   UNL     1      34.445 -23.465 -14.673  0.00  0.00    -0.274 N 
ATOM      3  N   UNL     1      32.873 -22.013 -18.892  0.00  0.00    -0.238 N 
ATOM      4  N   UNL     1      33.664 -22.739 -16.789  0.00  0.00    -0.295 NA
ATOM      5  N   UNL     1      31.335 -22.399 -17.199  0.00  0.00    -0.314 NA
ATOM      6  N   UNL     1      31.793 -23.473 -13.866  0.00  0.00    -0.170 NA
ATOM      7  C   UNL     1      33.465 -23.102 -15.556  0.00  0.00    +0.279 C 
ATOM      8  C   UNL     1      31.106 -22.775 -15.921  0.00  0.00    +0.219 C 
ATOM      9  C   UNL     1      32.587 -22.389 -17.601  0.00  0.00    +0.207 C 
ATOM     10  C   UNL     1      29.979 -22.915 -15.142  0.00  0.00    +0.203 C 
ATOM     11  C   UNL     1      30.463 -23.346 -13.890  0.00  0.00    +0.116 C 
ATOM     12  H   UNL     1      34.141 -23.717 -13.771  0.00  0.00    +0.156 HD
ATOM     13  H   UNL     1      32.179 -22.206 -19.562  0.00  0.00    +0.166 HD
ENDROOT
BRANCH   3  14
ATOM     14  C   UNL     1      34.025 -21.392 -19.371  0.00  0.00    +0.060 C 
ATOM     15  C   UNL     1      33.924 -20.332 -20.271  0.00  0.00    +0.030 C 
ATOM     16  C   UNL     1      35.077 -19.710 -20.749  0.00  0.00    +0.052 C 
ATOM     17  C   UNL     1      35.280 -21.830 -18.947  0.00  0.00    +0.015 C 
ATOM     18  C   UNL     1      36.332 -20.148 -20.326  0.00  0.00    +0.015 C 
ATOM     19  C   UNL     1      36.434 -21.208 -19.424  0.00  0.00    +0.003 C 
BRANCH  16  21
ATOM     20  O   UNL     1      35.256 -19.679 -23.754  0.00  0.00    -0.275 OA
ATOM     21  N   UNL     1      34.977 -18.651 -21.651  0.00  0.00    -0.284 N 
ATOM     22  C   UNL     1      35.069 -18.693 -23.049  0.00  0.00    +0.227 C 
ATOM     23  C   UNL     1      34.905 -17.325 -23.663  0.00  0.00    +0.095 C 
ATOM     24  H   UNL     1      34.820 -17.761 -21.257  0.00  0.00    +0.155 HD
ENDBRANCH  16  21
ENDBRANCH   3  14
BRANCH   2  25
ATOM     25  C   UNL     1      35.824 -23.526 -14.889  0.00  0.00    +0.051 C 
ATOM     26  C   UNL     1      36.479 -22.470 -15.522  0.00  0.00    +0.015 C 
ATOM     27  C   UNL     1      36.548 -24.643 -14.470  0.00  0.00    +0.015 C 
ATOM     28  C   UNL     1      37.855 -22.529 -15.738  0.00  0.00    +0.001 C 
ATOM     29  C   UNL     1      37.925 -24.703 -14.685  0.00  0.00    +0.001 C 
ATOM     30  C   UNL     1      38.579 -23.646 -15.319  0.00  0.00    +0.000 C 
ENDBRANCH   2  25
BRANCH  10  32
ATOM     31  N   UNL     1      27.540 -22.473 -15.860  0.00  0.00    -0.195 NA
ATOM     32  C   UNL     1      28.637 -22.671 -15.537  0.00  0.00    +0.087 C 
ENDBRANCH  10  32
TORSDOF 4
ENDMDL
MODEL 2
REMARK VINA RESULT:     -11.6      2.219      5.646
REMARK  Name = 23656870
REMARK  4 active torsions:
REMARK  status: ('A' for Active; 'I' for Inactive)
REMARK    1  A    between atoms: N_2  and  C_25
REMARK    2  A    between atoms: N_3  and  C_14
REMARK    3  A    between atoms: C_10  and  C_32
REMARK    4  A    between atoms: C_16  and  N_21
REMARK                            x       y       z     vdW  Elec       q    Type
REMARK                         _______ _______ _______ _____ _____    ______ ____
ROOT
ATOM      1  N   UNL     1      36.492 -24.388 -14.263  0.00  0.00    -0.123 N 
ATOM      2  N   UNL     1      34.151 -24.092 -14.198  0.00  0.00    -0.274 N 
ATOM      3  N   UNL     1      36.913 -21.742 -17.236  0.00  0.00    -0.238 N 
ATOM      4  N   UNL     1      35.529 -22.911 -15.722  0.00  0.00    -0.295 NA
ATOM      5  N   UNL     1      37.896 -23.236 -15.758  0.00  0.00    -0.314 NA
ATOM      6  N   UNL     1      36.469 -25.293 -13.266  0.00  0.00    -0.170 NA
ATOM      7  C   UNL     1      35.357 -23.766 -14.756  0.00  0.00    +0.279 C 
ATOM      8  C   UNL     1      37.739 -24.127 -14.754  0.00  0.00    +0.219 C 
ATOM      9  C   UNL     1      36.807 -22.655 -16.214  0.00  0.00    +0.207 C 
ATOM     10  C   UNL     1      38.595 -24.921 -14.024  0.00  0.00    +0.203 C 
ATOM     11  C   UNL     1      37.758 -25.614 -13.126  0.00  0.00    +0.116 C 
ATOM     12  H   UNL     1      34.178 -24.757 -13.473  0.00  0.00    +0.156 HD
ATOM     13  H   UNL     1      37.755 -21.233 -17.275  0.00  0.00    +0.166 HD
ENDROOT
BRANCH   3  14
ATOM     14  C   UNL     1      35.977 -21.447 -18.225  0.00  0.00    +0.060 C 
ATOM     15  C   UNL     1      36.352 -20.700 -19.341  0.00  0.00    +0.030 C 
ATOM     16  C   UNL     1      35.415 -20.406 -20.331  0.00  0.00    +0.052 C 
ATOM     17  C   UNL     1      34.663 -21.901 -18.099  0.00  0.00    +0.015 C 
ATOM     18  C   UNL     1      34.102 -20.859 -20.205  0.00  0.00    +0.015 C 
ATOM     19  C   UNL     1      33.726 -21.607 -19.089  0.00  0.00    +0.003 C 
BRANCH  16  21
ATOM     20  O   UNL     1      35.497 -17.425 -20.745  0.00  0.00    -0.275 OA
ATOM     21  N   UNL     1      35.789 -19.657 -21.446  0.00  0.00    -0.284 N 
ATOM     22  C   UNL     1      35.807 -18.262 -21.586  0.00  0.00    +0.227 C 
ATOM     23  C   UNL     1      36.279 -17.843 -22.956  0.00  0.00    +0.095 C 
ATOM     24  H   UNL     1      36.077 -20.171 -22.236  0.00  0.00    +0.155 HD
ENDBRANCH  16  21
ENDBRANCH   3  14
BRANCH   2  25
ATOM     25  C   UNL     1      32.885 -23.599 -14.525  0.00  0.00    +0.051 C 
ATOM     26  C   UNL     1      32.539 -23.395 -15.861  0.00  0.00    +0.015 C 
ATOM     27  C   UNL     1      31.965 -23.312 -13.516  0.00  0.00    +0.015 C 
ATOM     28  C   UNL     1      31.276 -22.904 -16.188  0.00  0.00    +0.001 C 
ATOM     29  C   UNL     1      30.701 -22.821 -13.843  0.00  0.00    +0.001 C 
ATOM     30  C   UNL     1      30.356 -22.616 -15.179  0.00  0.00    +0.000 C 
ENDBRANCH   2  25
BRANCH  10  32
ATOM     31  N   UNL     1      41.158 -25.072 -14.282  0.00  0.00    -0.195 NA
ATOM     32  C   UNL     1      40.005 -25.004 -14.166  0.00  0.00    +0.087 C 
ENDBRANCH  10  32
TORSDOF 4
ENDMDL
MODEL 3
REMARK VINA RESULT:     -11.2      1.361      1.489
REMARK  Name = 23656870
REMARK  4 active torsions:
REMARK  status: ('A' for Active; 'I' for Inactive)
REMARK    1  A    between atoms: N_2  and  C_25
REMARK    2  A    between atoms: N_3  and  C_14
REMARK    3  A    between atoms: C_10  and  C_32
REMARK    4  A    between atoms: C_16  and  N_21
REMARK                            x       y       z     vdW  Elec       q    Type
REMARK                         _______ _______ _______ _____ _____    ______ ____
ROOT
ATOM      1  N   UNL     1      31.909 -23.587 -14.621  0.00  0.00    -0.123 N 
ATOM      2  N   UNL     1      34.117 -23.998 -13.893  0.00  0.00    -0.274 N 
ATOM      3  N   UNL     1      33.138 -22.493 -18.271  0.00  0.00    -0.238 N 
ATOM      4  N   UNL     1      33.633 -23.245 -16.088  0.00  0.00    -0.295 NA
ATOM      5  N   UNL     1      31.386 -22.840 -16.790  0.00  0.00    -0.314 NA
ATOM      6  N   UNL     1      31.384 -23.934 -13.431  0.00  0.00    -0.170 NA
ATOM      7  C   UNL     1      33.268 -23.606 -14.892  0.00  0.00    +0.279 C 
ATOM      8  C   UNL     1      30.985 -23.212 -15.553  0.00  0.00    +0.219 C 
ATOM      9  C   UNL     1      32.679 -22.863 -17.029  0.00  0.00    +0.207 C 
ATOM     10  C   UNL     1      29.765 -23.322 -14.926  0.00  0.00    +0.203 C 
ATOM     11  C   UNL     1      30.072 -23.769 -13.625  0.00  0.00    +0.116 C 
ATOM     12  H   UNL     1      33.693 -24.243 -13.039  0.00  0.00    +0.156 HD
ATOM     13  H   UNL     1      32.529 -22.666 -19.024  0.00  0.00    +0.166 HD
ENDROOT
BRANCH   3  14
ATOM     14  C   UNL     1      34.358 -21.904 -18.594  0.00  0.00    +0.060 C 
ATOM     15  C   UNL     1      34.449 -21.042 -19.687  0.00  0.00    +0.030 C 
ATOM     16  C   UNL     1      35.670 -20.451 -20.010  0.00  0.00    +0.052 C 
ATOM     17  C   UNL     1      35.489 -22.175 -17.824  0.00  0.00    +0.015 C 
ATOM     18  C   UNL     1      36.801 -20.722 -19.241  0.00  0.00    +0.015 C 
ATOM     19  C   UNL     1      36.711 -21.584 -18.147  0.00  0.00    +0.003 C 
BRANCH  16  21
ATOM     20  O   UNL     1      37.705 -18.331 -20.665  0.00  0.00    -0.275 OA
ATOM     21  N   UNL     1      35.762 -19.591 -21.104  0.00  0.00    -0.284 N 
ATOM     22  C   UNL     1      36.736 -18.616 -21.360  0.00  0.00    +0.227 C 
ATOM     23  C   UNL     1      36.477 -17.894 -22.659  0.00  0.00    +0.095 C 
ATOM     24  H   UNL     1      35.053 -19.679 -21.784  0.00  0.00    +0.155 HD
ENDBRANCH  16  21
ENDBRANCH   3  14
BRANCH   2  25
ATOM     25  C   UNL     1      35.510 -24.097 -13.932  0.00  0.00    +0.051 C 
ATOM     26  C   UNL     1      36.281 -23.477 -12.949  0.00  0.00    +0.015 C 
ATOM     27  C   UNL     1      36.131 -24.816 -14.954  0.00  0.00    +0.015 C 
ATOM     28  C   UNL     1      37.672 -23.576 -12.986  0.00  0.00    +0.001 C 
ATOM     29  C   UNL     1      37.522 -24.916 -14.991  0.00  0.00    +0.001 C 
ATOM     30  C   UNL     1      38.293 -24.295 -14.008  0.00  0.00    +0.000 C 
ENDBRANCH   2  25
BRANCH  10  32
ATOM     31  N   UNL     1      27.450 -22.809 -15.947  0.00  0.00    -0.195 NA
ATOM     32  C   UNL     1      28.491 -23.039 -15.488  0.00  0.00    +0.087 C 
ENDBRANCH  10  32
TORSDOF 4
ENDMDL
MODEL 4
REMARK VINA RESULT:     -10.0      2.290      5.546
REMARK  Name = 23656870
REMARK  4 active torsions:
REMARK  status: ('A' for Active; 'I' for Inactive)
REMARK    1  A    between atoms: N_2  and  C_25
REMARK    2  A    between atoms: N_3  and  C_14
REMARK    3  A    between atoms: C_10  and  C_32
REMARK    4  A    between atoms: C_16  and  N_21
REMARK                            x       y       z     vdW  Elec       q    Type
REMARK                         _______ _______ _______ _____ _____    ______ ____
ROOT
ATOM      1  N   UNL     1      35.115 -23.901 -12.792  0.00  0.00    -0.123 N 
ATOM      2  N   UNL     1      32.872 -24.158 -13.481  0.00  0.00    -0.274 N 
ATOM      3  N   UNL     1      36.053 -21.785 -16.058  0.00  0.00    -0.238 N 
ATOM      4  N   UNL     1      34.460 -22.967 -14.776  0.00  0.00    -0.295 NA
ATOM      5  N   UNL     1      36.722 -22.727 -14.046  0.00  0.00    -0.314 NA
ATOM      6  N   UNL     1      34.913 -24.599 -11.659  0.00  0.00    -0.170 NA
ATOM      7  C   UNL     1      34.122 -23.658 -13.727  0.00  0.00    +0.279 C 
ATOM      8  C   UNL     1      36.391 -23.442 -12.948  0.00  0.00    +0.219 C 
ATOM      9  C   UNL     1      35.767 -22.507 -14.923  0.00  0.00    +0.207 C 
ATOM     10  C   UNL     1      37.075 -23.873 -11.834  0.00  0.00    +0.203 C 
ATOM     11  C   UNL     1      36.116 -24.578 -11.078  0.00  0.00    +0.116 C 
ATOM     12  H   UNL     1      32.766 -24.662 -12.643  0.00  0.00    +0.156 HD
ATOM     13  H   UNL     1      36.760 -21.107 -15.971  0.00  0.00    +0.166 HD
ENDROOT
BRANCH   3  14
ATOM     14  C   UNL     1      35.464 -21.895 -17.316  0.00  0.00    +0.060 C 
ATOM     15  C   UNL     1      36.008 -21.210 -18.403  0.00  0.00    +0.030 C 
ATOM     16  C   UNL     1      35.419 -21.322 -19.662  0.00  0.00    +0.052 C 
ATOM     17  C   UNL     1      34.331 -22.691 -17.489  0.00  0.00    +0.015 C 
ATOM     18  C   UNL     1      34.287 -22.117 -19.836  0.00  0.00    +0.015 C 
ATOM     19  C   UNL     1      33.742 -22.802 -18.749  0.00  0.00    +0.003 C 
BRANCH  16  21
ATOM     20  O   UNL     1      34.794 -18.587 -20.757  0.00  0.00    -0.275 OA
ATOM     21  N   UNL     1      35.962 -20.635 -20.749  0.00  0.00    -0.284 N 
ATOM     22  C   UNL     1      35.631 -19.357 -21.218  0.00  0.00    +0.227 C 
ATOM     23  C   UNL     1      36.451 -18.974 -22.425  0.00  0.00    +0.095 C 
ATOM     24  H   UNL     1      36.666 -21.108 -21.250  0.00  0.00    +0.155 HD
ENDBRANCH  16  21
ENDBRANCH   3  14
BRANCH   2  25
ATOM     25  C   UNL     1      31.724 -24.041 -14.270  0.00  0.00    +0.051 C 
ATOM     26  C   UNL     1      31.504 -22.885 -15.017  0.00  0.00    +0.015 C 
ATOM     27  C   UNL     1      30.796 -25.083 -14.311  0.00  0.00    +0.015 C 
ATOM     28  C   UNL     1      30.359 -22.768 -15.805  0.00  0.00    +0.001 C 
ATOM     29  C   UNL     1      29.651 -24.968 -15.098  0.00  0.00    +0.001 C 
ATOM     30  C   UNL     1      29.432 -23.810 -15.845  0.00  0.00    +0.000 C 
ENDBRANCH   2  25
BRANCH  10  32
ATOM     31  N   UNL     1      39.564 -23.458 -11.293  0.00  0.00    -0.195 NA
ATOM     32  C   UNL     1      38.445 -23.645 -11.536  0.00  0.00    +0.087 C 
ENDBRANCH  10  32
TORSDOF 4
ENDMDL
MODEL 5
REMARK VINA RESULT:      -9.7      3.267      7.000
REMARK  Name = 23656870
REMARK  4 active torsions:
REMARK  status: ('A' for Active; 'I' for Inactive)
REMARK    1  A    between atoms: N_2  and  C_25
REMARK    2  A    between atoms: N_3  and  C_14
REMARK    3  A    between atoms: C_10  and  C_32
REMARK    4  A    between atoms: C_16  and  N_21
REMARK                            x       y       z     vdW  Elec       q    Type
REMARK                         _______ _______ _______ _____ _____    ______ ____
ROOT
ATOM      1  N   UNL     1      36.194 -23.114 -13.484  0.00  0.00    -0.123 N 
ATOM      2  N   UNL     1      36.449 -22.330 -15.695  0.00  0.00    -0.274 N 
ATOM      3  N   UNL     1      32.374 -24.135 -14.108  0.00  0.00    -0.238 N 
ATOM      4  N   UNL     1      34.405 -23.234 -14.907  0.00  0.00    -0.295 NA
ATOM      5  N   UNL     1      34.184 -24.019 -12.661  0.00  0.00    -0.314 NA
ATOM      6  N   UNL     1      37.465 -22.810 -13.162  0.00  0.00    -0.170 NA
ATOM      7  C   UNL     1      35.649 -22.890 -14.737  0.00  0.00    +0.279 C 
ATOM      8  C   UNL     1      35.475 -23.669 -12.464  0.00  0.00    +0.219 C 
ATOM      9  C   UNL     1      33.683 -23.798 -13.857  0.00  0.00    +0.207 C 
ATOM     10  C   UNL     1      36.341 -23.733 -11.396  0.00  0.00    +0.203 C 
ATOM     11  C   UNL     1      37.548 -23.191 -11.884  0.00  0.00    +0.116 C 
ATOM     12  H   UNL     1      37.371 -22.122 -15.420  0.00  0.00    +0.156 HD
ATOM     13  H   UNL     1      32.019 -24.896 -13.596  0.00  0.00    +0.166 HD
ENDROOT
BRANCH   3  14
ATOM     14  C   UNL     1      31.488 -23.532 -14.999  0.00  0.00    +0.060 C 
ATOM     15  C   UNL     1      30.156 -23.335 -14.632  0.00  0.00    +0.030 C 
ATOM     16  C   UNL     1      29.270 -22.731 -15.523  0.00  0.00    +0.052 C 
ATOM     17  C   UNL     1      31.933 -23.124 -16.256  0.00  0.00    +0.015 C 
ATOM     18  C   UNL     1      29.715 -22.323 -16.781  0.00  0.00    +0.015 C 
ATOM     19  C   UNL     1      31.046 -22.519 -17.148  0.00  0.00    +0.003 C 
BRANCH  16  21
ATOM     20  O   UNL     1      27.039 -21.304 -16.956  0.00  0.00    -0.275 OA
ATOM     21  N   UNL     1      27.938 -22.536 -15.158  0.00  0.00    -0.284 N 
ATOM     22  C   UNL     1      26.936 -21.858 -15.867  0.00  0.00    +0.227 C 
ATOM     23  C   UNL     1      25.622 -21.871 -15.128  0.00  0.00    +0.095 C 
ATOM     24  H   UNL     1      27.666 -22.923 -14.294  0.00  0.00    +0.155 HD
ENDBRANCH  16  21
ENDBRANCH   3  14
BRANCH   2  25
ATOM     25  C   UNL     1      36.124 -22.015 -17.018  0.00  0.00    +0.051 C 
ATOM     26  C   UNL     1      34.890 -22.394 -17.543  0.00  0.00    +0.015 C 
ATOM     27  C   UNL     1      37.035 -21.319 -17.813  0.00  0.00    +0.015 C 
ATOM     28  C   UNL     1      34.565 -22.080 -18.862  0.00  0.00    +0.001 C 
ATOM     29  C   UNL     1      36.711 -21.004 -19.133  0.00  0.00    +0.001 C 
ATOM     30  C   UNL     1      35.476 -21.385 -19.658  0.00  0.00    +0.000 C 
ENDBRANCH   2  25
BRANCH  10  32
ATOM     31  N   UNL     1      35.822 -24.649  -9.040  0.00  0.00    -0.195 NA
ATOM     32  C   UNL     1      36.056 -24.238 -10.100  0.00  0.00    +0.087 C 
ENDBRANCH  10  32
TORSDOF 4
ENDMDL
MODEL 6
REMARK VINA RESULT:      -9.7      2.944      7.506
REMARK  Name = 23656870
REMARK  4 active torsions:
REMARK  status: ('A' for Active; 'I' for Inactive)
REMARK    1  A    between atoms: N_2  and  C_25
REMARK    2  A    between atoms: N_3  and  C_14
REMARK    3  A    between atoms: C_10  and  C_32
REMARK    4  A    between atoms: C_16  and  N_21
REMARK                            x       y       z     vdW  Elec       q    Type
REMARK                         _______ _______ _______ _____ _____    ______ ____
ROOT
ATOM      1  N   UNL     1      33.583 -21.422 -18.697  0.00  0.00    -0.123 N 
ATOM      2  N   UNL     1      32.267 -22.614 -17.143  0.00  0.00    -0.274 N 
ATOM      3  N   UNL     1      36.996 -22.700 -17.041  0.00  0.00    -0.238 N 
ATOM      4  N   UNL     1      34.635 -22.662 -17.087  0.00  0.00    -0.295 NA
ATOM      5  N   UNL     1      35.936 -21.443 -18.678  0.00  0.00    -0.314 NA
ATOM      6  N   UNL     1      32.503 -20.932 -19.333  0.00  0.00    -0.170 NA
ATOM      7  C   UNL     1      33.508 -22.265 -17.601  0.00  0.00    +0.279 C 
ATOM      8  C   UNL     1      34.775 -21.019 -19.227  0.00  0.00    +0.219 C 
ATOM      9  C   UNL     1      35.845 -22.242 -17.637  0.00  0.00    +0.207 C 
ATOM     10  C   UNL     1      34.450 -20.205 -20.288  0.00  0.00    +0.203 C 
ATOM     11  C   UNL     1      33.040 -20.188 -20.304  0.00  0.00    +0.116 C 
ATOM     12  H   UNL     1      31.503 -22.234 -17.635  0.00  0.00    +0.156 HD
ATOM     13  H   UNL     1      37.776 -22.805 -17.633  0.00  0.00    +0.166 HD
ENDROOT
BRANCH   3  14
ATOM     14  C   UNL     1      37.196 -23.036 -15.704  0.00  0.00    +0.060 C 
ATOM     15  C   UNL     1      38.109 -24.034 -15.363  0.00  0.00    +0.030 C 
ATOM     16  C   UNL     1      38.310 -24.368 -14.025  0.00  0.00    +0.052 C 
ATOM     17  C   UNL     1      36.484 -22.372 -14.705  0.00  0.00    +0.015 C 
ATOM     18  C   UNL     1      37.598 -23.705 -13.026  0.00  0.00    +0.015 C 
ATOM     19  C   UNL     1      36.684 -22.706 -13.365  0.00  0.00    +0.003 C 
BRANCH  16  21
ATOM     20  O   UNL     1      41.207 -24.708 -14.769  0.00  0.00    -0.275 OA
ATOM     21  N   UNL     1      39.221 -25.368 -13.684  0.00  0.00    -0.284 N 
ATOM     22  C   UNL     1      40.566 -25.478 -14.062  0.00  0.00    +0.227 C 
ATOM     23  C   UNL     1      41.211 -26.712 -13.481  0.00  0.00    +0.095 C 
ATOM     24  H   UNL     1      38.877 -26.087 -13.105  0.00  0.00    +0.155 HD
ENDBRANCH  16  21
ENDBRANCH   3  14
BRANCH   2  25
ATOM     25  C   UNL     1      31.944 -23.444 -16.065  0.00  0.00    +0.051 C 
ATOM     26  C   UNL     1      32.871 -23.654 -15.044  0.00  0.00    +0.015 C 
ATOM     27  C   UNL     1      30.694 -24.062 -16.010  0.00  0.00    +0.015 C 
ATOM     28  C   UNL     1      32.549 -24.481 -13.968  0.00  0.00    +0.001 C 
ATOM     29  C   UNL     1      30.372 -24.889 -14.934  0.00  0.00    +0.001 C 
ATOM     30  C   UNL     1      31.300 -25.099 -13.913  0.00  0.00    +0.000 C 
ENDBRANCH   2  25
BRANCH  10  32
ATOM     31  N   UNL     1      36.092 -18.995 -21.869  0.00  0.00    -0.195 NA
ATOM     32  C   UNL     1      35.354 -19.539 -21.158  0.00  0.00    +0.087 C 
ENDBRANCH  10  32
TORSDOF 4
ENDMDL
