MODEL 1
REMARK VINA RESULT:     -12.2      0.000      0.000
REMARK  Name = 46937134
REMARK  9 active torsions:
REMARK  status: ('A' for Active; 'I' for Inactive)
REMARK    1  A    between atoms: N_2  and  C_15
REMARK    2  A    between atoms: N_6  and  C_29
REMARK    3  A    between atoms: C_16  and  O_19
REMARK    4  A    between atoms: C_18  and  C_21
REMARK    5  A    between atoms: C_21  and  O_22
REMARK    6  A    between atoms: O_22  and  P_23
REMARK    7  A    between atoms: P_23  and  O_25
REMARK    8  A    between atoms: P_23  and  O_27
REMARK    9  A    between atoms: C_29  and  C_30
REMARK                            x       y       z     vdW  Elec       q    Type
REMARK                         _______ _______ _______ _____ _____    ______ ____
ROOT
ATOM      1  O   UNL     1      37.557 -22.541 -14.191  0.00  0.00    -0.208 OA
ATOM      2  N   UNL     1      33.417 -24.341 -13.964  0.00  0.00    -0.209 NA
ATOM      3  N   UNL     1      34.039 -23.296 -16.070  0.00  0.00    -0.279 N 
ATOM      4  N   UNL     1      35.336 -23.957 -12.866  0.00  0.00    -0.241 NA
ATOM      5  N   UNL     1      36.252 -22.366 -16.098  0.00  0.00    -0.301 NA
ATOM      6  N   UNL     1      34.834 -22.262 -17.950  0.00  0.00    -0.292 N 
ATOM      7  C   UNL     1      34.244 -23.683 -14.808  0.00  0.00    +0.191 C 
ATOM      8  C   UNL     1      34.127 -24.485 -12.793  0.00  0.00    +0.205 C 
ATOM      9  C   UNL     1      35.407 -23.453 -14.134  0.00  0.00    +0.183 C 
ATOM     10  C   UNL     1      35.097 -22.628 -16.682  0.00  0.00    +0.248 C 
ATOM     11  C   UNL     1      36.503 -22.757 -14.777  0.00  0.00    +0.224 C 
ATOM     12  H   UNL     1      33.190 -23.472 -16.539  0.00  0.00    +0.152 HD
ATOM     13  H   UNL     1      33.954 -22.484 -18.331  0.00  0.00    +0.151 HD
ENDROOT
BRANCH   2  15
ATOM     14  O   UNL     1      31.478 -24.297 -15.453  0.00  0.00    -0.338 OA
ATOM     15  C   UNL     1      32.013 -24.825 -14.224  0.00  0.00    +0.182 C 
ATOM     16  C   UNL     1      29.713 -24.434 -13.864  0.00  0.00    +0.144 C 
ATOM     17  C   UNL     1      31.031 -24.432 -13.125  0.00  0.00    +0.079 C 
ATOM     18  C   UNL     1      30.098 -23.932 -15.251  0.00  0.00    +0.174 C 
BRANCH  16  19
ATOM     19  O   UNL     1      29.248 -25.779 -13.955  0.00  0.00    -0.382 OA
ATOM     20  H   UNL     1      28.615 -25.950 -13.239  0.00  0.00    +0.210 HD
ENDBRANCH  16  19
BRANCH  18  21
ATOM     21  C   UNL     1      29.989 -22.419 -15.379  0.00  0.00    +0.186 C 
BRANCH  21  22
ATOM     22  O   UNL     1      29.257 -22.115 -16.554  0.00  0.00    -0.271 OA
BRANCH  22  23
ATOM     23  P   UNL     1      27.662 -22.392 -16.564  0.00  0.00    +0.473 P 
ATOM     24  O   UNL     1      27.056 -22.654 -15.216  0.00  0.00    -0.227 OA
BRANCH  23  25
ATOM     25  O   UNL     1      27.075 -21.100 -17.337  0.00  0.00    -0.303 OA
ATOM     26  H   UNL     1      27.749 -20.751 -17.942  0.00  0.00    +0.222 HD
ENDBRANCH  23  25
BRANCH  23  27
ATOM     27  O   UNL     1      27.487 -23.584 -17.644  0.00  0.00    -0.303 OA
ATOM     28  H   UNL     1      28.284 -24.137 -17.647  0.00  0.00    +0.222 HD
ENDBRANCH  23  27
ENDBRANCH  22  23
ENDBRANCH  21  22
ENDBRANCH  18  21
ENDBRANCH   2  15
BRANCH   6  29
ATOM     29  C   UNL     1      35.786 -21.557 -18.779  0.00  0.00    +0.117 C 
BRANCH  29  30
ATOM     30  C   UNL     1      35.081 -20.717 -19.799  0.00  0.00    -0.003 C 
ATOM     31  C   UNL     1      35.772 -19.820 -20.630  0.00  0.00    -0.002 C 
ATOM     32  C   UNL     1      35.048 -19.053 -21.574  0.00  0.00    -0.000 C 
ATOM     33  C   UNL     1      33.697 -20.857 -19.898  0.00  0.00    -0.003 C 
ATOM     34  C   UNL     1      37.165 -19.665 -20.544  0.00  0.00    -0.000 C 
ATOM     35  C   UNL     1      33.654 -19.207 -21.659  0.00  0.00    -0.000 C 
ATOM     36  C   UNL     1      32.985 -20.104 -20.826  0.00  0.00    -0.000 C 
ATOM     37  C   UNL     1      35.738 -18.155 -22.404  0.00  0.00    -0.000 C 
ATOM     38  C   UNL     1      37.835 -18.769 -21.377  0.00  0.00    -0.000 C 
ATOM     39  C   UNL     1      37.122 -18.016 -22.306  0.00  0.00    -0.000 C 
ENDBRANCH  29  30
ENDBRANCH   6  29
TORSDOF 9
ENDMDL
MODEL 2
REMARK VINA RESULT:     -11.3      3.454      6.731
REMARK  Name = 46937134
REMARK  9 active torsions:
REMARK  status: ('A' for Active; 'I' for Inactive)
REMARK    1  A    between atoms: N_2  and  C_15
REMARK    2  A    between atoms: N_6  and  C_29
REMARK    3  A    between atoms: C_16  and  O_19
REMARK    4  A    between atoms: C_18  and  C_21
REMARK    5  A    between atoms: C_21  and  O_22
REMARK    6  A    between atoms: O_22  and  P_23
REMARK    7  A    between atoms: P_23  and  O_25
REMARK    8  A    between atoms: P_23  and  O_27
REMARK    9  A    between atoms: C_29  and  C_30
REMARK                            x       y       z     vdW  Elec       q    Type
REMARK                         _______ _______ _______ _____ _____    ______ ____
ROOT
ATOM      1  O   UNL     1      31.242 -22.901 -17.231  0.00  0.00    -0.208 OA
ATOM      2  N   UNL     1      34.939 -23.446 -14.689  0.00  0.00    -0.209 NA
ATOM      3  N   UNL     1      35.256 -22.410 -16.867  0.00  0.00    -0.279 N 
ATOM      4  N   UNL     1      32.720 -23.747 -14.825  0.00  0.00    -0.241 NA
ATOM      5  N   UNL     1      33.240 -22.163 -18.147  0.00  0.00    -0.301 NA
ATOM      6  N   UNL     1      35.317 -21.461 -18.948  0.00  0.00    -0.292 N 
ATOM      7  C   UNL     1      34.537 -22.969 -15.889  0.00  0.00    +0.191 C 
ATOM      8  C   UNL     1      33.797 -23.910 -14.076  0.00  0.00    +0.205 C 
ATOM      9  C   UNL     1      33.188 -23.155 -15.964  0.00  0.00    +0.183 C 
ATOM     10  C   UNL     1      34.543 -22.017 -17.998  0.00  0.00    +0.248 C 
ATOM     11  C   UNL     1      32.454 -22.744 -17.144  0.00  0.00    +0.224 C 
ATOM     12  H   UNL     1      36.230 -22.284 -16.793  0.00  0.00    +0.152 HD
ATOM     13  H   UNL     1      36.283 -21.380 -18.779  0.00  0.00    +0.151 HD
ENDROOT
BRANCH   2  15
ATOM     14  O   UNL     1      37.285 -24.037 -15.045  0.00  0.00    -0.338 OA
ATOM     15  C   UNL     1      36.335 -23.476 -14.120  0.00  0.00    +0.182 C 
ATOM     16  C   UNL     1      37.900 -24.700 -12.846  0.00  0.00    +0.144 C 
ATOM     17  C   UNL     1      36.442 -24.302 -12.841  0.00  0.00    +0.079 C 
ATOM     18  C   UNL     1      38.198 -24.891 -14.328  0.00  0.00    +0.174 C 
BRANCH  16  19
ATOM     19  O   UNL     1      38.668 -23.611 -12.340  0.00  0.00    -0.382 OA
ATOM     20  H   UNL     1      38.674 -23.642 -11.370  0.00  0.00    +0.210 HD
ENDBRANCH  16  19
BRANCH  18  21
ATOM     21  C   UNL     1      37.967 -26.322 -14.794  0.00  0.00    +0.186 C 
BRANCH  21  22
ATOM     22  O   UNL     1      39.129 -27.084 -14.515  0.00  0.00    -0.271 OA
BRANCH  22  23
ATOM     23  P   UNL     1      40.195 -27.333 -15.709  0.00  0.00    +0.473 P 
ATOM     24  O   UNL     1      41.296 -28.298 -15.383  0.00  0.00    -0.227 OA
BRANCH  23  25
ATOM     25  O   UNL     1      39.253 -27.765 -16.950  0.00  0.00    -0.303 OA
ATOM     26  H   UNL     1      39.725 -28.404 -17.507  0.00  0.00    +0.222 HD
ENDBRANCH  23  25
BRANCH  23  27
ATOM     27  O   UNL     1      40.677 -25.842 -16.109  0.00  0.00    -0.303 OA
ATOM     28  H   UNL     1      41.277 -25.503 -15.427  0.00  0.00    +0.222 HD
ENDBRANCH  23  27
ENDBRANCH  22  23
ENDBRANCH  21  22
ENDBRANCH  18  21
ENDBRANCH   2  15
BRANCH   6  29
ATOM     29  C   UNL     1      34.794 -20.979 -20.206  0.00  0.00    +0.117 C 
BRANCH  29  30
ATOM     30  C   UNL     1      35.697 -19.939 -20.793  0.00  0.00    -0.003 C 
ATOM     31  C   UNL     1      35.370 -19.247 -21.970  0.00  0.00    -0.002 C 
ATOM     32  C   UNL     1      36.267 -18.275 -22.475  0.00  0.00    -0.000 C 
ATOM     33  C   UNL     1      36.891 -19.675 -20.122  0.00  0.00    -0.003 C 
ATOM     34  C   UNL     1      34.172 -19.498 -22.660  0.00  0.00    -0.000 C 
ATOM     35  C   UNL     1      37.465 -18.024 -21.787  0.00  0.00    -0.000 C 
ATOM     36  C   UNL     1      37.773 -18.720 -20.617  0.00  0.00    -0.000 C 
ATOM     37  C   UNL     1      35.940 -17.584 -23.654  0.00  0.00    -0.000 C 
ATOM     38  C   UNL     1      33.863 -18.803 -23.829  0.00  0.00    -0.000 C 
ATOM     39  C   UNL     1      34.746 -17.847 -24.324  0.00  0.00    -0.000 C 
ENDBRANCH  29  30
ENDBRANCH   6  29
TORSDOF 9
ENDMDL
MODEL 3
REMARK VINA RESULT:     -11.3      2.970      6.103
REMARK  Name = 46937134
REMARK  9 active torsions:
REMARK  status: ('A' for Active; 'I' for Inactive)
REMARK    1  A    between atoms: N_2  and  C_15
REMARK    2  A    between atoms: N_6  and  C_29
REMARK    3  A    between atoms: C_16  and  O_19
REMARK    4  A    between atoms: C_18  and  C_21
REMARK    5  A    between atoms: C_21  and  O_22
REMARK    6  A    between atoms: O_22  and  P_23
REMARK    7  A    between atoms: P_23  and  O_25
REMARK    8  A    between atoms: P_23  and  O_27
REMARK    9  A    between atoms: C_29  and  C_30
REMARK                            x       y       z     vdW  Elec       q    Type
REMARK                         _______ _______ _______ _____ _____    ______ ____
ROOT
ATOM      1  O   UNL     1      31.199 -22.334 -16.992  0.00  0.00    -0.208 OA
ATOM      2  N   UNL     1      35.104 -23.987 -15.428  0.00  0.00    -0.209 NA
ATOM      3  N   UNL     1      35.211 -22.700 -17.489  0.00  0.00    -0.279 N 
ATOM      4  N   UNL     1      32.891 -23.824 -15.092  0.00  0.00    -0.241 NA
ATOM      5  N   UNL     1      33.091 -21.864 -18.244  0.00  0.00    -0.301 NA
ATOM      6  N   UNL     1      35.075 -21.463 -19.408  0.00  0.00    -0.292 N 
ATOM      7  C   UNL     1      34.592 -23.257 -16.444  0.00  0.00    +0.191 C 
ATOM      8  C   UNL     1      34.030 -24.311 -14.629  0.00  0.00    +0.205 C 
ATOM      9  C   UNL     1      33.247 -23.162 -16.233  0.00  0.00    +0.183 C 
ATOM     10  C   UNL     1      34.398 -22.001 -18.377  0.00  0.00    +0.248 C 
ATOM     11  C   UNL     1      32.408 -22.432 -17.162  0.00  0.00    +0.224 C 
ATOM     12  H   UNL     1      36.184 -22.781 -17.623  0.00  0.00    +0.152 HD
ATOM     13  H   UNL     1      36.048 -21.600 -19.454  0.00  0.00    +0.151 HD
ENDROOT
BRANCH   2  15
ATOM     14  O   UNL     1      36.655 -25.676 -14.577  0.00  0.00    -0.338 OA
ATOM     15  C   UNL     1      36.541 -24.379 -15.195  0.00  0.00    +0.182 C 
ATOM     16  C   UNL     1      38.379 -24.281 -13.717  0.00  0.00    +0.144 C 
ATOM     17  C   UNL     1      37.288 -23.405 -14.289  0.00  0.00    +0.079 C 
ATOM     18  C   UNL     1      37.693 -25.635 -13.578  0.00  0.00    +0.174 C 
BRANCH  16  19
ATOM     19  O   UNL     1      39.432 -24.374 -14.673  0.00  0.00    -0.382 OA
ATOM     20  H   UNL     1      39.762 -23.485 -14.879  0.00  0.00    +0.210 HD
ENDBRANCH  16  19
BRANCH  18  21
ATOM     21  C   UNL     1      37.041 -25.826 -12.215  0.00  0.00    +0.186 C 
BRANCH  21  22
ATOM     22  O   UNL     1      37.544 -24.841 -11.329  0.00  0.00    -0.271 OA
BRANCH  22  23
ATOM     23  P   UNL     1      36.515 -23.744 -10.728  0.00  0.00    +0.473 P 
ATOM     24  O   UNL     1      35.171 -23.705 -11.394  0.00  0.00    -0.227 OA
BRANCH  23  25
ATOM     25  O   UNL     1      36.485 -24.103  -9.152  0.00  0.00    -0.303 OA
ATOM     26  H   UNL     1      36.183 -25.018  -9.034  0.00  0.00    +0.222 HD
ENDBRANCH  23  25
BRANCH  23  27
ATOM     27  O   UNL     1      37.354 -22.363 -10.779  0.00  0.00    -0.303 OA
ATOM     28  H   UNL     1      37.540 -22.132 -11.703  0.00  0.00    +0.222 HD
ENDBRANCH  23  27
ENDBRANCH  22  23
ENDBRANCH  21  22
ENDBRANCH  18  21
ENDBRANCH   2  15
BRANCH   6  29
ATOM     29  C   UNL     1      34.437 -20.694 -20.453  0.00  0.00    +0.117 C 
BRANCH  29  30
ATOM     30  C   UNL     1      35.404 -19.731 -21.069  0.00  0.00    -0.003 C 
ATOM     31  C   UNL     1      35.134 -19.080 -22.284  0.00  0.00    -0.002 C 
ATOM     32  C   UNL     1      36.090 -18.181 -22.815  0.00  0.00    -0.000 C 
ATOM     33  C   UNL     1      36.598 -19.498 -20.387  0.00  0.00    -0.003 C 
ATOM     34  C   UNL     1      33.938 -19.302 -22.985  0.00  0.00    -0.000 C 
ATOM     35  C   UNL     1      37.287 -17.960 -22.115  0.00  0.00    -0.000 C 
ATOM     36  C   UNL     1      37.538 -18.614 -20.908  0.00  0.00    -0.000 C 
ATOM     37  C   UNL     1      35.821 -17.530 -24.030  0.00  0.00    -0.000 C 
ATOM     38  C   UNL     1      33.687 -18.647 -24.191  0.00  0.00    -0.000 C 
ATOM     39  C   UNL     1      34.627 -17.763 -24.712  0.00  0.00    -0.000 C 
ENDBRANCH  29  30
ENDBRANCH   6  29
TORSDOF 9
ENDMDL
MODEL 4
REMARK VINA RESULT:     -10.0      2.468      5.376
REMARK  Name = 46937134
REMARK  9 active torsions:
REMARK  status: ('A' for Active; 'I' for Inactive)
REMARK    1  A    between atoms: N_2  and  C_15
REMARK    2  A    between atoms: N_6  and  C_29
REMARK    3  A    between atoms: C_16  and  O_19
REMARK    4  A    between atoms: C_18  and  C_21
REMARK    5  A    between atoms: C_21  and  O_22
REMARK    6  A    between atoms: O_22  and  P_23
REMARK    7  A    between atoms: P_23  and  O_25
REMARK    8  A    between atoms: P_23  and  O_27
REMARK    9  A    between atoms: C_29  and  C_30
REMARK                            x       y       z     vdW  Elec       q    Type
REMARK                         _______ _______ _______ _____ _____    ______ ____
ROOT
ATOM      1  O   UNL     1      30.110 -22.076 -16.841  0.00  0.00    -0.208 OA
ATOM      2  N   UNL     1      33.254 -24.355 -14.529  0.00  0.00    -0.209 NA
ATOM      3  N   UNL     1      33.969 -23.312 -16.607  0.00  0.00    -0.279 N 
ATOM      4  N   UNL     1      31.107 -23.706 -14.596  0.00  0.00    -0.241 NA
ATOM      5  N   UNL     1      32.234 -22.126 -17.766  0.00  0.00    -0.301 NA
ATOM      6  N   UNL     1      34.417 -22.253 -18.585  0.00  0.00    -0.292 N 
ATOM      7  C   UNL     1      33.084 -23.630 -15.658  0.00  0.00    +0.191 C 
ATOM      8  C   UNL     1      32.022 -24.374 -13.915  0.00  0.00    +0.205 C 
ATOM      9  C   UNL     1      31.778 -23.239 -15.691  0.00  0.00    +0.183 C 
ATOM     10  C   UNL     1      33.482 -22.543 -17.661  0.00  0.00    +0.248 C 
ATOM     11  C   UNL     1      31.278 -22.438 -16.792  0.00  0.00    +0.224 C 
ATOM     12  H   UNL     1      34.909 -23.605 -16.563  0.00  0.00    +0.152 HD
ATOM     13  H   UNL     1      35.331 -22.593 -18.452  0.00  0.00    +0.151 HD
ENDROOT
BRANCH   2  15
ATOM     14  O   UNL     1      35.115 -24.279 -12.944  0.00  0.00    -0.338 OA
ATOM     15  C   UNL     1      34.514 -25.014 -14.027  0.00  0.00    +0.182 C 
ATOM     16  C   UNL     1      36.853 -25.205 -14.278  0.00  0.00    +0.144 C 
ATOM     17  C   UNL     1      35.587 -25.150 -15.102  0.00  0.00    +0.079 C 
ATOM     18  C   UNL     1      36.547 -24.267 -13.117  0.00  0.00    +0.174 C 
BRANCH  16  19
ATOM     19  O   UNL     1      37.016 -26.534 -13.788  0.00  0.00    -0.382 OA
ATOM     20  H   UNL     1      36.926 -27.163 -14.522  0.00  0.00    +0.210 HD
ENDBRANCH  16  19
BRANCH  18  21
ATOM     21  C   UNL     1      36.974 -22.831 -13.393  0.00  0.00    +0.186 C 
BRANCH  21  22
ATOM     22  O   UNL     1      37.720 -22.804 -14.598  0.00  0.00    -0.271 OA
BRANCH  22  23
ATOM     23  P   UNL     1      37.131 -21.968 -15.853  0.00  0.00    +0.473 P 
ATOM     24  O   UNL     1      37.019 -22.743 -17.133  0.00  0.00    -0.227 OA
BRANCH  23  25
ATOM     25  O   UNL     1      35.733 -21.392 -15.279  0.00  0.00    -0.303 OA
ATOM     26  H   UNL     1      35.222 -22.117 -14.885  0.00  0.00    +0.222 HD
ENDBRANCH  23  25
BRANCH  23  27
ATOM     27  O   UNL     1      38.076 -20.657 -15.917  0.00  0.00    -0.303 OA
ATOM     28  H   UNL     1      37.975 -20.146 -15.099  0.00  0.00    +0.222 HD
ENDBRANCH  23  27
ENDBRANCH  22  23
ENDBRANCH  21  22
ENDBRANCH  18  21
ENDBRANCH   2  15
BRANCH   6  29
ATOM     29  C   UNL     1      34.138 -21.467 -19.765  0.00  0.00    +0.117 C 
BRANCH  29  30
ATOM     30  C   UNL     1      35.296 -20.576 -20.094  0.00  0.00    -0.003 C 
ATOM     31  C   UNL     1      35.281 -19.714 -21.203  0.00  0.00    -0.002 C 
ATOM     32  C   UNL     1      36.407 -18.897 -21.461  0.00  0.00    -0.000 C 
ATOM     33  C   UNL     1      36.406 -20.630 -19.251  0.00  0.00    -0.003 C 
ATOM     34  C   UNL     1      34.173 -19.646 -22.063  0.00  0.00    -0.000 C 
ATOM     35  C   UNL     1      37.516 -18.966 -20.602  0.00  0.00    -0.000 C 
ATOM     36  C   UNL     1      37.513 -19.827 -19.504  0.00  0.00    -0.000 C 
ATOM     37  C   UNL     1      36.393 -18.035 -22.570  0.00  0.00    -0.000 C 
ATOM     38  C   UNL     1      34.174 -18.784 -23.160  0.00  0.00    -0.000 C 
ATOM     39  C   UNL     1      35.282 -17.981 -23.413  0.00  0.00    -0.000 C 
ENDBRANCH  29  30
ENDBRANCH   6  29
TORSDOF 9
ENDMDL
MODEL 5
REMARK VINA RESULT:      -9.9      3.908      6.681
REMARK  Name = 46937134
REMARK  9 active torsions:
REMARK  status: ('A' for Active; 'I' for Inactive)
REMARK    1  A    between atoms: N_2  and  C_15
REMARK    2  A    between atoms: N_6  and  C_29
REMARK    3  A    between atoms: C_16  and  O_19
REMARK    4  A    between atoms: C_18  and  C_21
REMARK    5  A    between atoms: C_21  and  O_22
REMARK    6  A    between atoms: O_22  and  P_23
REMARK    7  A    between atoms: P_23  and  O_25
REMARK    8  A    between atoms: P_23  and  O_27
REMARK    9  A    between atoms: C_29  and  C_30
REMARK                            x       y       z     vdW  Elec       q    Type
REMARK                         _______ _______ _______ _____ _____    ______ ____
ROOT
ATOM      1  O   UNL     1      31.855 -20.125 -20.978  0.00  0.00    -0.208 OA
ATOM      2  N   UNL     1      34.872 -21.998 -18.181  0.00  0.00    -0.209 NA
ATOM      3  N   UNL     1      35.742 -20.466 -19.858  0.00  0.00    -0.279 N 
ATOM      4  N   UNL     1      32.705 -21.856 -18.747  0.00  0.00    -0.241 NA
ATOM      5  N   UNL     1      34.070 -19.522 -21.299  0.00  0.00    -0.301 NA
ATOM      6  N   UNL     1      36.335 -18.998 -21.511  0.00  0.00    -0.292 N 
ATOM      7  C   UNL     1      34.780 -21.142 -19.224  0.00  0.00    +0.191 C 
ATOM      8  C   UNL     1      33.583 -22.407 -17.926  0.00  0.00    +0.205 C 
ATOM      9  C   UNL     1      33.461 -21.060 -19.562  0.00  0.00    +0.183 C 
ATOM     10  C   UNL     1      35.325 -19.654 -20.910  0.00  0.00    +0.248 C 
ATOM     11  C   UNL     1      33.034 -20.213 -20.658  0.00  0.00    +0.224 C 
ATOM     12  H   UNL     1      36.690 -20.539 -19.598  0.00  0.00    +0.152 HD
ATOM     13  H   UNL     1      37.251 -19.138 -21.176  0.00  0.00    +0.151 HD
ENDROOT
BRANCH   2  15
ATOM     14  O   UNL     1      35.833 -23.469 -16.481  0.00  0.00    -0.338 OA
ATOM     15  C   UNL     1      36.111 -22.430 -17.438  0.00  0.00    +0.182 C 
ATOM     16  C   UNL     1      37.505 -22.043 -15.573  0.00  0.00    +0.144 C 
ATOM     17  C   UNL     1      36.768 -21.294 -16.659  0.00  0.00    +0.079 C 
ATOM     18  C   UNL     1      36.577 -23.213 -15.272  0.00  0.00    +0.174 C 
BRANCH  16  19
ATOM     19  O   UNL     1      38.731 -22.531 -16.113  0.00  0.00    -0.382 OA
ATOM     20  H   UNL     1      38.948 -23.384 -15.703  0.00  0.00    +0.210 HD
ENDBRANCH  16  19
BRANCH  18  21
ATOM     21  C   UNL     1      35.579 -22.902 -14.164  0.00  0.00    +0.186 C 
BRANCH  21  22
ATOM     22  O   UNL     1      36.199 -23.151 -12.914  0.00  0.00    -0.271 OA
BRANCH  22  23
ATOM     23  P   UNL     1      35.600 -24.326 -11.975  0.00  0.00    +0.473 P 
ATOM     24  O   UNL     1      35.644 -24.044 -10.502  0.00  0.00    -0.227 OA
BRANCH  23  25
ATOM     25  O   UNL     1      34.119 -24.555 -12.583  0.00  0.00    -0.303 OA
ATOM     26  H   UNL     1      34.108 -24.287 -13.516  0.00  0.00    +0.222 HD
ENDBRANCH  23  25
BRANCH  23  27
ATOM     27  O   UNL     1      36.406 -25.645 -12.451  0.00  0.00    -0.303 OA
ATOM     28  H   UNL     1      36.492 -25.639 -13.417  0.00  0.00    +0.222 HD
ENDBRANCH  23  27
ENDBRANCH  22  23
ENDBRANCH  21  22
ENDBRANCH  18  21
ENDBRANCH   2  15
BRANCH   6  29
ATOM     29  C   UNL     1      36.138 -18.100 -22.625  0.00  0.00    +0.117 C 
BRANCH  29  30
ATOM     30  C   UNL     1      35.523 -16.813 -22.167  0.00  0.00    -0.003 C 
ATOM     31  C   UNL     1      34.938 -15.906 -23.065  0.00  0.00    -0.002 C 
ATOM     32  C   UNL     1      34.374 -14.706 -22.569  0.00  0.00    -0.000 C 
ATOM     33  C   UNL     1      35.550 -16.542 -20.799  0.00  0.00    -0.003 C 
ATOM     34  C   UNL     1      34.901 -16.162 -24.445  0.00  0.00    -0.000 C 
ATOM     35  C   UNL     1      34.412 -14.450 -21.189  0.00  0.00    -0.000 C 
ATOM     36  C   UNL     1      34.996 -15.363 -20.311  0.00  0.00    -0.000 C 
ATOM     37  C   UNL     1      33.790 -13.798 -23.467  0.00  0.00    -0.000 C 
ATOM     38  C   UNL     1      34.317 -15.249 -25.324  0.00  0.00    -0.000 C 
ATOM     39  C   UNL     1      33.762 -14.070 -24.835  0.00  0.00    -0.000 C 
ENDBRANCH  29  30
ENDBRANCH   6  29
TORSDOF 9
ENDMDL
MODEL 6
REMARK VINA RESULT:      -9.8     11.159     14.331
REMARK  Name = 46937134
REMARK  9 active torsions:
REMARK  status: ('A' for Active; 'I' for Inactive)
REMARK    1  A    between atoms: N_2  and  C_15
REMARK    2  A    between atoms: N_6  and  C_29
REMARK    3  A    between atoms: C_16  and  O_19
REMARK    4  A    between atoms: C_18  and  C_21
REMARK    5  A    between atoms: C_21  and  O_22
REMARK    6  A    between atoms: O_22  and  P_23
REMARK    7  A    between atoms: P_23  and  O_25
REMARK    8  A    between atoms: P_23  and  O_27
REMARK    9  A    between atoms: C_29  and  C_30
REMARK                            x       y       z     vdW  Elec       q    Type
REMARK                         _______ _______ _______ _____ _____    ______ ____
ROOT
ATOM      1  O   UNL     1      31.765 -10.095 -18.363  0.00  0.00    -0.208 OA
ATOM      2  N   UNL     1      32.633 -12.546 -22.060  0.00  0.00    -0.209 NA
ATOM      3  N   UNL     1      32.391 -10.147 -22.374  0.00  0.00    -0.279 N 
ATOM      4  N   UNL     1      32.296 -12.590 -19.842  0.00  0.00    -0.241 NA
ATOM      5  N   UNL     1      31.930  -8.927 -20.358  0.00  0.00    -0.301 NA
ATOM      6  N   UNL     1      32.124  -7.875 -22.433  0.00  0.00    -0.292 N 
ATOM      7  C   UNL     1      32.417 -11.274 -21.657  0.00  0.00    +0.191 C 
ATOM      8  C   UNL     1      32.550 -13.313 -20.919  0.00  0.00    +0.205 C 
ATOM      9  C   UNL     1      32.213 -11.308 -20.308  0.00  0.00    +0.183 C 
ATOM     10  C   UNL     1      32.138  -8.977 -21.661  0.00  0.00    +0.248 C 
ATOM     11  C   UNL     1      31.950 -10.087 -19.574  0.00  0.00    +0.224 C 
ATOM     12  H   UNL     1      32.541 -10.144 -23.347  0.00  0.00    +0.152 HD
ATOM     13  H   UNL     1      32.285  -7.976 -23.399  0.00  0.00    +0.151 HD
ENDROOT
BRANCH   2  15
ATOM     14  O   UNL     1      33.102 -14.474 -23.490  0.00  0.00    -0.338 OA
ATOM     15  C   UNL     1      32.909 -13.047 -23.455  0.00  0.00    +0.182 C 
ATOM     16  C   UNL     1      34.560 -13.481 -25.085  0.00  0.00    +0.144 C 
ATOM     17  C   UNL     1      34.158 -12.429 -24.076  0.00  0.00    +0.079 C 
ATOM     18  C   UNL     1      34.186 -14.784 -24.389  0.00  0.00    +0.174 C 
BRANCH  16  19
ATOM     19  O   UNL     1      33.761 -13.316 -26.253  0.00  0.00    -0.382 OA
ATOM     20  H   UNL     1      33.203 -12.528 -26.154  0.00  0.00    +0.210 HD
ENDBRANCH  16  19
BRANCH  18  21
ATOM     21  C   UNL     1      35.330 -15.360 -23.565  0.00  0.00    +0.186 C 
BRANCH  21  22
ATOM     22  O   UNL     1      35.304 -16.773 -23.679  0.00  0.00    -0.271 OA
BRANCH  22  23
ATOM     23  P   UNL     1      35.698 -17.660 -22.383  0.00  0.00    +0.473 P 
ATOM     24  O   UNL     1      35.528 -16.964 -21.064  0.00  0.00    -0.227 OA
BRANCH  23  25
ATOM     25  O   UNL     1      34.804 -18.993 -22.572  0.00  0.00    -0.303 OA
ATOM     26  H   UNL     1      33.863 -18.755 -22.566  0.00  0.00    +0.222 HD
ENDBRANCH  23  25
BRANCH  23  27
ATOM     27  O   UNL     1      37.198 -18.167 -22.709  0.00  0.00    -0.303 OA
ATOM     28  H   UNL     1      37.162 -18.894 -23.350  0.00  0.00    +0.222 HD
ENDBRANCH  23  27
ENDBRANCH  22  23
ENDBRANCH  21  22
ENDBRANCH  18  21
ENDBRANCH   2  15
BRANCH   6  29
ATOM     29  C   UNL     1      31.882  -6.550 -21.909  0.00  0.00    +0.117 C 
BRANCH  29  30
ATOM     30  C   UNL     1      32.122  -5.511 -22.960  0.00  0.00    -0.003 C 
ATOM     31  C   UNL     1      33.267  -5.526 -23.773  0.00  0.00    -0.002 C 
ATOM     32  C   UNL     1      33.437  -4.514 -24.749  0.00  0.00    -0.000 C 
ATOM     33  C   UNL     1      31.157  -4.515 -23.108  0.00  0.00    -0.003 C 
ATOM     34  C   UNL     1      34.249  -6.520 -23.639  0.00  0.00    -0.000 C 
ATOM     35  C   UNL     1      32.456  -3.518 -24.882  0.00  0.00    -0.000 C 
ATOM     36  C   UNL     1      31.323  -3.521 -24.067  0.00  0.00    -0.000 C 
ATOM     37  C   UNL     1      34.582  -4.527 -25.561  0.00  0.00    -0.000 C 
ATOM     38  C   UNL     1      35.381  -6.519 -24.454  0.00  0.00    -0.000 C 
ATOM     39  C   UNL     1      35.547  -5.524 -25.414  0.00  0.00    -0.000 C 
ENDBRANCH  29  30
ENDBRANCH   6  29
TORSDOF 9
ENDMDL
MODEL 7
REMARK VINA RESULT:      -9.6     12.064     15.263
REMARK  Name = 46937134
REMARK  9 active torsions:
REMARK  status: ('A' for Active; 'I' for Inactive)
REMARK    1  A    between atoms: N_2  and  C_15
REMARK    2  A    between atoms: N_6  and  C_29
REMARK    3  A    between atoms: C_16  and  O_19
REMARK    4  A    between atoms: C_18  and  C_21
REMARK    5  A    between atoms: C_21  and  O_22
REMARK    6  A    between atoms: O_22  and  P_23
REMARK    7  A    between atoms: P_23  and  O_25
REMARK    8  A    between atoms: P_23  and  O_27
REMARK    9  A    between atoms: C_29  and  C_30
REMARK                            x       y       z     vdW  Elec       q    Type
REMARK                         _______ _______ _______ _____ _____    ______ ____
ROOT
ATOM      1  O   UNL     1      31.944  -8.175 -19.130  0.00  0.00    -0.208 OA
ATOM      2  N   UNL     1      32.519 -11.597 -22.025  0.00  0.00    -0.209 NA
ATOM      3  N   UNL     1      33.014  -9.366 -22.860  0.00  0.00    -0.279 N 
ATOM      4  N   UNL     1      31.915 -11.007 -19.946  0.00  0.00    -0.241 NA
ATOM      5  N   UNL     1      32.679  -7.613 -21.255  0.00  0.00    -0.301 NA
ATOM      6  N   UNL     1      33.418  -7.187 -23.428  0.00  0.00    -0.292 N 
ATOM      7  C   UNL     1      32.629 -10.252 -21.937  0.00  0.00    +0.191 C 
ATOM      8  C   UNL     1      32.081 -12.013 -20.788  0.00  0.00    +0.205 C 
ATOM      9  C   UNL     1      32.260  -9.901 -20.671  0.00  0.00    +0.183 C 
ATOM     10  C   UNL     1      33.021  -8.033 -22.459  0.00  0.00    +0.248 C 
ATOM     11  C   UNL     1      32.270  -8.511 -20.261  0.00  0.00    +0.224 C 
ATOM     12  H   UNL     1      33.277  -9.640 -23.769  0.00  0.00    +0.152 HD
ATOM     13  H   UNL     1      33.660  -7.559 -24.307  0.00  0.00    +0.151 HD
ENDROOT
BRANCH   2  15
ATOM     14  O   UNL     1      32.840 -13.873 -22.859  0.00  0.00    -0.338 OA
ATOM     15  C   UNL     1      32.809 -12.478 -23.215  0.00  0.00    +0.182 C 
ATOM     16  C   UNL     1      34.483 -13.489 -24.536  0.00  0.00    +0.144 C 
ATOM     17  C   UNL     1      34.150 -12.173 -23.873  0.00  0.00    +0.079 C 
ATOM     18  C   UNL     1      33.927 -14.516 -23.556  0.00  0.00    +0.174 C 
BRANCH  16  19
ATOM     19  O   UNL     1      33.769 -13.569 -25.767  0.00  0.00    -0.382 OA
ATOM     20  H   UNL     1      33.193 -12.792 -25.858  0.00  0.00    +0.210 HD
ENDBRANCH  16  19
BRANCH  18  21
ATOM     21  C   UNL     1      34.953 -14.956 -22.521  0.00  0.00    +0.186 C 
BRANCH  21  22
ATOM     22  O   UNL     1      35.735 -16.000 -23.074  0.00  0.00    -0.271 OA
BRANCH  22  23
ATOM     23  P   UNL     1      35.723 -17.445 -22.344  0.00  0.00    +0.473 P 
ATOM     24  O   UNL     1      35.509 -17.403 -20.859  0.00  0.00    -0.227 OA
BRANCH  23  25
ATOM     25  O   UNL     1      34.598 -18.259 -23.172  0.00  0.00    -0.303 OA
ATOM     26  H   UNL     1      35.006 -19.029 -23.601  0.00  0.00    +0.222 HD
ENDBRANCH  23  25
BRANCH  23  27
ATOM     27  O   UNL     1      37.107 -18.129 -22.824  0.00  0.00    -0.303 OA
ATOM     28  H   UNL     1      36.958 -19.071 -23.003  0.00  0.00    +0.222 HD
ENDBRANCH  23  27
ENDBRANCH  22  23
ENDBRANCH  21  22
ENDBRANCH  18  21
ENDBRANCH   2  15
BRANCH   6  29
ATOM     29  C   UNL     1      33.503  -5.757 -23.238  0.00  0.00    +0.117 C 
BRANCH  29  30
ATOM     30  C   UNL     1      33.940  -5.079 -24.499  0.00  0.00    -0.003 C 
ATOM     31  C   UNL     1      33.203  -4.031 -25.076  0.00  0.00    -0.002 C 
ATOM     32  C   UNL     1      33.670  -3.432 -26.270  0.00  0.00    -0.000 C 
ATOM     33  C   UNL     1      35.120  -5.528 -25.091  0.00  0.00    -0.003 C 
ATOM     34  C   UNL     1      32.013  -3.566 -24.494  0.00  0.00    -0.000 C 
ATOM     35  C   UNL     1      34.860  -3.898 -26.853  0.00  0.00    -0.000 C 
ATOM     36  C   UNL     1      35.580  -4.939 -26.265  0.00  0.00    -0.000 C 
ATOM     37  C   UNL     1      32.933  -2.385 -26.847  0.00  0.00    -0.000 C 
ATOM     38  C   UNL     1      31.293  -2.525 -25.081  0.00  0.00    -0.000 C 
ATOM     39  C   UNL     1      31.753  -1.935 -26.255  0.00  0.00    -0.000 C 
ENDBRANCH  29  30
ENDBRANCH   6  29
TORSDOF 9
ENDMDL
MODEL 8
REMARK VINA RESULT:      -9.5      6.930     10.744
REMARK  Name = 46937134
REMARK  9 active torsions:
REMARK  status: ('A' for Active; 'I' for Inactive)
REMARK    1  A    between atoms: N_2  and  C_15
REMARK    2  A    between atoms: N_6  and  C_29
REMARK    3  A    between atoms: C_16  and  O_19
REMARK    4  A    between atoms: C_18  and  C_21
REMARK    5  A    between atoms: C_21  and  O_22
REMARK    6  A    between atoms: O_22  and  P_23
REMARK    7  A    between atoms: P_23  and  O_25
REMARK    8  A    between atoms: P_23  and  O_27
REMARK    9  A    between atoms: C_29  and  C_30
REMARK                            x       y       z     vdW  Elec       q    Type
REMARK                         _______ _______ _______ _____ _____    ______ ____
ROOT
ATOM      1  O   UNL     1      34.362 -19.910 -24.754  0.00  0.00    -0.208 OA
ATOM      2  N   UNL     1      34.532 -15.438 -24.123  0.00  0.00    -0.209 NA
ATOM      3  N   UNL     1      35.623 -16.820 -22.444  0.00  0.00    -0.279 N 
ATOM      4  N   UNL     1      33.805 -17.098 -25.445  0.00  0.00    -0.241 NA
ATOM      5  N   UNL     1      35.480 -19.179 -22.860  0.00  0.00    -0.301 NA
ATOM      6  N   UNL     1      36.579 -18.309 -20.993  0.00  0.00    -0.292 N 
ATOM      7  C   UNL     1      34.929 -16.605 -23.565  0.00  0.00    +0.191 C 
ATOM      8  C   UNL     1      33.851 -15.790 -25.266  0.00  0.00    +0.205 C 
ATOM      9  C   UNL     1      34.484 -17.608 -24.374  0.00  0.00    +0.183 C 
ATOM     10  C   UNL     1      35.877 -18.153 -22.131  0.00  0.00    +0.248 C 
ATOM     11  C   UNL     1      34.752 -18.993 -24.042  0.00  0.00    +0.224 C 
ATOM     12  H   UNL     1      35.936 -16.080 -21.873  0.00  0.00    +0.152 HD
ATOM     13  H   UNL     1      36.845 -17.505 -20.492  0.00  0.00    +0.151 HD
ENDROOT
BRANCH   2  15
ATOM     14  O   UNL     1      34.545 -13.925 -22.201  0.00  0.00    -0.338 OA
ATOM     15  C   UNL     1      34.772 -14.037 -23.619  0.00  0.00    +0.182 C 
ATOM     16  C   UNL     1      33.823 -11.910 -23.236  0.00  0.00    +0.144 C 
ATOM     17  C   UNL     1      33.868 -13.001 -24.281  0.00  0.00    +0.079 C 
ATOM     18  C   UNL     1      33.859 -12.687 -21.926  0.00  0.00    +0.174 C 
BRANCH  16  19
ATOM     19  O   UNL     1      35.005 -11.120 -23.356  0.00  0.00    -0.382 OA
ATOM     20  H   UNL     1      35.772 -11.703 -23.469  0.00  0.00    +0.210 HD
ENDBRANCH  16  19
BRANCH  18  21
ATOM     21  C   UNL     1      32.469 -13.027 -21.406  0.00  0.00    +0.186 C 
BRANCH  21  22
ATOM     22  O   UNL     1      32.191 -12.204 -20.286  0.00  0.00    -0.271 OA
BRANCH  22  23
ATOM     23  P   UNL     1      31.541 -10.744 -20.542  0.00  0.00    +0.473 P 
ATOM     24  O   UNL     1      32.359  -9.829 -21.406  0.00  0.00    -0.227 OA
BRANCH  23  25
ATOM     25  O   UNL     1      30.073 -11.098 -21.121  0.00  0.00    -0.303 OA
ATOM     26  H   UNL     1      29.979 -10.726 -22.012  0.00  0.00    +0.222 HD
ENDBRANCH  23  25
BRANCH  23  27
ATOM     27  O   UNL     1      31.231 -10.195 -19.053  0.00  0.00    -0.303 OA
ATOM     28  H   UNL     1      30.295 -10.337 -18.844  0.00  0.00    +0.222 HD
ENDBRANCH  23  27
ENDBRANCH  22  23
ENDBRANCH  21  22
ENDBRANCH  18  21
ENDBRANCH   2  15
BRANCH   6  29
ATOM     29  C   UNL     1      36.957 -19.603 -20.474  0.00  0.00    +0.117 C 
BRANCH  29  30
ATOM     30  C   UNL     1      35.773 -20.305 -19.885  0.00  0.00    -0.003 C 
ATOM     31  C   UNL     1      35.873 -21.086 -18.721  0.00  0.00    -0.002 C 
ATOM     32  C   UNL     1      34.716 -21.726 -18.215  0.00  0.00    -0.000 C 
ATOM     33  C   UNL     1      34.550 -20.156 -20.538  0.00  0.00    -0.003 C 
ATOM     34  C   UNL     1      37.096 -21.248 -18.050  0.00  0.00    -0.000 C 
ATOM     35  C   UNL     1      33.494 -21.565 -18.887  0.00  0.00    -0.000 C 
ATOM     36  C   UNL     1      33.412 -20.784 -20.040  0.00  0.00    -0.000 C 
ATOM     37  C   UNL     1      34.816 -22.508 -17.053  0.00  0.00    -0.000 C 
ATOM     38  C   UNL     1      37.177 -22.028 -16.897  0.00  0.00    -0.000 C 
ATOM     39  C   UNL     1      36.039 -22.656 -16.399  0.00  0.00    -0.000 C 
ENDBRANCH  29  30
ENDBRANCH   6  29
TORSDOF 9
ENDMDL
MODEL 9
REMARK VINA RESULT:      -9.4      1.820      2.390
REMARK  Name = 46937134
REMARK  9 active torsions:
REMARK  status: ('A' for Active; 'I' for Inactive)
REMARK    1  A    between atoms: N_2  and  C_15
REMARK    2  A    between atoms: N_6  and  C_29
REMARK    3  A    between atoms: C_16  and  O_19
REMARK    4  A    between atoms: C_18  and  C_21
REMARK    5  A    between atoms: C_21  and  O_22
REMARK    6  A    between atoms: O_22  and  P_23
REMARK    7  A    between atoms: P_23  and  O_25
REMARK    8  A    between atoms: P_23  and  O_27
REMARK    9  A    between atoms: C_29  and  C_30
REMARK                            x       y       z     vdW  Elec       q    Type
REMARK                         _______ _______ _______ _____ _____    ______ ____
ROOT
ATOM      1  O   UNL     1      39.063 -23.891 -14.806  0.00  0.00    -0.208 OA
ATOM      2  N   UNL     1      35.026 -24.201 -12.799  0.00  0.00    -0.209 NA
ATOM      3  N   UNL     1      35.074 -23.168 -15.001  0.00  0.00    -0.279 N 
ATOM      4  N   UNL     1      37.222 -24.630 -12.626  0.00  0.00    -0.241 NA
ATOM      5  N   UNL     1      37.258 -23.045 -15.988  0.00  0.00    -0.301 NA
ATOM      6  N   UNL     1      35.355 -22.234 -17.071  0.00  0.00    -0.292 N 
ATOM      7  C   UNL     1      35.617 -23.759 -13.933  0.00  0.00    +0.191 C 
ATOM      8  C   UNL     1      36.044 -24.723 -12.033  0.00  0.00    +0.205 C 
ATOM      9  C   UNL     1      36.950 -24.023 -13.820  0.00  0.00    +0.183 C 
ATOM     10  C   UNL     1      35.957 -22.825 -16.021  0.00  0.00    +0.248 C 
ATOM     11  C   UNL     1      37.863 -23.662 -14.886  0.00  0.00    +0.224 C 
ATOM     12  H   UNL     1      34.107 -22.987 -15.062  0.00  0.00    +0.152 HD
ATOM     13  H   UNL     1      34.381 -22.096 -17.037  0.00  0.00    +0.151 HD
ENDROOT
BRANCH   2  15
ATOM     14  O   UNL     1      32.824 -25.251 -12.978  0.00  0.00    -0.338 OA
ATOM     15  C   UNL     1      33.565 -24.145 -12.427  0.00  0.00    +0.182 C 
ATOM     16  C   UNL     1      31.431 -23.323 -13.010  0.00  0.00    +0.144 C 
ATOM     17  C   UNL     1      32.872 -22.877 -12.916  0.00  0.00    +0.079 C 
ATOM     18  C   UNL     1      31.550 -24.775 -13.458  0.00  0.00    +0.174 C 
BRANCH  16  19
ATOM     19  O   UNL     1      30.856 -23.270 -11.707  0.00  0.00    -0.382 OA
ATOM     20  H   UNL     1      31.128 -24.053 -11.202  0.00  0.00    +0.210 HD
ENDBRANCH  16  19
BRANCH  18  21
ATOM     21  C   UNL     1      31.533 -24.927 -14.973  0.00  0.00    +0.186 C 
BRANCH  21  22
ATOM     22  O   UNL     1      30.822 -23.835 -15.530  0.00  0.00    -0.271 OA
BRANCH  22  23
ATOM     23  P   UNL     1      31.608 -22.827 -16.524  0.00  0.00    +0.473 P 
ATOM     24  O   UNL     1      30.726 -21.971 -17.385  0.00  0.00    -0.227 OA
BRANCH  23  25
ATOM     25  O   UNL     1      32.579 -22.013 -15.519  0.00  0.00    -0.303 OA
ATOM     26  H   UNL     1      32.220 -21.122 -15.374  0.00  0.00    +0.222 HD
ENDBRANCH  23  25
BRANCH  23  27
ATOM     27  O   UNL     1      32.627 -23.795 -17.323  0.00  0.00    -0.303 OA
ATOM     28  H   UNL     1      33.415 -23.953 -16.781  0.00  0.00    +0.222 HD
ENDBRANCH  23  27
ENDBRANCH  22  23
ENDBRANCH  21  22
ENDBRANCH  18  21
ENDBRANCH   2  15
BRANCH   6  29
ATOM     29  C   UNL     1      36.074 -21.793 -18.244  0.00  0.00    +0.117 C 
BRANCH  29  30
ATOM     30  C   UNL     1      35.153 -21.107 -19.204  0.00  0.00    -0.003 C 
ATOM     31  C   UNL     1      35.619 -20.178 -20.149  0.00  0.00    -0.002 C 
ATOM     32  C   UNL     1      34.696 -19.563 -21.029  0.00  0.00    -0.000 C 
ATOM     33  C   UNL     1      33.797 -21.426 -19.130  0.00  0.00    -0.003 C 
ATOM     34  C   UNL     1      36.980 -19.845 -20.239  0.00  0.00    -0.000 C 
ATOM     35  C   UNL     1      33.335 -19.896 -20.938  0.00  0.00    -0.000 C 
ATOM     36  C   UNL     1      32.890 -20.822 -19.994  0.00  0.00    -0.000 C 
ATOM     37  C   UNL     1      35.162 -18.633 -21.973  0.00  0.00    -0.000 C 
ATOM     38  C   UNL     1      37.426 -18.919 -21.183  0.00  0.00    -0.000 C 
ATOM     39  C   UNL     1      36.518 -18.315 -22.048  0.00  0.00    -0.000 C 
ENDBRANCH  29  30
ENDBRANCH   6  29
TORSDOF 9
ENDMDL
