MODEL 1
REMARK VINA RESULT:     -11.5      0.000      0.000
REMARK  Name = 9801640
REMARK  6 active torsions:
REMARK  status: ('A' for Active; 'I' for Inactive)
REMARK    1  A    between atoms: C_1  and  C_2
REMARK    2  A    between atoms: C_1  and  C_16
REMARK    3  A    between atoms: C_2  and  N_3
REMARK    4  A    between atoms: C_7  and  C_11
REMARK    5  A    between atoms: C_16  and  C_17
REMARK    6  A    between atoms: C_17  and  N_21
REMARK                            x       y       z     vdW  Elec       q    Type
REMARK                         _______ _______ _______ _____ _____    ______ ____
ROOT
ATOM      1  C   UNL     1      33.805 -15.340 -24.916  0.00  0.00    -0.021 C 
ENDROOT
BRANCH   1   2
ATOM      2  C   UNL     1      35.297 -15.580 -24.691  0.00  0.00    -0.077 C 
BRANCH   2   3
ATOM      3  N   UNL     1      35.497 -16.672 -23.741  0.00  0.00    +0.390 N 
ATOM      4  C   UNL     1      35.264 -16.226 -22.364  0.00  0.00    -0.072 C 
ATOM      5  C   UNL     1      34.632 -17.815 -24.071  0.00  0.00    -0.051 C 
ATOM      6  C   UNL     1      35.642 -17.345 -21.382  0.00  0.00    +0.005 C 
ATOM      7  C   UNL     1      35.062 -18.687 -21.764  0.00  0.00    -0.013 C 
ATOM      8  C   UNL     1      34.597 -18.884 -23.012  0.00  0.00    -0.052 C 
ATOM      9  H   UNL     1      36.469 -16.975 -23.811  0.00  0.00    -0.079 HD
BRANCH   7  11
ATOM     10  N   UNL     1      36.225 -20.124 -20.222  0.00  0.00    -0.244 NA
ATOM     11  C   UNL     1      35.029 -19.758 -20.738  0.00  0.00    +0.077 C 
ATOM     12  C   UNL     1      33.819 -20.321 -20.360  0.00  0.00    +0.019 C 
ATOM     13  C   UNL     1      33.838 -21.322 -19.395  0.00  0.00    +0.003 C 
ATOM     14  C   UNL     1      36.204 -21.101 -19.286  0.00  0.00    +0.099 C 
ATOM     15  C   UNL     1      35.049 -21.725 -18.843  0.00  0.00    +0.021 C 
ENDBRANCH   7  11
ENDBRANCH   2   3
ENDBRANCH   1   2
BRANCH   1  16
ATOM     16  C   UNL     1      33.476 -13.844 -24.889  0.00  0.00    +0.020 C 
BRANCH  16  17
ATOM     17  C   UNL     1      34.415 -13.054 -23.984  0.00  0.00    +0.099 C 
BRANCH  17  21
ATOM     18 CL   UNL     1      35.352 -10.433 -24.921  0.00  0.00    -0.062 Cl
ATOM     19  O   UNL     1      31.994  -9.501 -23.048  0.00  0.00    -0.448 OA
ATOM     20  O   UNL     1      32.590 -13.342 -21.926  0.00  0.00    -0.269 OA
ATOM     21  N   UNL     1      33.750 -11.904 -23.353  0.00  0.00    -0.244 N 
ATOM     22  C   UNL     1      32.925 -12.198 -22.245  0.00  0.00    +0.256 C 
ATOM     23  C   UNL     1      33.970 -10.634 -23.883  0.00  0.00    +0.151 C 
ATOM     24  C   UNL     1      32.492 -11.125 -21.319  0.00  0.00    +0.088 C 
ATOM     25  C   UNL     1      32.046  -9.874 -21.735  0.00  0.00    +0.150 C 
ATOM     26  C   UNL     1      33.179  -9.565 -23.725  0.00  0.00    +0.206 C 
ATOM     27  C   UNL     1      32.478 -11.426 -19.947  0.00  0.00    +0.008 C 
ATOM     28  C   UNL     1      31.570  -8.942 -20.806  0.00  0.00    +0.038 C 
ATOM     29  C   UNL     1      32.023 -10.489 -19.016  0.00  0.00    +0.000 C 
ATOM     30  C   UNL     1      31.566  -9.248 -19.447  0.00  0.00    +0.003 C 
ENDBRANCH  17  21
ENDBRANCH  16  17
ENDBRANCH   1  16
TORSDOF 6
ENDMDL
MODEL 2
REMARK VINA RESULT:     -10.5      6.254     11.897
REMARK  Name = 9801640
REMARK  6 active torsions:
REMARK  status: ('A' for Active; 'I' for Inactive)
REMARK    1  A    between atoms: C_1  and  C_2
REMARK    2  A    between atoms: C_1  and  C_16
REMARK    3  A    between atoms: C_2  and  N_3
REMARK    4  A    between atoms: C_7  and  C_11
REMARK    5  A    between atoms: C_16  and  C_17
REMARK    6  A    between atoms: C_17  and  N_21
REMARK                            x       y       z     vdW  Elec       q    Type
REMARK                         _______ _______ _______ _____ _____    ______ ____
ROOT
ATOM      1  C   UNL     1      34.587 -22.499 -18.676  0.00  0.00    -0.021 C 
ENDROOT
BRANCH   1   2
ATOM      2  C   UNL     1      35.874 -21.676 -18.652  0.00  0.00    -0.077 C 
BRANCH   2   3
ATOM      3  N   UNL     1      35.713 -20.461 -19.447  0.00  0.00    +0.390 N 
ATOM      4  C   UNL     1      36.895 -20.210 -20.277  0.00  0.00    -0.072 C 
ATOM      5  C   UNL     1      34.502 -20.538 -20.278  0.00  0.00    -0.051 C 
ATOM      6  C   UNL     1      36.767 -18.845 -20.970  0.00  0.00    +0.005 C 
ATOM      7  C   UNL     1      35.422 -18.645 -21.633  0.00  0.00    -0.013 C 
ATOM      8  C   UNL     1      34.388 -19.440 -21.301  0.00  0.00    -0.052 C 
ATOM      9  H   UNL     1      35.610 -19.676 -18.803  0.00  0.00    -0.079 HD
BRANCH   7  11
ATOM     10  N   UNL     1      35.357 -16.296 -22.157  0.00  0.00    -0.244 NA
ATOM     11  C   UNL     1      35.287 -17.560 -22.635  0.00  0.00    +0.077 C 
ATOM     12  C   UNL     1      35.100 -17.871 -23.974  0.00  0.00    +0.019 C 
ATOM     13  C   UNL     1      34.978 -16.820 -24.877  0.00  0.00    +0.003 C 
ATOM     14  C   UNL     1      35.233 -15.301 -23.065  0.00  0.00    +0.099 C 
ATOM     15  C   UNL     1      35.045 -15.508 -24.422  0.00  0.00    +0.021 C 
ENDBRANCH   7  11
ENDBRANCH   2   3
ENDBRANCH   1   2
BRANCH   1  16
ATOM     16  C   UNL     1      33.826 -22.372 -17.352  0.00  0.00    +0.020 C 
BRANCH  16  17
ATOM     17  C   UNL     1      33.550 -23.723 -16.701  0.00  0.00    +0.099 C 
BRANCH  17  21
ATOM     18 CL   UNL     1      31.433 -22.639 -14.978  0.00  0.00    -0.062 Cl
ATOM     19  O   UNL     1      33.764 -24.497 -12.375  0.00  0.00    -0.448 OA
ATOM     20  O   UNL     1      36.024 -24.488 -15.730  0.00  0.00    -0.269 OA
ATOM     21  N   UNL     1      33.866 -23.729 -15.265  0.00  0.00    -0.244 N 
ATOM     22  C   UNL     1      35.202 -24.042 -14.927  0.00  0.00    +0.256 C 
ATOM     23  C   UNL     1      32.849 -23.440 -14.358  0.00  0.00    +0.151 C 
ATOM     24  C   UNL     1      35.729 -23.740 -13.575  0.00  0.00    +0.088 C 
ATOM     25  C   UNL     1      35.029 -23.982 -12.397  0.00  0.00    +0.150 C 
ATOM     26  C   UNL     1      32.826 -23.779 -13.063  0.00  0.00    +0.206 C 
ATOM     27  C   UNL     1      37.039 -23.239 -13.492  0.00  0.00    +0.008 C 
ATOM     28  C   UNL     1      35.627 -23.753 -11.152  0.00  0.00    +0.038 C 
ATOM     29  C   UNL     1      37.630 -22.989 -12.252  0.00  0.00    +0.000 C 
ATOM     30  C   UNL     1      36.924 -23.251 -11.081  0.00  0.00    +0.003 C 
ENDBRANCH  17  21
ENDBRANCH  16  17
ENDBRANCH   1  16
TORSDOF 6
ENDMDL
MODEL 3
REMARK VINA RESULT:     -10.5      6.229     11.674
REMARK  Name = 9801640
REMARK  6 active torsions:
REMARK  status: ('A' for Active; 'I' for Inactive)
REMARK    1  A    between atoms: C_1  and  C_2
REMARK    2  A    between atoms: C_1  and  C_16
REMARK    3  A    between atoms: C_2  and  N_3
REMARK    4  A    between atoms: C_7  and  C_11
REMARK    5  A    between atoms: C_16  and  C_17
REMARK    6  A    between atoms: C_17  and  N_21
REMARK                            x       y       z     vdW  Elec       q    Type
REMARK                         _______ _______ _______ _____ _____    ______ ____
ROOT
ATOM      1  C   UNL     1      37.080 -21.186 -16.985  0.00  0.00    -0.021 C 
ENDROOT
BRANCH   1   2
ATOM      2  C   UNL     1      36.355 -21.672 -18.240  0.00  0.00    -0.077 C 
BRANCH   2   3
ATOM      3  N   UNL     1      36.075 -20.548 -19.130  0.00  0.00    +0.390 N 
ATOM      4  C   UNL     1      37.192 -20.307 -20.048  0.00  0.00    -0.072 C 
ATOM      5  C   UNL     1      34.827 -20.773 -19.877  0.00  0.00    -0.051 C 
ATOM      6  C   UNL     1      36.939 -19.023 -20.853  0.00  0.00    +0.005 C 
ATOM      7  C   UNL     1      35.551 -18.964 -21.449  0.00  0.00    -0.013 C 
ATOM      8  C   UNL     1      34.588 -19.783 -20.985  0.00  0.00    -0.052 C 
ATOM      9  H   UNL     1      35.957 -19.714 -18.554  0.00  0.00    -0.079 HD
BRANCH   7  11
ATOM     10  N   UNL     1      35.551 -16.691 -22.244  0.00  0.00    -0.244 NA
ATOM     11  C   UNL     1      35.293 -17.987 -22.535  0.00  0.00    +0.077 C 
ATOM     12  C   UNL     1      34.813 -18.423 -23.762  0.00  0.00    +0.019 C 
ATOM     13  C   UNL     1      34.586 -17.470 -24.749  0.00  0.00    +0.003 C 
ATOM     14  C   UNL     1      35.317 -15.794 -23.228  0.00  0.00    +0.099 C 
ATOM     15  C   UNL     1      34.840 -16.129 -24.485  0.00  0.00    +0.021 C 
ENDBRANCH   7  11
ENDBRANCH   2   3
ENDBRANCH   1   2
BRANCH   1  16
ATOM     16  C   UNL     1      36.633 -21.975 -15.750  0.00  0.00    +0.020 C 
BRANCH  16  17
ATOM     17  C   UNL     1      35.921 -23.275 -16.110  0.00  0.00    +0.099 C 
BRANCH  17  21
ATOM     18 CL   UNL     1      36.594 -25.020 -13.845  0.00  0.00    -0.062 Cl
ATOM     19  O   UNL     1      33.094 -23.535 -12.750  0.00  0.00    -0.448 OA
ATOM     20  O   UNL     1      33.341 -22.430 -16.634  0.00  0.00    -0.269 OA
ATOM     21  N   UNL     1      34.798 -23.569 -15.209  0.00  0.00    -0.244 N 
ATOM     22  C   UNL     1      33.521 -23.165 -15.659  0.00  0.00    +0.256 C 
ATOM     23  C   UNL     1      35.064 -24.203 -13.997  0.00  0.00    +0.151 C 
ATOM     24  C   UNL     1      32.292 -23.705 -15.031  0.00  0.00    +0.088 C 
ATOM     25  C   UNL     1      32.123 -23.850 -13.657  0.00  0.00    +0.150 C 
ATOM     26  C   UNL     1      34.283 -24.189 -12.910  0.00  0.00    +0.206 C 
ATOM     27  C   UNL     1      31.222 -24.026 -15.882  0.00  0.00    +0.008 C 
ATOM     28  C   UNL     1      30.900 -24.285 -13.132  0.00  0.00    +0.038 C 
ATOM     29  C   UNL     1      30.009 -24.480 -15.361  0.00  0.00    +0.000 C 
ATOM     30  C   UNL     1      29.847 -24.606 -13.985  0.00  0.00    +0.003 C 
ENDBRANCH  17  21
ENDBRANCH  16  17
ENDBRANCH   1  16
TORSDOF 6
ENDMDL
MODEL 4
REMARK VINA RESULT:     -10.5      1.117      1.609
REMARK  Name = 9801640
REMARK  6 active torsions:
REMARK  status: ('A' for Active; 'I' for Inactive)
REMARK    1  A    between atoms: C_1  and  C_2
REMARK    2  A    between atoms: C_1  and  C_16
REMARK    3  A    between atoms: C_2  and  N_3
REMARK    4  A    between atoms: C_7  and  C_11
REMARK    5  A    between atoms: C_16  and  C_17
REMARK    6  A    between atoms: C_17  and  N_21
REMARK                            x       y       z     vdW  Elec       q    Type
REMARK                         _______ _______ _______ _____ _____    ______ ____
ROOT
ATOM      1  C   UNL     1      33.931 -14.094 -24.151  0.00  0.00    -0.021 C 
ENDROOT
BRANCH   1   2
ATOM      2  C   UNL     1      35.071 -15.109 -24.225  0.00  0.00    -0.077 C 
BRANCH   2   3
ATOM      3  N   UNL     1      34.808 -16.233 -23.329  0.00  0.00    +0.390 N 
ATOM      4  C   UNL     1      35.247 -17.499 -23.924  0.00  0.00    -0.072 C 
ATOM      5  C   UNL     1      35.453 -16.021 -22.024  0.00  0.00    -0.051 C 
ATOM      6  C   UNL     1      34.808 -18.673 -23.037  0.00  0.00    +0.005 C 
ATOM      7  C   UNL     1      35.138 -18.464 -21.576  0.00  0.00    -0.013 C 
ATOM      8  C   UNL     1      35.436 -17.230 -21.128  0.00  0.00    -0.052 C 
ATOM      9  H   UNL     1      33.800 -16.288 -23.183  0.00  0.00    -0.079 HD
BRANCH   7  11
ATOM     10  N   UNL     1      36.315 -20.051 -20.200  0.00  0.00    -0.244 NA
ATOM     11  C   UNL     1      35.116 -19.641 -20.674  0.00  0.00    +0.077 C 
ATOM     12  C   UNL     1      33.911 -20.254 -20.362  0.00  0.00    +0.019 C 
ATOM     13  C   UNL     1      33.939 -21.355 -19.513  0.00  0.00    +0.003 C 
ATOM     14  C   UNL     1      36.303 -21.126 -19.378  0.00  0.00    +0.099 C 
ATOM     15  C   UNL     1      35.154 -21.805 -19.008  0.00  0.00    +0.021 C 
ENDBRANCH   7  11
ENDBRANCH   2   3
ENDBRANCH   1   2
BRANCH   1  16
ATOM     16  C   UNL     1      34.430 -12.741 -23.634  0.00  0.00    +0.020 C 
BRANCH  16  17
ATOM     17  C   UNL     1      33.956 -11.573 -24.491  0.00  0.00    +0.099 C 
BRANCH  17  21
ATOM     18 CL   UNL     1      35.979  -9.464 -24.786  0.00  0.00    -0.062 Cl
ATOM     19  O   UNL     1      32.991  -7.526 -23.059  0.00  0.00    -0.448 OA
ATOM     20  O   UNL     1      31.855 -11.392 -22.702  0.00  0.00    -0.269 OA
ATOM     21  N   UNL     1      33.698 -10.363 -23.698  0.00  0.00    -0.244 N 
ATOM     22  C   UNL     1      32.655 -10.455 -22.749  0.00  0.00    +0.256 C 
ATOM     23  C   UNL     1      34.478  -9.232 -23.935  0.00  0.00    +0.151 C 
ATOM     24  C   UNL     1      32.530  -9.453 -21.664  0.00  0.00    +0.088 C 
ATOM     25  C   UNL     1      32.681  -8.083 -21.851  0.00  0.00    +0.150 C 
ATOM     26  C   UNL     1      34.151  -7.970 -23.630  0.00  0.00    +0.206 C 
ATOM     27  C   UNL     1      32.177  -9.927 -20.389  0.00  0.00    +0.008 C 
ATOM     28  C   UNL     1      32.461  -7.191 -20.795  0.00  0.00    +0.038 C 
ATOM     29  C   UNL     1      31.979  -9.040 -19.329  0.00  0.00    +0.000 C 
ATOM     30  C   UNL     1      32.117  -7.670 -19.534  0.00  0.00    +0.003 C 
ENDBRANCH  17  21
ENDBRANCH  16  17
ENDBRANCH   1  16
TORSDOF 6
ENDMDL
MODEL 5
REMARK VINA RESULT:     -10.4      3.901      9.962
REMARK  Name = 9801640
REMARK  6 active torsions:
REMARK  status: ('A' for Active; 'I' for Inactive)
REMARK    1  A    between atoms: C_1  and  C_2
REMARK    2  A    between atoms: C_1  and  C_16
REMARK    3  A    between atoms: C_2  and  N_3
REMARK    4  A    between atoms: C_7  and  C_11
REMARK    5  A    between atoms: C_16  and  C_17
REMARK    6  A    between atoms: C_17  and  N_21
REMARK                            x       y       z     vdW  Elec       q    Type
REMARK                         _______ _______ _______ _____ _____    ______ ____
ROOT
ATOM      1  C   UNL     1      36.456 -17.959 -22.394  0.00  0.00    -0.021 C 
ENDROOT
BRANCH   1   2
ATOM      2  C   UNL     1      35.465 -17.619 -23.507  0.00  0.00    -0.077 C 
BRANCH   2   3
ATOM      3  N   UNL     1      35.303 -16.172 -23.617  0.00  0.00    +0.390 N 
ATOM      4  C   UNL     1      34.189 -15.829 -24.506  0.00  0.00    -0.072 C 
ATOM      5  C   UNL     1      35.113 -15.566 -22.289  0.00  0.00    -0.051 C 
ATOM      6  C   UNL     1      34.149 -14.311 -24.733  0.00  0.00    +0.005 C 
ATOM      7  C   UNL     1      34.255 -13.520 -23.448  0.00  0.00    -0.013 C 
ATOM      8  C   UNL     1      34.700 -14.119 -22.328  0.00  0.00    -0.052 C 
ATOM      9  H   UNL     1      36.157 -15.790 -24.023  0.00  0.00    -0.079 HD
BRANCH   7  11
ATOM     10  N   UNL     1      32.946 -11.709 -22.550  0.00  0.00    -0.244 NA
ATOM     11  C   UNL     1      33.863 -12.089 -23.469  0.00  0.00    +0.077 C 
ATOM     12  C   UNL     1      34.432 -11.227 -24.396  0.00  0.00    +0.019 C 
ATOM     13  C   UNL     1      34.033  -9.895 -24.378  0.00  0.00    +0.003 C 
ATOM     14  C   UNL     1      32.582 -10.406 -22.564  0.00  0.00    +0.099 C 
ATOM     15  C   UNL     1      33.091  -9.469 -23.447  0.00  0.00    +0.021 C 
ENDBRANCH   7  11
ENDBRANCH   2   3
ENDBRANCH   1   2
BRANCH   1  16
ATOM     16  C   UNL     1      35.736 -18.541 -21.173  0.00  0.00    +0.020 C 
BRANCH  16  17
ATOM     17  C   UNL     1      35.267 -19.975 -21.397  0.00  0.00    +0.099 C 
BRANCH  17  21
ATOM     18 CL   UNL     1      32.523 -19.888 -20.352  0.00  0.00    -0.062 Cl
ATOM     19  O   UNL     1      34.134 -22.819 -18.238  0.00  0.00    -0.448 OA
ATOM     20  O   UNL     1      37.358 -21.143 -20.016  0.00  0.00    -0.269 OA
ATOM     21  N   UNL     1      35.068 -20.704 -20.136  0.00  0.00    -0.244 N 
ATOM     22  C   UNL     1      36.242 -21.154 -19.491  0.00  0.00    +0.256 C 
ATOM     23  C   UNL     1      33.767 -20.902 -19.678  0.00  0.00    +0.151 C 
ATOM     24  C   UNL     1      36.208 -21.577 -18.071  0.00  0.00    +0.088 C 
ATOM     25  C   UNL     1      35.208 -22.372 -17.521  0.00  0.00    +0.150 C 
ATOM     26  C   UNL     1      33.369 -21.846 -18.817  0.00  0.00    +0.206 C 
ATOM     27  C   UNL     1      37.291 -21.195 -17.260  0.00  0.00    +0.008 C 
ATOM     28  C   UNL     1      35.290 -22.804 -16.192  0.00  0.00    +0.038 C 
ATOM     29  C   UNL     1      37.364 -21.607 -15.928  0.00  0.00    +0.000 C 
ATOM     30  C   UNL     1      36.364 -22.416 -15.396  0.00  0.00    +0.003 C 
ENDBRANCH  17  21
ENDBRANCH  16  17
ENDBRANCH   1  16
TORSDOF 6
ENDMDL
MODEL 6
REMARK VINA RESULT:     -10.1      3.623      5.823
REMARK  Name = 9801640
REMARK  6 active torsions:
REMARK  status: ('A' for Active; 'I' for Inactive)
REMARK    1  A    between atoms: C_1  and  C_2
REMARK    2  A    between atoms: C_1  and  C_16
REMARK    3  A    between atoms: C_2  and  N_3
REMARK    4  A    between atoms: C_7  and  C_11
REMARK    5  A    between atoms: C_16  and  C_17
REMARK    6  A    between atoms: C_17  and  N_21
REMARK                            x       y       z     vdW  Elec       q    Type
REMARK                         _______ _______ _______ _____ _____    ______ ____
ROOT
ATOM      1  C   UNL     1      34.237 -10.246 -24.040  0.00  0.00    -0.021 C 
ENDROOT
BRANCH   1   2
ATOM      2  C   UNL     1      33.789 -11.243 -25.108  0.00  0.00    -0.077 C 
BRANCH   2   3
ATOM      3  N   UNL     1      34.310 -12.575 -24.809  0.00  0.00    +0.390 N 
ATOM      4  C   UNL     1      34.273 -12.847 -23.369  0.00  0.00    -0.072 C 
ATOM      5  C   UNL     1      33.566 -13.604 -25.552  0.00  0.00    -0.051 C 
ATOM      6  C   UNL     1      34.977 -14.179 -23.071  0.00  0.00    +0.005 C 
ATOM      7  C   UNL     1      34.528 -15.300 -23.982  0.00  0.00    -0.013 C 
ATOM      8  C   UNL     1      33.875 -15.014 -25.123  0.00  0.00    -0.052 C 
ATOM      9  H   UNL     1      35.284 -12.605 -25.109  0.00  0.00    -0.079 HD
BRANCH   7  11
ATOM     10  N   UNL     1      35.379 -16.858 -22.355  0.00  0.00    -0.244 NA
ATOM     11  C   UNL     1      34.834 -16.696 -23.582  0.00  0.00    +0.077 C 
ATOM     12  C   UNL     1      34.559 -17.743 -24.450  0.00  0.00    +0.019 C 
ATOM     13  C   UNL     1      34.863 -19.034 -24.032  0.00  0.00    +0.003 C 
ATOM     14  C   UNL     1      35.662 -18.127 -21.984  0.00  0.00    +0.099 C 
ATOM     15  C   UNL     1      35.425 -19.238 -22.777  0.00  0.00    +0.021 C 
ENDBRANCH   7  11
ENDBRANCH   2   3
ENDBRANCH   1   2
BRANCH   1  16
ATOM     16  C   UNL     1      33.040  -9.491 -23.454  0.00  0.00    +0.020 C 
BRANCH  16  17
ATOM     17  C   UNL     1      33.459  -8.302 -22.596  0.00  0.00    +0.099 C 
BRANCH  17  21
ATOM     18 CL   UNL     1      30.735  -7.449 -23.290  0.00  0.00    -0.062 Cl
ATOM     19  O   UNL     1      32.826  -4.141 -23.879  0.00  0.00    -0.448 OA
ATOM     20  O   UNL     1      35.714  -6.940 -23.438  0.00  0.00    -0.269 OA
ATOM     21  N   UNL     1      33.383  -7.029 -23.327  0.00  0.00    -0.244 N 
ATOM     22  C   UNL     1      34.613  -6.504 -23.785  0.00  0.00    +0.256 C 
ATOM     23  C   UNL     1      32.135  -6.437 -23.508  0.00  0.00    +0.151 C 
ATOM     24  C   UNL     1      34.643  -5.441 -24.817  0.00  0.00    +0.088 C 
ATOM     25  C   UNL     1      33.796  -4.338 -24.820  0.00  0.00    +0.150 C 
ATOM     26  C   UNL     1      31.904  -5.144 -23.769  0.00  0.00    +0.206 C 
ATOM     27  C   UNL     1      35.633  -5.537 -25.810  0.00  0.00    +0.008 C 
ATOM     28  C   UNL     1      33.943  -3.329 -25.779  0.00  0.00    +0.038 C 
ATOM     29  C   UNL     1      35.767  -4.543 -26.781  0.00  0.00    +0.000 C 
ATOM     30  C   UNL     1      34.924  -3.436 -26.762  0.00  0.00    +0.003 C 
ENDBRANCH  17  21
ENDBRANCH  16  17
ENDBRANCH   1  16
TORSDOF 6
ENDMDL
MODEL 7
REMARK VINA RESULT:     -10.1      2.215      3.159
REMARK  Name = 9801640
REMARK  6 active torsions:
REMARK  status: ('A' for Active; 'I' for Inactive)
REMARK    1  A    between atoms: C_1  and  C_2
REMARK    2  A    between atoms: C_1  and  C_16
REMARK    3  A    between atoms: C_2  and  N_3
REMARK    4  A    between atoms: C_7  and  C_11
REMARK    5  A    between atoms: C_16  and  C_17
REMARK    6  A    between atoms: C_17  and  N_21
REMARK                            x       y       z     vdW  Elec       q    Type
REMARK                         _______ _______ _______ _____ _____    ______ ____
ROOT
ATOM      1  C   UNL     1      33.858 -13.456 -23.435  0.00  0.00    -0.021 C 
ENDROOT
BRANCH   1   2
ATOM      2  C   UNL     1      34.963 -14.244 -24.135  0.00  0.00    -0.077 C 
BRANCH   2   3
ATOM      3  N   UNL     1      35.333 -15.414 -23.342  0.00  0.00    +0.390 N 
ATOM      4  C   UNL     1      34.781 -15.330 -21.986  0.00  0.00    -0.072 C 
ATOM      5  C   UNL     1      34.895 -16.653 -24.004  0.00  0.00    -0.051 C 
ATOM      6  C   UNL     1      35.322 -16.484 -21.129  0.00  0.00    +0.005 C 
ATOM      7  C   UNL     1      35.220 -17.827 -21.817  0.00  0.00    -0.013 C 
ATOM      8  C   UNL     1      35.020 -17.884 -23.147  0.00  0.00    -0.052 C 
ATOM      9  H   UNL     1      36.349 -15.433 -23.266  0.00  0.00    -0.079 HD
BRANCH   7  11
ATOM     10  N   UNL     1      36.602 -19.357 -20.573  0.00  0.00    -0.244 NA
ATOM     11  C   UNL     1      35.352 -19.052 -20.991  0.00  0.00    +0.077 C 
ATOM     12  C   UNL     1      34.230 -19.811 -20.690  0.00  0.00    +0.019 C 
ATOM     13  C   UNL     1      34.402 -20.951 -19.913  0.00  0.00    +0.003 C 
ATOM     14  C   UNL     1      36.730 -20.474 -19.821  0.00  0.00    +0.099 C 
ATOM     15  C   UNL     1      35.673 -21.296 -19.466  0.00  0.00    +0.021 C 
ENDBRANCH   7  11
ENDBRANCH   2   3
ENDBRANCH   1   2
BRANCH   1  16
ATOM     16  C   UNL     1      34.280 -12.001 -23.203  0.00  0.00    +0.020 C 
BRANCH  16  17
ATOM     17  C   UNL     1      33.321 -11.003 -23.844  0.00  0.00    +0.099 C 
BRANCH  17  21
ATOM     18 CL   UNL     1      31.109 -11.370 -21.946  0.00  0.00    -0.062 Cl
ATOM     19  O   UNL     1      32.925  -8.162 -20.508  0.00  0.00    -0.448 OA
ATOM     20  O   UNL     1      34.658  -8.600 -24.137  0.00  0.00    -0.269 OA
ATOM     21  N   UNL     1      33.058  -9.844 -22.979  0.00  0.00    -0.244 N 
ATOM     22  C   UNL     1      33.740  -8.653 -23.315  0.00  0.00    +0.256 C 
ATOM     23  C   UNL     1      32.180  -9.997 -21.908  0.00  0.00    +0.151 C 
ATOM     24  C   UNL     1      33.304  -7.350 -22.760  0.00  0.00    +0.088 C 
ATOM     25  C   UNL     1      32.943  -7.155 -21.430  0.00  0.00    +0.150 C 
ATOM     26  C   UNL     1      32.125  -9.226 -20.815  0.00  0.00    +0.206 C 
ATOM     27  C   UNL     1      33.322  -6.244 -23.625  0.00  0.00    +0.008 C 
ATOM     28  C   UNL     1      32.626  -5.876 -20.958  0.00  0.00    +0.038 C 
ATOM     29  C   UNL     1      32.986  -4.970 -23.161  0.00  0.00    +0.000 C 
ATOM     30  C   UNL     1      32.642  -4.786 -21.826  0.00  0.00    +0.003 C 
ENDBRANCH  17  21
ENDBRANCH  16  17
ENDBRANCH   1  16
TORSDOF 6
ENDMDL
MODEL 8
REMARK VINA RESULT:     -10.0      7.062     12.853
REMARK  Name = 9801640
REMARK  6 active torsions:
REMARK  status: ('A' for Active; 'I' for Inactive)
REMARK    1  A    between atoms: C_1  and  C_2
REMARK    2  A    between atoms: C_1  and  C_16
REMARK    3  A    between atoms: C_2  and  N_3
REMARK    4  A    between atoms: C_7  and  C_11
REMARK    5  A    between atoms: C_16  and  C_17
REMARK    6  A    between atoms: C_17  and  N_21
REMARK                            x       y       z     vdW  Elec       q    Type
REMARK                         _______ _______ _______ _____ _____    ______ ____
ROOT
ATOM      1  C   UNL     1      34.067 -22.604 -16.629  0.00  0.00    -0.021 C 
ENDROOT
BRANCH   1   2
ATOM      2  C   UNL     1      33.794 -23.302 -17.961  0.00  0.00    -0.077 C 
BRANCH   2   3
ATOM      3  N   UNL     1      34.017 -22.379 -19.072  0.00  0.00    +0.390 N 
ATOM      4  C   UNL     1      33.091 -21.245 -19.012  0.00  0.00    -0.072 C 
ATOM      5  C   UNL     1      35.412 -21.911 -19.088  0.00  0.00    -0.051 C 
ATOM      6  C   UNL     1      33.236 -20.385 -20.277  0.00  0.00    +0.005 C 
ATOM      7  C   UNL     1      34.676 -20.064 -20.609  0.00  0.00    -0.013 C 
ATOM      8  C   UNL     1      35.668 -20.779 -20.048  0.00  0.00    -0.052 C 
ATOM      9  H   UNL     1      33.839 -22.884 -19.940  0.00  0.00    -0.079 HD
BRANCH   7  11
ATOM     10  N   UNL     1      35.412 -17.809 -21.021  0.00  0.00    -0.244 NA
ATOM     11  C   UNL     1      34.949 -18.959 -21.561  0.00  0.00    +0.077 C 
ATOM     12  C   UNL     1      34.726 -19.141 -22.919  0.00  0.00    +0.019 C 
ATOM     13  C   UNL     1      34.995 -18.077 -23.773  0.00  0.00    +0.003 C 
ATOM     14  C   UNL     1      35.662 -16.796 -21.883  0.00  0.00    +0.099 C 
ATOM     15  C   UNL     1      35.472 -16.879 -23.252  0.00  0.00    +0.021 C 
ENDBRANCH   7  11
ENDBRANCH   2   3
ENDBRANCH   1   2
BRANCH   1  16
ATOM     16  C   UNL     1      33.017 -22.986 -15.582  0.00  0.00    +0.020 C 
BRANCH  16  17
ATOM     17  C   UNL     1      33.206 -24.403 -15.050  0.00  0.00    +0.099 C 
BRANCH  17  21
ATOM     18 CL   UNL     1      33.027 -22.861 -12.556  0.00  0.00    -0.062 Cl
ATOM     19  O   UNL     1      36.051 -25.303 -11.817  0.00  0.00    -0.448 OA
ATOM     20  O   UNL     1      35.481 -25.788 -15.793  0.00  0.00    -0.269 OA
ATOM     21  N   UNL     1      34.379 -24.521 -14.172  0.00  0.00    -0.244 N 
ATOM     22  C   UNL     1      35.506 -25.167 -14.728  0.00  0.00    +0.256 C 
ATOM     23  C   UNL     1      34.298 -24.006 -12.880  0.00  0.00    +0.151 C 
ATOM     24  C   UNL     1      36.839 -25.038 -14.094  0.00  0.00    +0.088 C 
ATOM     25  C   UNL     1      37.058 -25.123 -12.723  0.00  0.00    +0.150 C 
ATOM     26  C   UNL     1      35.065 -24.358 -11.840  0.00  0.00    +0.206 C 
ATOM     27  C   UNL     1      37.945 -24.884 -14.948  0.00  0.00    +0.008 C 
ATOM     28  C   UNL     1      38.358 -25.080 -12.204  0.00  0.00    +0.038 C 
ATOM     29  C   UNL     1      39.240 -24.820 -14.431  0.00  0.00    +0.000 C 
ATOM     30  C   UNL     1      39.447 -24.922 -13.058  0.00  0.00    +0.003 C 
ENDBRANCH  17  21
ENDBRANCH  16  17
ENDBRANCH   1  16
TORSDOF 6
ENDMDL
MODEL 9
REMARK VINA RESULT:      -9.8      3.413      5.430
REMARK  Name = 9801640
REMARK  6 active torsions:
REMARK  status: ('A' for Active; 'I' for Inactive)
REMARK    1  A    between atoms: C_1  and  C_2
REMARK    2  A    between atoms: C_1  and  C_16
REMARK    3  A    between atoms: C_2  and  N_3
REMARK    4  A    between atoms: C_7  and  C_11
REMARK    5  A    between atoms: C_16  and  C_17
REMARK    6  A    between atoms: C_17  and  N_21
REMARK                            x       y       z     vdW  Elec       q    Type
REMARK                         _______ _______ _______ _____ _____    ______ ____
ROOT
ATOM      1  C   UNL     1      34.881 -10.387 -25.136  0.00  0.00    -0.021 C 
ENDROOT
BRANCH   1   2
ATOM      2  C   UNL     1      33.916 -11.215 -24.289  0.00  0.00    -0.077 C 
BRANCH   2   3
ATOM      3  N   UNL     1      34.418 -12.579 -24.136  0.00  0.00    +0.390 N 
ATOM      4  C   UNL     1      34.215 -13.068 -22.769  0.00  0.00    -0.072 C 
ATOM      5  C   UNL     1      33.783 -13.480 -25.111  0.00  0.00    -0.051 C 
ATOM      6  C   UNL     1      34.899 -14.433 -22.596  0.00  0.00    +0.005 C 
ATOM      7  C   UNL     1      34.578 -15.399 -23.714  0.00  0.00    -0.013 C 
ATOM      8  C   UNL     1      34.060 -14.939 -24.868  0.00  0.00    -0.052 C 
ATOM      9  H   UNL     1      35.421 -12.566 -24.318  0.00  0.00    -0.079 HD
BRANCH   7  11
ATOM     10  N   UNL     1      35.423 -17.167 -22.314  0.00  0.00    -0.244 NA
ATOM     11  C   UNL     1      34.854 -16.840 -23.498  0.00  0.00    +0.077 C 
ATOM     12  C   UNL     1      34.532 -17.765 -24.481  0.00  0.00    +0.019 C 
ATOM     13  C   UNL     1      34.811 -19.105 -24.234  0.00  0.00    +0.003 C 
ATOM     14  C   UNL     1      35.680 -18.479 -22.110  0.00  0.00    +0.099 C 
ATOM     15  C   UNL     1      35.396 -19.477 -23.029  0.00  0.00    +0.021 C 
ENDBRANCH   7  11
ENDBRANCH   2   3
ENDBRANCH   1   2
BRANCH   1  16
ATOM     16  C   UNL     1      35.202  -9.050 -24.460  0.00  0.00    +0.020 C 
BRANCH  16  17
ATOM     17  C   UNL     1      34.402  -8.834 -23.180  0.00  0.00    +0.099 C 
BRANCH  17  21
ATOM     18 CL   UNL     1      31.535  -9.029 -22.568  0.00  0.00    -0.062 Cl
ATOM     19  O   UNL     1      32.225  -5.157 -22.128  0.00  0.00    -0.448 OA
ATOM     20  O   UNL     1      35.618  -6.459 -23.906  0.00  0.00    -0.269 OA
ATOM     21  N   UNL     1      33.687  -7.548 -23.175  0.00  0.00    -0.244 N 
ATOM     22  C   UNL     1      34.407  -6.439 -23.671  0.00  0.00    +0.256 C 
ATOM     23  C   UNL     1      32.383  -7.513 -22.687  0.00  0.00    +0.151 C 
ATOM     24  C   UNL     1      33.704  -5.189 -24.048  0.00  0.00    +0.088 C 
ATOM     25  C   UNL     1      32.693  -4.609 -23.288  0.00  0.00    +0.150 C 
ATOM     26  C   UNL     1      31.739  -6.430 -22.234  0.00  0.00    +0.206 C 
ATOM     27  C   UNL     1      34.140  -4.531 -25.210  0.00  0.00    +0.008 C 
ATOM     28  C   UNL     1      32.136  -3.381 -23.662  0.00  0.00    +0.038 C 
ATOM     29  C   UNL     1      33.571  -3.316 -25.596  0.00  0.00    +0.000 C 
ATOM     30  C   UNL     1      32.571  -2.739 -24.819  0.00  0.00    +0.003 C 
ENDBRANCH  17  21
ENDBRANCH  16  17
ENDBRANCH   1  16
TORSDOF 6
ENDMDL
