MODEL 1
REMARK VINA RESULT:     -12.2      0.000      0.000
REMARK  Name = 445480
REMARK  5 active torsions:
REMARK  status: ('A' for Active; 'I' for Inactive)
REMARK    1  A    between atoms: N_2  and  C_21
REMARK    2  A    between atoms: C_3  and  N_7
REMARK    3  A    between atoms: N_7  and  S_9
REMARK    4  A    between atoms: S_9  and  C_14
REMARK    5  A    between atoms: C_21  and  C_24
REMARK                            x       y       z     vdW  Elec       q    Type
REMARK                         _______ _______ _______ _____ _____    ______ ____
ROOT
ATOM      1  O   UNL     1      36.873 -20.856 -19.658  0.00  0.00    -0.273 OA
ATOM      2  N   UNL     1      35.514 -19.576 -21.088  0.00  0.00    -0.274 N 
ATOM      3  C   UNL     1      34.475 -21.220 -19.804  0.00  0.00    +0.153 C 
ATOM      4  C   UNL     1      33.434 -20.216 -20.287  0.00  0.00    +0.048 C 
ATOM      5  C   UNL     1      34.118 -19.529 -21.454  0.00  0.00    +0.096 C 
ATOM      6  C   UNL     1      35.788 -20.553 -20.131  0.00  0.00    +0.242 C 
ENDROOT
BRANCH   3   7
ATOM      7  N   UNL     1      34.379 -21.423 -18.354  0.00  0.00    -0.171 NA
ATOM      8  H   UNL     1      35.331 -21.500 -17.995  0.00  0.00    +0.149 HD
BRANCH   7   9
ATOM      9  S   UNL     1      33.510 -22.787 -17.786  0.00  0.00    +0.066 S 
ATOM     10  O   UNL     1      33.874 -23.949 -18.574  0.00  0.00    -0.152 OA
ATOM     11  O   UNL     1      32.122 -22.416 -17.588  0.00  0.00    -0.152 OA
BRANCH   9  14
ATOM     12  S   UNL     1      35.704 -22.673 -15.864  0.00  0.00    -0.066 S 
ATOM     13  N   UNL     1      34.070 -24.261 -12.710  0.00  0.00    -0.243 NA
ATOM     14  C   UNL     1      34.095 -23.132 -16.127  0.00  0.00    +0.153 C 
ATOM     15  C   UNL     1      33.492 -23.689 -15.052  0.00  0.00    +0.046 C 
ATOM     16  C   UNL     1      34.379 -23.755 -13.936  0.00  0.00    +0.089 C 
ATOM     17  C   UNL     1      35.636 -23.229 -14.238  0.00  0.00    +0.048 C 
ATOM     18  C   UNL     1      36.641 -23.207 -13.261  0.00  0.00    +0.010 C 
ATOM     19  C   UNL     1      36.332 -23.723 -12.010  0.00  0.00    +0.021 C 
ATOM     20  C   UNL     1      35.061 -24.225 -11.797  0.00  0.00    +0.099 C 
ENDBRANCH   9  14
ENDBRANCH   7   9
ENDBRANCH   3   7
BRANCH   2  21
ATOM     21  C   UNL     1      36.502 -18.764 -21.764  0.00  0.00    +0.120 C 
BRANCH  21  24
ATOM     22  N   UNL     1      33.878 -13.280 -22.956  0.00  0.00    -0.230 NA
ATOM     23  N   UNL     1      34.738 -13.988 -20.882  0.00  0.00    -0.343 N 
ATOM     24  C   UNL     1      35.834 -17.703 -22.594  0.00  0.00    -0.002 C 
ATOM     25  C   UNL     1      35.485 -16.494 -22.009  0.00  0.00    +0.000 C 
ATOM     26  C   UNL     1      35.573 -17.947 -23.934  0.00  0.00    -0.003 C 
ATOM     27  C   UNL     1      34.859 -15.499 -22.777  0.00  0.00    +0.031 C 
ATOM     28  C   UNL     1      34.587 -15.734 -24.142  0.00  0.00    +0.004 C 
ATOM     29  C   UNL     1      34.951 -16.967 -24.708  0.00  0.00    -0.000 C 
ATOM     30  C   UNL     1      34.482 -14.262 -22.250  0.00  0.00    +0.125 C 
ATOM     31  C   UNL     1      33.962 -14.730 -24.891  0.00  0.00    +0.021 C 
ATOM     32  C   UNL     1      33.635 -13.541 -24.259  0.00  0.00    +0.100 C 
ATOM     33  H   UNL     1      34.478 -13.120 -20.497  0.00  0.00    +0.144 HD
ATOM     34  H   UNL     1      35.176 -14.666 -20.318  0.00  0.00    +0.144 HD
ENDBRANCH  21  24
ENDBRANCH   2  21
TORSDOF 5
ENDMDL
MODEL 2
REMARK VINA RESULT:     -11.5      2.729     10.513
REMARK  Name = 445480
REMARK  5 active torsions:
REMARK  status: ('A' for Active; 'I' for Inactive)
REMARK    1  A    between atoms: N_2  and  C_21
REMARK    2  A    between atoms: C_3  and  N_7
REMARK    3  A    between atoms: N_7  and  S_9
REMARK    4  A    between atoms: S_9  and  C_14
REMARK    5  A    between atoms: C_21  and  C_24
REMARK                            x       y       z     vdW  Elec       q    Type
REMARK                         _______ _______ _______ _____ _____    ______ ____
ROOT
ATOM      1  O   UNL     1      32.603 -20.271 -20.184  0.00  0.00    -0.273 OA
ATOM      2  N   UNL     1      34.027 -21.646 -18.915  0.00  0.00    -0.274 N 
ATOM      3  C   UNL     1      34.977 -20.449 -20.674  0.00  0.00    +0.153 C 
ATOM      4  C   UNL     1      36.071 -20.889 -19.708  0.00  0.00    +0.048 C 
ATOM      5  C   UNL     1      35.423 -22.017 -18.928  0.00  0.00    +0.096 C 
ATOM      6  C   UNL     1      33.702 -20.736 -19.920  0.00  0.00    +0.242 C 
ENDROOT
BRANCH   3   7
ATOM      7  N   UNL     1      35.065 -19.011 -20.952  0.00  0.00    -0.171 NA
ATOM      8  H   UNL     1      34.112 -18.663 -21.061  0.00  0.00    +0.149 HD
BRANCH   7   9
ATOM      9  S   UNL     1      35.952 -18.508 -22.331  0.00  0.00    +0.066 S 
ATOM     10  O   UNL     1      35.602 -19.353 -23.458  0.00  0.00    -0.152 OA
ATOM     11  O   UNL     1      37.334 -18.292 -21.954  0.00  0.00    -0.152 OA
BRANCH   9  14
ATOM     12  S   UNL     1      34.831 -16.739 -24.365  0.00  0.00    -0.066 S 
ATOM     13  N   UNL     1      34.532 -13.387 -22.412  0.00  0.00    -0.243 NA
ATOM     14  C   UNL     1      35.369 -16.869 -22.764  0.00  0.00    +0.153 C 
ATOM     15  C   UNL     1      35.281 -15.723 -22.052  0.00  0.00    +0.046 C 
ATOM     16  C   UNL     1      34.744 -14.662 -22.841  0.00  0.00    +0.089 C 
ATOM     17  C   UNL     1      34.450 -15.078 -24.141  0.00  0.00    +0.048 C 
ATOM     18  C   UNL     1      33.911 -14.169 -25.063  0.00  0.00    +0.010 C 
ATOM     19  C   UNL     1      33.693 -12.868 -24.631  0.00  0.00    +0.021 C 
ATOM     20  C   UNL     1      34.015 -12.542 -23.326  0.00  0.00    +0.099 C 
ENDBRANCH   9  14
ENDBRANCH   7   9
ENDBRANCH   3   7
BRANCH   2  21
ATOM     21  C   UNL     1      33.085 -22.276 -18.016  0.00  0.00    +0.120 C 
BRANCH  21  24
ATOM     22  N   UNL     1      37.810 -23.198 -14.118  0.00  0.00    -0.230 NA
ATOM     23  N   UNL     1      37.969 -22.429 -16.337  0.00  0.00    -0.343 N 
ATOM     24  C   UNL     1      33.758 -22.656 -16.727  0.00  0.00    -0.002 C 
ATOM     25  C   UNL     1      35.140 -22.572 -16.625  0.00  0.00    +0.000 C 
ATOM     26  C   UNL     1      32.990 -23.087 -15.655  0.00  0.00    -0.003 C 
ATOM     27  C   UNL     1      35.777 -22.927 -15.424  0.00  0.00    +0.031 C 
ATOM     28  C   UNL     1      35.007 -23.367 -14.326  0.00  0.00    +0.004 C 
ATOM     29  C   UNL     1      33.610 -23.442 -14.457  0.00  0.00    -0.000 C 
ATOM     30  C   UNL     1      37.161 -22.866 -15.256  0.00  0.00    +0.125 C 
ATOM     31  C   UNL     1      35.660 -23.716 -13.138  0.00  0.00    +0.021 C 
ATOM     32  C   UNL     1      37.041 -23.615 -13.089  0.00  0.00    +0.100 C 
ATOM     33  H   UNL     1      38.947 -22.381 -16.233  0.00  0.00    +0.144 HD
ATOM     34  H   UNL     1      37.552 -22.173 -17.191  0.00  0.00    +0.144 HD
ENDBRANCH  21  24
ENDBRANCH   2  21
TORSDOF 5
ENDMDL
MODEL 3
REMARK VINA RESULT:     -11.4      6.004     11.718
REMARK  Name = 445480
REMARK  5 active torsions:
REMARK  status: ('A' for Active; 'I' for Inactive)
REMARK    1  A    between atoms: N_2  and  C_21
REMARK    2  A    between atoms: C_3  and  N_7
REMARK    3  A    between atoms: N_7  and  S_9
REMARK    4  A    between atoms: S_9  and  C_14
REMARK    5  A    between atoms: C_21  and  C_24
REMARK                            x       y       z     vdW  Elec       q    Type
REMARK                         _______ _______ _______ _____ _____    ______ ____
ROOT
ATOM      1  O   UNL     1      34.211 -14.943 -25.490  0.00  0.00    -0.273 OA
ATOM      2  N   UNL     1      34.775 -15.990 -23.461  0.00  0.00    -0.274 N 
ATOM      3  C   UNL     1      34.662 -13.662 -23.474  0.00  0.00    +0.153 C 
ATOM      4  C   UNL     1      34.570 -14.169 -22.040  0.00  0.00    +0.048 C 
ATOM      5  C   UNL     1      35.129 -15.577 -22.123  0.00  0.00    +0.096 C 
ATOM      6  C   UNL     1      34.498 -14.913 -24.302  0.00  0.00    +0.242 C 
ENDROOT
BRANCH   3   7
ATOM      7  N   UNL     1      33.569 -12.731 -23.776  0.00  0.00    -0.171 NA
ATOM      8  H   UNL     1      32.893 -13.233 -24.353  0.00  0.00    +0.149 HD
BRANCH   7   9
ATOM      9  S   UNL     1      33.953 -11.274 -24.594  0.00  0.00    +0.066 S 
ATOM     10  O   UNL     1      33.104 -11.144 -25.763  0.00  0.00    -0.152 OA
ATOM     11  O   UNL     1      35.395 -11.151 -24.693  0.00  0.00    -0.152 OA
BRANCH   9  14
ATOM     12  S   UNL     1      34.297  -8.473 -23.846  0.00  0.00    -0.066 S 
ATOM     13  N   UNL     1      31.809  -8.143 -20.874  0.00  0.00    -0.243 NA
ATOM     14  C   UNL     1      33.487  -9.923 -23.512  0.00  0.00    +0.153 C 
ATOM     15  C   UNL     1      32.612  -9.848 -22.484  0.00  0.00    +0.046 C 
ATOM     16  C   UNL     1      32.586  -8.537 -21.920  0.00  0.00    +0.089 C 
ATOM     17  C   UNL     1      33.466  -7.673 -22.572  0.00  0.00    +0.048 C 
ATOM     18  C   UNL     1      33.577  -6.338 -22.155  0.00  0.00    +0.010 C 
ATOM     19  C   UNL     1      32.787  -5.930 -21.088  0.00  0.00    +0.021 C 
ATOM     20  C   UNL     1      31.942  -6.854 -20.501  0.00  0.00    +0.099 C 
ENDBRANCH   9  14
ENDBRANCH   7   9
ENDBRANCH   3   7
BRANCH   2  21
ATOM     21  C   UNL     1      34.840 -17.377 -23.867  0.00  0.00    +0.120 C 
BRANCH  21  24
ATOM     22  N   UNL     1      34.428 -21.319 -19.106  0.00  0.00    -0.230 NA
ATOM     23  N   UNL     1      32.635 -20.508 -20.397  0.00  0.00    -0.343 N 
ATOM     24  C   UNL     1      35.336 -18.235 -22.737  0.00  0.00    -0.002 C 
ATOM     25  C   UNL     1      34.430 -18.970 -21.985  0.00  0.00    +0.000 C 
ATOM     26  C   UNL     1      36.694 -18.279 -22.458  0.00  0.00    -0.003 C 
ATOM     27  C   UNL     1      34.886 -19.773 -20.926  0.00  0.00    +0.031 C 
ATOM     28  C   UNL     1      36.265 -19.827 -20.632  0.00  0.00    +0.004 C 
ATOM     29  C   UNL     1      37.160 -19.072 -21.408  0.00  0.00    -0.000 C 
ATOM     30  C   UNL     1      34.028 -20.536 -20.133  0.00  0.00    +0.125 C 
ATOM     31  C   UNL     1      36.700 -20.632 -19.572  0.00  0.00    +0.021 C 
ATOM     32  C   UNL     1      35.754 -21.346 -18.854  0.00  0.00    +0.100 C 
ATOM     33  H   UNL     1      32.018 -21.040 -19.846  0.00  0.00    +0.144 HD
ATOM     34  H   UNL     1      32.285 -19.955 -21.133  0.00  0.00    +0.144 HD
ENDBRANCH  21  24
ENDBRANCH   2  21
TORSDOF 5
ENDMDL
MODEL 4
REMARK VINA RESULT:     -11.3      3.955      6.720
REMARK  Name = 445480
REMARK  5 active torsions:
REMARK  status: ('A' for Active; 'I' for Inactive)
REMARK    1  A    between atoms: N_2  and  C_21
REMARK    2  A    between atoms: C_3  and  N_7
REMARK    3  A    between atoms: N_7  and  S_9
REMARK    4  A    between atoms: S_9  and  C_14
REMARK    5  A    between atoms: C_21  and  C_24
REMARK                            x       y       z     vdW  Elec       q    Type
REMARK                         _______ _______ _______ _____ _____    ______ ____
ROOT
ATOM      1  O   UNL     1      34.369 -13.941 -21.171  0.00  0.00    -0.273 OA
ATOM      2  N   UNL     1      33.594 -13.820 -23.388  0.00  0.00    -0.274 N 
ATOM      3  C   UNL     1      35.254 -15.385 -22.914  0.00  0.00    +0.153 C 
ATOM      4  C   UNL     1      34.564 -15.754 -24.221  0.00  0.00    +0.048 C 
ATOM      5  C   UNL     1      33.893 -14.462 -24.647  0.00  0.00    +0.096 C 
ATOM      6  C   UNL     1      34.366 -14.311 -22.336  0.00  0.00    +0.242 C 
ENDROOT
BRANCH   3   7
ATOM      7  N   UNL     1      35.296 -16.529 -21.997  0.00  0.00    -0.171 NA
ATOM      8  H   UNL     1      36.088 -16.387 -21.369  0.00  0.00    +0.149 HD
BRANCH   7   9
ATOM      9  S   UNL     1      35.456 -18.098 -22.670  0.00  0.00    +0.066 S 
ATOM     10  O   UNL     1      36.856 -18.356 -22.952  0.00  0.00    -0.152 OA
ATOM     11  O   UNL     1      34.437 -18.286 -23.683  0.00  0.00    -0.152 OA
BRANCH   9  14
ATOM     12  S   UNL     1      36.331 -19.940 -20.581  0.00  0.00    -0.066 S 
ATOM     13  N   UNL     1      32.933 -21.290 -19.251  0.00  0.00    -0.243 NA
ATOM     14  C   UNL     1      35.003 -19.270 -21.391  0.00  0.00    +0.153 C 
ATOM     15  C   UNL     1      33.803 -19.715 -20.957  0.00  0.00    +0.046 C 
ATOM     16  C   UNL     1      33.953 -20.661 -19.899  0.00  0.00    +0.089 C 
ATOM     17  C   UNL     1      35.294 -20.883 -19.585  0.00  0.00    +0.048 C 
ATOM     18  C   UNL     1      35.638 -21.784 -18.566  0.00  0.00    +0.010 C 
ATOM     19  C   UNL     1      34.603 -22.428 -17.903  0.00  0.00    +0.021 C 
ATOM     20  C   UNL     1      33.301 -22.149 -18.279  0.00  0.00    +0.099 C 
ENDBRANCH   9  14
ENDBRANCH   7   9
ENDBRANCH   3   7
BRANCH   2  21
ATOM     21  C   UNL     1      32.677 -12.704 -23.306  0.00  0.00    +0.120 C 
BRANCH  21  24
ATOM     22  N   UNL     1      33.963  -6.695 -22.519  0.00  0.00    -0.230 NA
ATOM     23  N   UNL     1      32.268  -7.908 -21.425  0.00  0.00    -0.343 N 
ATOM     24  C   UNL     1      33.404 -11.406 -23.526  0.00  0.00    -0.002 C 
ATOM     25  C   UNL     1      33.012 -10.274 -22.824  0.00  0.00    +0.000 C 
ATOM     26  C   UNL     1      34.456 -11.356 -24.428  0.00  0.00    -0.003 C 
ATOM     27  C   UNL     1      33.685  -9.058 -23.026  0.00  0.00    +0.031 C 
ATOM     28  C   UNL     1      34.757  -8.993 -23.941  0.00  0.00    +0.004 C 
ATOM     29  C   UNL     1      35.132 -10.154 -24.637  0.00  0.00    -0.000 C 
ATOM     30  C   UNL     1      33.341  -7.884 -22.353  0.00  0.00    +0.125 C 
ATOM     31  C   UNL     1      35.415  -7.771 -24.127  0.00  0.00    +0.021 C 
ATOM     32  C   UNL     1      34.984  -6.671 -23.402  0.00  0.00    +0.100 C 
ATOM     33  H   UNL     1      32.014  -7.088 -20.944  0.00  0.00    +0.144 HD
ATOM     34  H   UNL     1      31.777  -8.747 -21.262  0.00  0.00    +0.144 HD
ENDBRANCH  21  24
ENDBRANCH   2  21
TORSDOF 5
ENDMDL
MODEL 5
REMARK VINA RESULT:     -11.3      2.850     10.411
REMARK  Name = 445480
REMARK  5 active torsions:
REMARK  status: ('A' for Active; 'I' for Inactive)
REMARK    1  A    between atoms: N_2  and  C_21
REMARK    2  A    between atoms: C_3  and  N_7
REMARK    3  A    between atoms: N_7  and  S_9
REMARK    4  A    between atoms: S_9  and  C_14
REMARK    5  A    between atoms: C_21  and  C_24
REMARK                            x       y       z     vdW  Elec       q    Type
REMARK                         _______ _______ _______ _____ _____    ______ ____
ROOT
ATOM      1  O   UNL     1      36.317 -21.155 -20.113  0.00  0.00    -0.273 OA
ATOM      2  N   UNL     1      34.156 -21.745 -19.397  0.00  0.00    -0.274 N 
ATOM      3  C   UNL     1      34.410 -19.689 -20.464  0.00  0.00    +0.153 C 
ATOM      4  C   UNL     1      32.944 -20.103 -20.498  0.00  0.00    +0.048 C 
ATOM      5  C   UNL     1      32.843 -21.144 -19.399  0.00  0.00    +0.096 C 
ATOM      6  C   UNL     1      35.120 -20.937 -20.000  0.00  0.00    +0.242 C 
ENDROOT
BRANCH   3   7
ATOM      7  N   UNL     1      34.888 -19.327 -21.803  0.00  0.00    -0.171 NA
ATOM      8  H   UNL     1      35.209 -20.185 -22.253  0.00  0.00    +0.149 HD
BRANCH   7   9
ATOM      9  S   UNL     1      36.157 -18.181 -21.925  0.00  0.00    +0.066 S 
ATOM     10  O   UNL     1      37.150 -18.665 -22.867  0.00  0.00    -0.152 OA
ATOM     11  O   UNL     1      36.532 -17.745 -20.594  0.00  0.00    -0.152 OA
BRANCH   9  14
ATOM     12  S   UNL     1      34.900 -16.947 -24.253  0.00  0.00    -0.066 S 
ATOM     13  N   UNL     1      34.417 -13.284 -23.035  0.00  0.00    -0.243 NA
ATOM     14  C   UNL     1      35.467 -16.706 -22.675  0.00  0.00    +0.153 C 
ATOM     15  C   UNL     1      35.316 -15.444 -22.216  0.00  0.00    +0.046 C 
ATOM     16  C   UNL     1      34.703 -14.606 -23.194  0.00  0.00    +0.089 C 
ATOM     17  C   UNL     1      34.417 -15.301 -24.370  0.00  0.00    +0.048 C 
ATOM     18  C   UNL     1      33.811 -14.640 -25.448  0.00  0.00    +0.010 C 
ATOM     19  C   UNL     1      33.517 -13.292 -25.291  0.00  0.00    +0.021 C 
ATOM     20  C   UNL     1      33.835 -12.681 -24.091  0.00  0.00    +0.099 C 
ENDBRANCH   9  14
ENDBRANCH   7   9
ENDBRANCH   3   7
BRANCH   2  21
ATOM     21  C   UNL     1      34.416 -22.996 -18.717  0.00  0.00    +0.120 C 
BRANCH  21  24
ATOM     22  N   UNL     1      29.929 -22.819 -14.449  0.00  0.00    -0.230 NA
ATOM     23  N   UNL     1      29.627 -22.797 -16.784  0.00  0.00    -0.343 N 
ATOM     24  C   UNL     1      33.823 -22.978 -17.336  0.00  0.00    -0.002 C 
ATOM     25  C   UNL     1      32.444 -22.918 -17.182  0.00  0.00    +0.000 C 
ATOM     26  C   UNL     1      34.661 -23.018 -16.231  0.00  0.00    -0.003 C 
ATOM     27  C   UNL     1      31.883 -22.899 -15.894  0.00  0.00    +0.031 C 
ATOM     28  C   UNL     1      32.724 -22.940 -14.763  0.00  0.00    +0.004 C 
ATOM     29  C   UNL     1      34.116 -22.999 -14.947  0.00  0.00    -0.000 C 
ATOM     30  C   UNL     1      30.507 -22.839 -15.671  0.00  0.00    +0.125 C 
ATOM     31  C   UNL     1      32.146 -22.919 -13.488  0.00  0.00    +0.021 C 
ATOM     32  C   UNL     1      30.765 -22.860 -13.390  0.00  0.00    +0.100 C 
ATOM     33  H   UNL     1      28.654 -22.754 -16.642  0.00  0.00    +0.144 HD
ATOM     34  H   UNL     1      29.991 -22.809 -17.699  0.00  0.00    +0.144 HD
ENDBRANCH  21  24
ENDBRANCH   2  21
TORSDOF 5
ENDMDL
MODEL 6
REMARK VINA RESULT:     -11.2      4.658     10.454
REMARK  Name = 445480
REMARK  5 active torsions:
REMARK  status: ('A' for Active; 'I' for Inactive)
REMARK    1  A    between atoms: N_2  and  C_21
REMARK    2  A    between atoms: C_3  and  N_7
REMARK    3  A    between atoms: N_7  and  S_9
REMARK    4  A    between atoms: S_9  and  C_14
REMARK    5  A    between atoms: C_21  and  C_24
REMARK                            x       y       z     vdW  Elec       q    Type
REMARK                         _______ _______ _______ _____ _____    ______ ____
ROOT
ATOM      1  O   UNL     1      35.573 -15.973 -21.171  0.00  0.00    -0.273 OA
ATOM      2  N   UNL     1      35.935 -17.641 -22.790  0.00  0.00    -0.274 N 
ATOM      3  C   UNL     1      34.678 -15.783 -23.423  0.00  0.00    +0.153 C 
ATOM      4  C   UNL     1      35.195 -16.497 -24.666  0.00  0.00    +0.048 C 
ATOM      5  C   UNL     1      35.549 -17.882 -24.160  0.00  0.00    +0.096 C 
ATOM      6  C   UNL     1      35.447 -16.430 -22.298  0.00  0.00    +0.242 C 
ENDROOT
BRANCH   3   7
ATOM      7  N   UNL     1      34.992 -14.351 -23.467  0.00  0.00    -0.171 NA
ATOM      8  H   UNL     1      35.059 -14.025 -22.503  0.00  0.00    +0.149 HD
BRANCH   7   9
ATOM      9  S   UNL     1      33.900 -13.310 -24.281  0.00  0.00    +0.066 S 
ATOM     10  O   UNL     1      32.739 -14.071 -24.705  0.00  0.00    -0.152 OA
ATOM     11  O   UNL     1      34.639 -12.482 -25.215  0.00  0.00    -0.152 OA
BRANCH   9  14
ATOM     12  S   UNL     1      32.762 -12.858 -21.631  0.00  0.00    -0.066 S 
ATOM     13  N   UNL     1      32.370  -8.988 -21.593  0.00  0.00    -0.243 NA
ATOM     14  C   UNL     1      33.286 -12.138 -23.071  0.00  0.00    +0.153 C 
ATOM     15  C   UNL     1      33.166 -10.791 -23.096  0.00  0.00    +0.046 C 
ATOM     16  C   UNL     1      32.614 -10.297 -21.876  0.00  0.00    +0.089 C 
ATOM     17  C   UNL     1      32.342 -11.326 -20.974  0.00  0.00    +0.048 C 
ATOM     18  C   UNL     1      31.795 -11.031 -19.717  0.00  0.00    +0.010 C 
ATOM     19  C   UNL     1      31.543  -9.698 -19.422  0.00  0.00    +0.021 C 
ATOM     20  C   UNL     1      31.844  -8.742 -20.376  0.00  0.00    +0.099 C 
ENDBRANCH   9  14
ENDBRANCH   7   9
ENDBRANCH   3   7
BRANCH   2  21
ATOM     21  C   UNL     1      36.642 -18.637 -22.015  0.00  0.00    +0.120 C 
BRANCH  21  24
ATOM     22  N   UNL     1      34.855 -22.493 -17.507  0.00  0.00    -0.230 NA
ATOM     23  N   UNL     1      37.062 -21.805 -17.954  0.00  0.00    -0.343 N 
ATOM     24  C   UNL     1      35.680 -19.440 -21.185  0.00  0.00    -0.002 C 
ATOM     25  C   UNL     1      36.159 -20.207 -20.131  0.00  0.00    +0.000 C 
ATOM     26  C   UNL     1      34.326 -19.407 -21.483  0.00  0.00    -0.003 C 
ATOM     27  C   UNL     1      35.266 -20.962 -19.352  0.00  0.00    +0.031 C 
ATOM     28  C   UNL     1      33.886 -20.937 -19.645  0.00  0.00    +0.004 C 
ATOM     29  C   UNL     1      33.429 -20.152 -20.717  0.00  0.00    -0.000 C 
ATOM     30  C   UNL     1      35.682 -21.753 -18.280  0.00  0.00    +0.125 C 
ATOM     31  C   UNL     1      33.013 -21.696 -18.857  0.00  0.00    +0.021 C 
ATOM     32  C   UNL     1      33.542 -22.444 -17.817  0.00  0.00    +0.100 C 
ATOM     33  H   UNL     1      37.370 -22.359 -17.201  0.00  0.00    +0.144 HD
ATOM     34  H   UNL     1      37.712 -21.287 -18.482  0.00  0.00    +0.144 HD
ENDBRANCH  21  24
ENDBRANCH   2  21
TORSDOF 5
ENDMDL
MODEL 7
REMARK VINA RESULT:     -11.2      2.798     10.649
REMARK  Name = 445480
REMARK  5 active torsions:
REMARK  status: ('A' for Active; 'I' for Inactive)
REMARK    1  A    between atoms: N_2  and  C_21
REMARK    2  A    between atoms: C_3  and  N_7
REMARK    3  A    between atoms: N_7  and  S_9
REMARK    4  A    between atoms: S_9  and  C_14
REMARK    5  A    between atoms: C_21  and  C_24
REMARK                            x       y       z     vdW  Elec       q    Type
REMARK                         _______ _______ _______ _____ _____    ______ ____
ROOT
ATOM      1  O   UNL     1      36.405 -21.057 -19.874  0.00  0.00    -0.273 OA
ATOM      2  N   UNL     1      34.216 -21.659 -19.261  0.00  0.00    -0.274 N 
ATOM      3  C   UNL     1      34.486 -19.705 -20.501  0.00  0.00    +0.153 C 
ATOM      4  C   UNL     1      33.039 -20.175 -20.599  0.00  0.00    +0.048 C 
ATOM      5  C   UNL     1      32.889 -21.111 -19.415  0.00  0.00    +0.096 C 
ATOM      6  C   UNL     1      35.197 -20.875 -19.868  0.00  0.00    +0.242 C 
ENDROOT
BRANCH   3   7
ATOM      7  N   UNL     1      35.050 -19.452 -21.831  0.00  0.00    -0.171 NA
ATOM      8  H   UNL     1      35.496 -20.317 -22.141  0.00  0.00    +0.149 HD
BRANCH   7   9
ATOM      9  S   UNL     1      36.208 -18.197 -21.992  0.00  0.00    +0.066 S 
ATOM     10  O   UNL     1      37.301 -18.659 -22.827  0.00  0.00    -0.152 OA
ATOM     11  O   UNL     1      36.452 -17.607 -20.691  0.00  0.00    -0.152 OA
BRANCH   9  14
ATOM     12  S   UNL     1      35.254 -15.439 -22.035  0.00  0.00    -0.066 S 
ATOM     13  N   UNL     1      33.857 -15.146 -25.655  0.00  0.00    -0.243 NA
ATOM     14  C   UNL     1      35.426 -16.875 -22.917  0.00  0.00    +0.153 C 
ATOM     15  C   UNL     1      34.952 -16.812 -24.181  0.00  0.00    +0.046 C 
ATOM     16  C   UNL     1      34.411 -15.524 -24.469  0.00  0.00    +0.089 C 
ATOM     17  C   UNL     1      34.509 -14.662 -23.376  0.00  0.00    +0.048 C 
ATOM     18  C   UNL     1      34.028 -13.348 -23.472  0.00  0.00    +0.010 C 
ATOM     19  C   UNL     1      33.462 -12.958 -24.679  0.00  0.00    +0.021 C 
ATOM     20  C   UNL     1      33.406 -13.877 -25.710  0.00  0.00    +0.099 C 
ENDBRANCH   9  14
ENDBRANCH   7   9
ENDBRANCH   3   7
BRANCH   2  21
ATOM     21  C   UNL     1      34.463 -22.829 -18.446  0.00  0.00    +0.120 C 
BRANCH  21  24
ATOM     22  N   UNL     1      32.407 -24.201 -12.766  0.00  0.00    -0.230 NA
ATOM     23  N   UNL     1      34.561 -24.642 -13.608  0.00  0.00    -0.343 N 
ATOM     24  C   UNL     1      33.477 -22.900 -17.313  0.00  0.00    -0.002 C 
ATOM     25  C   UNL     1      33.857 -23.476 -16.109  0.00  0.00    +0.000 C 
ATOM     26  C   UNL     1      32.198 -22.391 -17.487  0.00  0.00    -0.003 C 
ATOM     27  C   UNL     1      32.941 -23.548 -15.047  0.00  0.00    +0.031 C 
ATOM     28  C   UNL     1      31.637 -23.034 -15.210  0.00  0.00    +0.004 C 
ATOM     29  C   UNL     1      31.279 -22.457 -16.439  0.00  0.00    -0.000 C 
ATOM     30  C   UNL     1      33.259 -24.114 -13.811  0.00  0.00    +0.125 C 
ATOM     31  C   UNL     1      30.738 -23.115 -14.139  0.00  0.00    +0.021 C 
ATOM     32  C   UNL     1      31.168 -23.699 -12.958  0.00  0.00    +0.100 C 
ATOM     33  H   UNL     1      34.799 -25.044 -12.742  0.00  0.00    +0.144 HD
ATOM     34  H   UNL     1      35.225 -24.606 -14.334  0.00  0.00    +0.144 HD
ENDBRANCH  21  24
ENDBRANCH   2  21
TORSDOF 5
ENDMDL
MODEL 8
REMARK VINA RESULT:     -11.1      1.875      2.266
REMARK  Name = 445480
REMARK  5 active torsions:
REMARK  status: ('A' for Active; 'I' for Inactive)
REMARK    1  A    between atoms: N_2  and  C_21
REMARK    2  A    between atoms: C_3  and  N_7
REMARK    3  A    between atoms: N_7  and  S_9
REMARK    4  A    between atoms: S_9  and  C_14
REMARK    5  A    between atoms: C_21  and  C_24
REMARK                            x       y       z     vdW  Elec       q    Type
REMARK                         _______ _______ _______ _____ _____    ______ ____
ROOT
ATOM      1  O   UNL     1      36.452 -20.677 -19.707  0.00  0.00    -0.273 OA
ATOM      2  N   UNL     1      35.241 -19.349 -21.224  0.00  0.00    -0.274 N 
ATOM      3  C   UNL     1      34.083 -21.037 -20.110  0.00  0.00    +0.153 C 
ATOM      4  C   UNL     1      33.093 -20.018 -20.662  0.00  0.00    +0.048 C 
ATOM      5  C   UNL     1      33.889 -19.290 -21.729  0.00  0.00    +0.096 C 
ATOM      6  C   UNL     1      35.420 -20.359 -20.278  0.00  0.00    +0.242 C 
ENDROOT
BRANCH   3   7
ATOM      7  N   UNL     1      33.840 -21.290 -18.686  0.00  0.00    -0.171 NA
ATOM      8  H   UNL     1      34.335 -20.568 -18.160  0.00  0.00    +0.149 HD
BRANCH   7   9
ATOM      9  S   UNL     1      34.319 -22.806 -18.042  0.00  0.00    +0.066 S 
ATOM     10  O   UNL     1      35.612 -22.666 -17.401  0.00  0.00    -0.152 OA
ATOM     11  O   UNL     1      34.076 -23.838 -19.031  0.00  0.00    -0.152 OA
BRANCH   9  14
ATOM     12  S   UNL     1      33.905 -23.931 -15.381  0.00  0.00    -0.066 S 
ATOM     13  N   UNL     1      30.067 -23.489 -14.928  0.00  0.00    -0.243 NA
ATOM     14  C   UNL     1      33.172 -23.205 -16.724  0.00  0.00    +0.153 C 
ATOM     15  C   UNL     1      31.836 -23.034 -16.604  0.00  0.00    +0.046 C 
ATOM     16  C   UNL     1      31.362 -23.518 -15.348  0.00  0.00    +0.089 C 
ATOM     17  C   UNL     1      32.394 -24.042 -14.569  0.00  0.00    +0.048 C 
ATOM     18  C   UNL     1      32.118 -24.566 -13.297  0.00  0.00    +0.010 C 
ATOM     19  C   UNL     1      30.799 -24.539 -12.864  0.00  0.00    +0.021 C 
ATOM     20  C   UNL     1      29.839 -24.001 -13.702  0.00  0.00    +0.099 C 
ENDBRANCH   9  14
ENDBRANCH   7   9
ENDBRANCH   3   7
BRANCH   2  21
ATOM     21  C   UNL     1      36.290 -18.513 -21.767  0.00  0.00    +0.120 C 
BRANCH  21  24
ATOM     22  N   UNL     1      33.923 -12.902 -22.903  0.00  0.00    -0.230 NA
ATOM     23  N   UNL     1      34.647 -13.708 -20.813  0.00  0.00    -0.343 N 
ATOM     24  C   UNL     1      35.703 -17.402 -22.593  0.00  0.00    -0.002 C 
ATOM     25  C   UNL     1      35.366 -16.201 -21.985  0.00  0.00    +0.000 C 
ATOM     26  C   UNL     1      35.505 -17.593 -23.953  0.00  0.00    -0.003 C 
ATOM     27  C   UNL     1      34.815 -15.159 -22.750  0.00  0.00    +0.031 C 
ATOM     28  C   UNL     1      34.609 -15.339 -24.134  0.00  0.00    +0.004 C 
ATOM     29  C   UNL     1      34.959 -16.566 -24.723  0.00  0.00    -0.000 C 
ATOM     30  C   UNL     1      34.455 -13.928 -22.201  0.00  0.00    +0.125 C 
ATOM     31  C   UNL     1      34.059 -14.289 -24.880  0.00  0.00    +0.021 C 
ATOM     32  C   UNL     1      33.740 -13.110 -24.224  0.00  0.00    +0.100 C 
ATOM     33  H   UNL     1      34.397 -12.844 -20.411  0.00  0.00    +0.144 HD
ATOM     34  H   UNL     1      35.031 -14.419 -20.250  0.00  0.00    +0.144 HD
ENDBRANCH  21  24
ENDBRANCH   2  21
TORSDOF 5
ENDMDL
MODEL 9
REMARK VINA RESULT:     -11.1      2.504     10.782
REMARK  Name = 445480
REMARK  5 active torsions:
REMARK  status: ('A' for Active; 'I' for Inactive)
REMARK    1  A    between atoms: N_2  and  C_21
REMARK    2  A    between atoms: C_3  and  N_7
REMARK    3  A    between atoms: N_7  and  S_9
REMARK    4  A    between atoms: S_9  and  C_14
REMARK    5  A    between atoms: C_21  and  C_24
REMARK                            x       y       z     vdW  Elec       q    Type
REMARK                         _______ _______ _______ _____ _____    ______ ____
ROOT
ATOM      1  O   UNL     1      32.691 -20.440 -20.016  0.00  0.00    -0.273 OA
ATOM      2  N   UNL     1      34.294 -21.726 -18.873  0.00  0.00    -0.274 N 
ATOM      3  C   UNL     1      35.019 -20.494 -20.713  0.00  0.00    +0.153 C 
ATOM      4  C   UNL     1      36.215 -20.867 -19.846  0.00  0.00    +0.048 C 
ATOM      5  C   UNL     1      35.701 -22.022 -19.007  0.00  0.00    +0.096 C 
ATOM      6  C   UNL     1      33.833 -20.843 -19.848  0.00  0.00    +0.242 C 
ENDROOT
BRANCH   3   7
ATOM      7  N   UNL     1      35.005 -19.056 -21.003  0.00  0.00    -0.171 NA
ATOM      8  H   UNL     1      34.038 -18.795 -21.200  0.00  0.00    +0.149 HD
BRANCH   7   9
ATOM      9  S   UNL     1      35.961 -18.485 -22.306  0.00  0.00    +0.066 S 
ATOM     10  O   UNL     1      35.708 -19.302 -23.478  0.00  0.00    -0.152 OA
ATOM     11  O   UNL     1      37.310 -18.244 -21.834  0.00  0.00    -0.152 OA
BRANCH   9  14
ATOM     12  S   UNL     1      34.842 -16.705 -24.331  0.00  0.00    -0.066 S 
ATOM     13  N   UNL     1      34.466 -13.385 -22.338  0.00  0.00    -0.243 NA
ATOM     14  C   UNL     1      35.360 -16.849 -22.725  0.00  0.00    +0.153 C 
ATOM     15  C   UNL     1      35.245 -15.714 -21.999  0.00  0.00    +0.046 C 
ATOM     16  C   UNL     1      34.703 -14.651 -22.781  0.00  0.00    +0.089 C 
ATOM     17  C   UNL     1      34.433 -15.053 -24.090  0.00  0.00    +0.048 C 
ATOM     18  C   UNL     1      33.893 -14.140 -25.008  0.00  0.00    +0.010 C 
ATOM     19  C   UNL     1      33.650 -12.848 -24.562  0.00  0.00    +0.021 C 
ATOM     20  C   UNL     1      33.949 -12.535 -23.248  0.00  0.00    +0.099 C 
ENDBRANCH   9  14
ENDBRANCH   7   9
ENDBRANCH   3   7
BRANCH   2  21
ATOM     21  C   UNL     1      33.469 -22.399 -17.892  0.00  0.00    +0.120 C 
BRANCH  21  24
ATOM     22  N   UNL     1      34.478 -24.466 -12.140  0.00  0.00    -0.230 NA
ATOM     23  N   UNL     1      32.482 -24.693 -13.369  0.00  0.00    -0.343 N 
ATOM     24  C   UNL     1      34.246 -22.646 -16.630  0.00  0.00    -0.002 C 
ATOM     25  C   UNL     1      33.645 -23.319 -15.575  0.00  0.00    +0.000 C 
ATOM     26  C   UNL     1      35.555 -22.195 -16.533  0.00  0.00    -0.003 C 
ATOM     27  C   UNL     1      34.364 -23.552 -14.391  0.00  0.00    +0.031 C 
ATOM     28  C   UNL     1      35.696 -23.100 -14.280  0.00  0.00    +0.004 C 
ATOM     29  C   UNL     1      36.280 -22.420 -15.362  0.00  0.00    -0.000 C 
ATOM     30  C   UNL     1      33.819 -24.223 -13.296  0.00  0.00    +0.125 C 
ATOM     31  C   UNL     1      36.396 -23.341 -13.092  0.00  0.00    +0.021 C 
ATOM     32  C   UNL     1      35.750 -24.018 -12.070  0.00  0.00    +0.100 C 
ATOM     33  H   UNL     1      32.084 -25.167 -12.603  0.00  0.00    +0.144 HD
ATOM     34  H   UNL     1      31.953 -24.545 -14.186  0.00  0.00    +0.144 HD
ENDBRANCH  21  24
ENDBRANCH   2  21
TORSDOF 5
ENDMDL
