MODEL 1
REMARK VINA RESULT:     -12.0      0.000      0.000
REMARK  Name = 5326868
REMARK  6 active torsions:
REMARK  status: ('A' for Active; 'I' for Inactive)
REMARK    1  A    between atoms: C_2  and  C_28
REMARK    2  A    between atoms: C_7  and  N_12
REMARK    3  A    between atoms: C_13  and  C_18
REMARK    4  A    between atoms: C_16  and  N_23
REMARK    5  A    between atoms: C_28  and  C_29
REMARK    6  A    between atoms: C_29  and  C_31
REMARK                            x       y       z     vdW  Elec       q    Type
REMARK                         _______ _______ _______ _____ _____    ______ ____
ROOT
ATOM      1  N   UNL     1      35.139 -17.317 -24.869  0.00  0.00    -0.312 N 
ATOM      2  C   UNL     1      35.585 -17.267 -22.695  0.00  0.00    -0.006 C 
ATOM      3  C   UNL     1      34.923 -16.056 -23.042  0.00  0.00    +0.012 C 
ATOM      4  C   UNL     1      34.655 -16.113 -24.411  0.00  0.00    +0.048 C 
ATOM      5  C   UNL     1      35.703 -18.022 -23.840  0.00  0.00    +0.058 C 
ATOM      6  C   UNL     1      34.527 -14.912 -22.320  0.00  0.00    +0.016 C 
ATOM      7  C   UNL     1      33.877 -13.872 -22.993  0.00  0.00    +0.051 C 
ATOM      8  C   UNL     1      34.006 -15.079 -25.097  0.00  0.00    +0.016 C 
ATOM      9  C   UNL     1      33.621 -13.956 -24.360  0.00  0.00    +0.016 C 
ATOM     10  H   UNL     1      35.087 -17.627 -25.802  0.00  0.00    +0.152 HD
ENDROOT
BRANCH   7  12
ATOM     11  O   UNL     1      31.924 -13.577 -20.736  0.00  0.00    -0.270 OA
ATOM     12  N   UNL     1      33.481 -12.735 -22.285  0.00  0.00    -0.280 N 
ATOM     13  C   UNL     1      32.560 -12.653 -21.233  0.00  0.00    +0.250 C 
ATOM     14  H   UNL     1      33.901 -11.888 -22.558  0.00  0.00    +0.155 HD
BRANCH  13  18
ATOM     15  F   UNL     1      32.032  -9.622 -17.503  0.00  0.00    -0.204 F 
ATOM     16  C   UNL     1      31.940  -8.961 -21.079  0.00  0.00    +0.050 C 
ATOM     17  C   UNL     1      32.157 -10.243 -21.583  0.00  0.00    +0.019 C 
ATOM     18  C   UNL     1      32.326 -11.286 -20.697  0.00  0.00    +0.057 C 
ATOM     19  C   UNL     1      31.897  -8.751 -19.701  0.00  0.00    +0.044 C 
ATOM     20  C   UNL     1      32.289 -11.105 -19.330  0.00  0.00    +0.034 C 
ATOM     21  C   UNL     1      32.072  -9.824 -18.826  0.00  0.00    +0.142 C 
BRANCH  16  23
ATOM     22  O   UNL     1      31.679  -5.653 -23.663  0.00  0.00    -0.350 OA
ATOM     23  N   UNL     1      31.766  -7.885 -21.956  0.00  0.00    -0.303 N 
ATOM     24  C   UNL     1      32.180  -8.008 -23.357  0.00  0.00    +0.123 C 
ATOM     25  C   UNL     1      31.825  -6.524 -21.404  0.00  0.00    +0.123 C 
ATOM     26  C   UNL     1      31.465  -6.958 -24.200  0.00  0.00    +0.164 C 
ATOM     27  C   UNL     1      31.126  -5.554 -22.350  0.00  0.00    +0.164 C 
ENDBRANCH  16  23
ENDBRANCH  13  18
ENDBRANCH   7  12
BRANCH   2  28
ATOM     28  C   UNL     1      36.063 -17.654 -21.353  0.00  0.00    +0.032 C 
BRANCH  28  29
ATOM     29  C   UNL     1      36.428 -19.148 -21.209  0.00  0.00    +0.031 C 
BRANCH  29  31
ATOM     30  N   UNL     1      33.356 -21.466 -19.322  0.00  0.00    -0.242 NA
ATOM     31  C   UNL     1      35.347 -19.964 -20.544  0.00  0.00    -0.019 C 
ATOM     32  C   UNL     1      34.023 -19.701 -20.835  0.00  0.00    +0.016 C 
ATOM     33  C   UNL     1      35.697 -20.961 -19.655  0.00  0.00    +0.016 C 
ATOM     34  C   UNL     1      33.067 -20.478 -20.199  0.00  0.00    +0.099 C 
ATOM     35  C   UNL     1      34.667 -21.682 -19.071  0.00  0.00    +0.099 C 
ENDBRANCH  29  31
ENDBRANCH  28  29
ENDBRANCH   2  28
TORSDOF 6
ENDMDL
MODEL 2
REMARK VINA RESULT:     -11.8      4.384     11.250
REMARK  Name = 5326868
REMARK  6 active torsions:
REMARK  status: ('A' for Active; 'I' for Inactive)
REMARK    1  A    between atoms: C_2  and  C_28
REMARK    2  A    between atoms: C_7  and  N_12
REMARK    3  A    between atoms: C_13  and  C_18
REMARK    4  A    between atoms: C_16  and  N_23
REMARK    5  A    between atoms: C_28  and  C_29
REMARK    6  A    between atoms: C_29  and  C_31
REMARK                            x       y       z     vdW  Elec       q    Type
REMARK                         _______ _______ _______ _____ _____    ______ ____
ROOT
ATOM      1  N   UNL     1      35.091 -16.450 -24.700  0.00  0.00    -0.312 N 
ATOM      2  C   UNL     1      35.043 -15.477 -22.705  0.00  0.00    -0.006 C 
ATOM      3  C   UNL     1      35.051 -16.888 -22.513  0.00  0.00    +0.012 C 
ATOM      4  C   UNL     1      35.081 -17.474 -23.780  0.00  0.00    +0.048 C 
ATOM      5  C   UNL     1      35.068 -15.240 -24.060  0.00  0.00    +0.058 C 
ATOM      6  C   UNL     1      35.035 -17.724 -21.379  0.00  0.00    +0.016 C 
ATOM      7  C   UNL     1      35.050 -19.112 -21.555  0.00  0.00    +0.051 C 
ATOM      8  C   UNL     1      35.096 -18.860 -23.971  0.00  0.00    +0.016 C 
ATOM      9  C   UNL     1      35.081 -19.670 -22.831  0.00  0.00    +0.016 C 
ATOM     10  H   UNL     1      35.112 -16.570 -25.677  0.00  0.00    +0.152 HD
ENDROOT
BRANCH   7  12
ATOM     11  O   UNL     1      32.816 -20.729 -20.378  0.00  0.00    -0.270 OA
ATOM     12  N   UNL     1      35.033 -19.948 -20.436  0.00  0.00    -0.280 N 
ATOM     13  C   UNL     1      33.956 -20.684 -19.927  0.00  0.00    +0.250 C 
ATOM     14  H   UNL     1      35.882 -20.029 -19.945  0.00  0.00    +0.155 HD
BRANCH  13  18
ATOM     15  F   UNL     1      37.091 -22.506 -16.728  0.00  0.00    -0.204 F 
ATOM     16  C   UNL     1      33.462 -22.743 -16.836  0.00  0.00    +0.050 C 
ATOM     17  C   UNL     1      33.191 -22.011 -17.992  0.00  0.00    +0.019 C 
ATOM     18  C   UNL     1      34.244 -21.465 -18.695  0.00  0.00    +0.057 C 
ATOM     19  C   UNL     1      34.780 -22.910 -16.409  0.00  0.00    +0.044 C 
ATOM     20  C   UNL     1      35.555 -21.615 -18.295  0.00  0.00    +0.034 C 
ATOM     21  C   UNL     1      35.827 -22.346 -17.139  0.00  0.00    +0.142 C 
BRANCH  16  23
ATOM     22  O   UNL     1      30.332 -24.229 -14.453  0.00  0.00    -0.350 OA
ATOM     23  N   UNL     1      32.413 -23.307 -16.103  0.00  0.00    -0.303 N 
ATOM     24  C   UNL     1      31.039 -22.839 -16.313  0.00  0.00    +0.123 C 
ATOM     25  C   UNL     1      32.702 -23.811 -14.753  0.00  0.00    +0.123 C 
ATOM     26  C   UNL     1      30.054 -23.890 -15.811  0.00  0.00    +0.164 C 
ATOM     27  C   UNL     1      31.631 -24.812 -14.336  0.00  0.00    +0.164 C 
ENDBRANCH  16  23
ENDBRANCH  13  18
ENDBRANCH   7  12
BRANCH   2  28
ATOM     28  C   UNL     1      35.013 -14.447 -21.648  0.00  0.00    +0.032 C 
BRANCH  28  29
ATOM     29  C   UNL     1      33.634 -14.255 -20.979  0.00  0.00    +0.031 C 
BRANCH  29  31
ATOM     30  N   UNL     1      31.866 -10.441 -21.817  0.00  0.00    -0.242 NA
ATOM     31  C   UNL     1      33.012 -12.912 -21.274  0.00  0.00    -0.019 C 
ATOM     32  C   UNL     1      33.261 -12.299 -22.487  0.00  0.00    +0.016 C 
ATOM     33  C   UNL     1      32.203 -12.315 -20.327  0.00  0.00    +0.016 C 
ATOM     34  C   UNL     1      32.666 -11.068 -22.709  0.00  0.00    +0.099 C 
ATOM     35  C   UNL     1      31.655 -11.082 -20.646  0.00  0.00    +0.099 C 
ENDBRANCH  29  31
ENDBRANCH  28  29
ENDBRANCH   2  28
TORSDOF 6
ENDMDL
MODEL 3
REMARK VINA RESULT:     -11.4      4.546     11.591
REMARK  Name = 5326868
REMARK  6 active torsions:
REMARK  status: ('A' for Active; 'I' for Inactive)
REMARK    1  A    between atoms: C_2  and  C_28
REMARK    2  A    between atoms: C_7  and  N_12
REMARK    3  A    between atoms: C_13  and  C_18
REMARK    4  A    between atoms: C_16  and  N_23
REMARK    5  A    between atoms: C_28  and  C_29
REMARK    6  A    between atoms: C_29  and  C_31
REMARK                            x       y       z     vdW  Elec       q    Type
REMARK                         _______ _______ _______ _____ _____    ______ ____
ROOT
ATOM      1  N   UNL     1      35.498 -16.406 -24.556  0.00  0.00    -0.312 N 
ATOM      2  C   UNL     1      35.183 -15.436 -22.584  0.00  0.00    -0.006 C 
ATOM      3  C   UNL     1      35.128 -16.846 -22.401  0.00  0.00    +0.012 C 
ATOM      4  C   UNL     1      35.328 -17.431 -23.653  0.00  0.00    +0.048 C 
ATOM      5  C   UNL     1      35.412 -15.197 -23.919  0.00  0.00    +0.058 C 
ATOM      6  C   UNL     1      34.924 -17.684 -21.285  0.00  0.00    +0.016 C 
ATOM      7  C   UNL     1      34.931 -19.072 -21.464  0.00  0.00    +0.051 C 
ATOM      8  C   UNL     1      35.337 -18.817 -23.847  0.00  0.00    +0.016 C 
ATOM      9  C   UNL     1      35.135 -19.628 -22.726  0.00  0.00    +0.016 C 
ATOM     10  H   UNL     1      35.659 -16.525 -25.519  0.00  0.00    +0.152 HD
ENDROOT
BRANCH   7  12
ATOM     11  O   UNL     1      36.830 -20.925 -20.068  0.00  0.00    -0.270 OA
ATOM     12  N   UNL     1      34.730 -19.909 -20.365  0.00  0.00    -0.280 N 
ATOM     13  C   UNL     1      35.657 -20.759 -19.749  0.00  0.00    +0.250 C 
ATOM     14  H   UNL     1      33.827 -19.901 -19.975  0.00  0.00    +0.155 HD
BRANCH  13  18
ATOM     15  F   UNL     1      31.993 -22.911 -17.442  0.00  0.00    -0.204 F 
ATOM     16  C   UNL     1      35.514 -22.706 -16.551  0.00  0.00    +0.050 C 
ATOM     17  C   UNL     1      36.008 -21.961 -17.622  0.00  0.00    +0.019 C 
ATOM     18  C   UNL     1      35.132 -21.552 -18.606  0.00  0.00    +0.057 C 
ATOM     19  C   UNL     1      34.158 -23.027 -16.490  0.00  0.00    +0.044 C 
ATOM     20  C   UNL     1      33.788 -21.857 -18.570  0.00  0.00    +0.034 C 
ATOM     21  C   UNL     1      33.294 -22.602 -17.500  0.00  0.00    +0.142 C 
BRANCH  16  23
ATOM     22  O   UNL     1      38.186 -23.725 -13.467  0.00  0.00    -0.350 OA
ATOM     23  N   UNL     1      36.380 -23.134 -15.538  0.00  0.00    -0.303 N 
ATOM     24  C   UNL     1      35.933 -23.123 -14.141  0.00  0.00    +0.123 C 
ATOM     25  C   UNL     1      37.824 -22.944 -15.735  0.00  0.00    +0.123 C 
ATOM     26  C   UNL     1      36.807 -24.061 -13.314  0.00  0.00    +0.164 C 
ATOM     27  C   UNL     1      38.596 -23.892 -14.825  0.00  0.00    +0.164 C 
ENDBRANCH  16  23
ENDBRANCH  13  18
ENDBRANCH   7  12
BRANCH   2  28
ATOM     28  C   UNL     1      35.024 -14.407 -21.537  0.00  0.00    +0.032 C 
BRANCH  28  29
ATOM     29  C   UNL     1      33.577 -14.231 -21.026  0.00  0.00    +0.031 C 
BRANCH  29  31
ATOM     30  N   UNL     1      31.890 -10.414 -22.007  0.00  0.00    -0.242 NA
ATOM     31  C   UNL     1      32.983 -12.887 -21.371  0.00  0.00    -0.019 C 
ATOM     32  C   UNL     1      33.318 -12.283 -22.567  0.00  0.00    +0.016 C 
ATOM     33  C   UNL     1      32.114 -12.280 -20.486  0.00  0.00    +0.016 C 
ATOM     34  C   UNL     1      32.747 -11.050 -22.838  0.00  0.00    +0.099 C 
ATOM     35  C   UNL     1      31.595 -11.047 -20.849  0.00  0.00    +0.099 C 
ENDBRANCH  29  31
ENDBRANCH  28  29
ENDBRANCH   2  28
TORSDOF 6
ENDMDL
MODEL 4
REMARK VINA RESULT:     -11.4      4.737      8.987
REMARK  Name = 5326868
REMARK  6 active torsions:
REMARK  status: ('A' for Active; 'I' for Inactive)
REMARK    1  A    between atoms: C_2  and  C_28
REMARK    2  A    between atoms: C_7  and  N_12
REMARK    3  A    between atoms: C_13  and  C_18
REMARK    4  A    between atoms: C_16  and  N_23
REMARK    5  A    between atoms: C_28  and  C_29
REMARK    6  A    between atoms: C_29  and  C_31
REMARK                            x       y       z     vdW  Elec       q    Type
REMARK                         _______ _______ _______ _____ _____    ______ ____
ROOT
ATOM      1  N   UNL     1      36.405 -23.084 -15.214  0.00  0.00    -0.312 N 
ATOM      2  C   UNL     1      34.331 -23.202 -15.999  0.00  0.00    -0.006 C 
ATOM      3  C   UNL     1      35.112 -22.445 -16.917  0.00  0.00    +0.012 C 
ATOM      4  C   UNL     1      36.408 -22.386 -16.400  0.00  0.00    +0.048 C 
ATOM      5  C   UNL     1      35.153 -23.581 -14.963  0.00  0.00    +0.058 C 
ATOM      6  C   UNL     1      34.839 -21.801 -18.140  0.00  0.00    +0.016 C 
ATOM      7  C   UNL     1      35.870 -21.125 -18.801  0.00  0.00    +0.051 C 
ATOM      8  C   UNL     1      37.450 -21.713 -17.050  0.00  0.00    +0.016 C 
ATOM      9  C   UNL     1      37.155 -21.083 -18.263  0.00  0.00    +0.016 C 
ATOM     10  H   UNL     1      37.187 -23.208 -14.631  0.00  0.00    +0.152 HD
ENDROOT
BRANCH   7  12
ATOM     11  O   UNL     1      37.302 -18.859 -20.143  0.00  0.00    -0.270 OA
ATOM     12  N   UNL     1      35.608 -20.484 -20.014  0.00  0.00    -0.280 N 
ATOM     13  C   UNL     1      36.313 -19.424 -20.597  0.00  0.00    +0.250 C 
ATOM     14  H   UNL     1      34.833 -20.818 -20.520  0.00  0.00    +0.155 HD
BRANCH  13  18
ATOM     15  F   UNL     1      34.888 -20.233 -25.147  0.00  0.00    -0.204 F 
ATOM     16  C   UNL     1      34.949 -17.138 -23.235  0.00  0.00    +0.050 C 
ATOM     17  C   UNL     1      35.461 -17.596 -22.021  0.00  0.00    +0.019 C 
ATOM     18  C   UNL     1      35.769 -18.934 -21.892  0.00  0.00    +0.057 C 
ATOM     19  C   UNL     1      34.756 -18.029 -24.291  0.00  0.00    +0.044 C 
ATOM     20  C   UNL     1      35.586 -19.836 -22.920  0.00  0.00    +0.034 C 
ATOM     21  C   UNL     1      35.075 -19.378 -24.133  0.00  0.00    +0.142 C 
BRANCH  16  23
ATOM     22  O   UNL     1      34.257 -13.019 -23.717  0.00  0.00    -0.350 OA
ATOM     23  N   UNL     1      34.628 -15.786 -23.393  0.00  0.00    -0.303 N 
ATOM     24  C   UNL     1      34.582 -15.197 -24.736  0.00  0.00    +0.123 C 
ATOM     25  C   UNL     1      34.992 -14.856 -22.315  0.00  0.00    +0.123 C 
ATOM     26  C   UNL     1      33.757 -13.916 -24.709  0.00  0.00    +0.164 C 
ATOM     27  C   UNL     1      34.143 -13.594 -22.415  0.00  0.00    +0.164 C 
ENDBRANCH  16  23
ENDBRANCH  13  18
ENDBRANCH   7  12
BRANCH   2  28
ATOM     28  C   UNL     1      32.896 -23.528 -16.126  0.00  0.00    +0.032 C 
BRANCH  28  29
ATOM     29  C   UNL     1      31.998 -22.900 -15.038  0.00  0.00    +0.031 C 
BRANCH  29  31
ATOM     30  N   UNL     1      27.814 -23.509 -15.741  0.00  0.00    -0.242 NA
ATOM     31  C   UNL     1      30.525 -23.115 -15.285  0.00  0.00    -0.019 C 
ATOM     32  C   UNL     1      29.638 -22.085 -15.040  0.00  0.00    +0.016 C 
ATOM     33  C   UNL     1      30.085 -24.337 -15.752  0.00  0.00    +0.016 C 
ATOM     34  C   UNL     1      28.296 -22.331 -15.283  0.00  0.00    +0.099 C 
ATOM     35  C   UNL     1      28.723 -24.484 -15.964  0.00  0.00    +0.099 C 
ENDBRANCH  29  31
ENDBRANCH  28  29
ENDBRANCH   2  28
TORSDOF 6
ENDMDL
MODEL 5
REMARK VINA RESULT:     -11.4      3.080      5.300
REMARK  Name = 5326868
REMARK  6 active torsions:
REMARK  status: ('A' for Active; 'I' for Inactive)
REMARK    1  A    between atoms: C_2  and  C_28
REMARK    2  A    between atoms: C_7  and  N_12
REMARK    3  A    between atoms: C_13  and  C_18
REMARK    4  A    between atoms: C_16  and  N_23
REMARK    5  A    between atoms: C_28  and  C_29
REMARK    6  A    between atoms: C_29  and  C_31
REMARK                            x       y       z     vdW  Elec       q    Type
REMARK                         _______ _______ _______ _____ _____    ______ ____
ROOT
ATOM      1  N   UNL     1      37.109 -20.952 -19.739  0.00  0.00    -0.312 N 
ATOM      2  C   UNL     1      34.908 -20.660 -19.772  0.00  0.00    -0.006 C 
ATOM      3  C   UNL     1      35.504 -19.646 -20.573  0.00  0.00    +0.012 C 
ATOM      4  C   UNL     1      36.884 -19.852 -20.535  0.00  0.00    +0.048 C 
ATOM      5  C   UNL     1      35.920 -21.448 -19.273  0.00  0.00    +0.058 C 
ATOM      6  C   UNL     1      34.998 -18.569 -21.328  0.00  0.00    +0.016 C 
ATOM      7  C   UNL     1      35.891 -17.740 -22.017  0.00  0.00    +0.051 C 
ATOM      8  C   UNL     1      37.789 -19.031 -21.219  0.00  0.00    +0.016 C 
ATOM      9  C   UNL     1      37.265 -17.969 -21.962  0.00  0.00    +0.016 C 
ATOM     10  H   UNL     1      37.995 -21.328 -19.535  0.00  0.00    +0.152 HD
ENDROOT
BRANCH   7  12
ATOM     11  O   UNL     1      34.978 -15.021 -21.144  0.00  0.00    -0.270 OA
ATOM     12  N   UNL     1      35.399 -16.670 -22.767  0.00  0.00    -0.280 N 
ATOM     13  C   UNL     1      34.984 -15.414 -22.306  0.00  0.00    +0.250 C 
ATOM     14  H   UNL     1      35.335 -16.816 -23.738  0.00  0.00    +0.155 HD
BRANCH  13  18
ATOM     15  F   UNL     1      32.864 -14.639 -26.583  0.00  0.00    -0.204 F 
ATOM     16  C   UNL     1      34.120 -12.260 -24.134  0.00  0.00    +0.050 C 
ATOM     17  C   UNL     1      34.597 -13.128 -23.152  0.00  0.00    +0.019 C 
ATOM     18  C   UNL     1      34.478 -14.487 -23.353  0.00  0.00    +0.057 C 
ATOM     19  C   UNL     1      33.535 -12.770 -25.293  0.00  0.00    +0.044 C 
ATOM     20  C   UNL     1      33.903 -15.018 -24.489  0.00  0.00    +0.034 C 
ATOM     21  C   UNL     1      33.427 -14.150 -25.471  0.00  0.00    +0.142 C 
BRANCH  16  23
ATOM     22  O   UNL     1      34.330  -8.069 -23.851  0.00  0.00    -0.350 OA
ATOM     23  N   UNL     1      34.227 -10.876 -23.956  0.00  0.00    -0.303 N 
ATOM     24  C   UNL     1      33.079 -10.112 -23.458  0.00  0.00    +0.123 C 
ATOM     25  C   UNL     1      35.139 -10.132 -24.836  0.00  0.00    +0.123 C 
ATOM     26  C   UNL     1      33.556  -8.781 -22.886  0.00  0.00    +0.164 C 
ATOM     27  C   UNL     1      35.508  -8.802 -24.190  0.00  0.00    +0.164 C 
ENDBRANCH  16  23
ENDBRANCH  13  18
ENDBRANCH   7  12
BRANCH   2  28
ATOM     28  C   UNL     1      33.466 -20.844 -19.516  0.00  0.00    +0.032 C 
BRANCH  28  29
ATOM     29  C   UNL     1      33.059 -22.289 -19.151  0.00  0.00    +0.031 C 
BRANCH  29  31
ATOM     30  N   UNL     1      32.785 -22.954 -14.925  0.00  0.00    -0.242 NA
ATOM     31  C   UNL     1      32.963 -22.522 -17.663  0.00  0.00    -0.019 C 
ATOM     32  C   UNL     1      31.733 -22.437 -17.040  0.00  0.00    +0.016 C 
ATOM     33  C   UNL     1      34.106 -22.818 -16.946  0.00  0.00    +0.016 C 
ATOM     34  C   UNL     1      31.697 -22.661 -15.673  0.00  0.00    +0.099 C 
ATOM     35  C   UNL     1      33.965 -23.024 -15.583  0.00  0.00    +0.099 C 
ENDBRANCH  29  31
ENDBRANCH  28  29
ENDBRANCH   2  28
TORSDOF 6
ENDMDL
MODEL 6
REMARK VINA RESULT:     -11.0      3.551     11.561
REMARK  Name = 5326868
REMARK  6 active torsions:
REMARK  status: ('A' for Active; 'I' for Inactive)
REMARK    1  A    between atoms: C_2  and  C_28
REMARK    2  A    between atoms: C_7  and  N_12
REMARK    3  A    between atoms: C_13  and  C_18
REMARK    4  A    between atoms: C_16  and  N_23
REMARK    5  A    between atoms: C_28  and  C_29
REMARK    6  A    between atoms: C_29  and  C_31
REMARK                            x       y       z     vdW  Elec       q    Type
REMARK                         _______ _______ _______ _____ _____    ______ ____
ROOT
ATOM      1  N   UNL     1      31.580  -4.944 -20.723  0.00  0.00    -0.312 N 
ATOM      2  C   UNL     1      31.510  -4.962 -22.942  0.00  0.00    -0.006 C 
ATOM      3  C   UNL     1      31.866  -6.266 -22.498  0.00  0.00    +0.012 C 
ATOM      4  C   UNL     1      31.904  -6.227 -21.102  0.00  0.00    +0.048 C 
ATOM      5  C   UNL     1      31.341  -4.172 -21.829  0.00  0.00    +0.058 C 
ATOM      6  C   UNL     1      32.164  -7.479 -23.151  0.00  0.00    +0.016 C 
ATOM      7  C   UNL     1      32.484  -8.605 -22.386  0.00  0.00    +0.051 C 
ATOM      8  C   UNL     1      32.224  -7.346 -20.324  0.00  0.00    +0.016 C 
ATOM      9  C   UNL     1      32.513  -8.538 -20.994  0.00  0.00    +0.016 C 
ATOM     10  H   UNL     1      31.529  -4.627 -19.793  0.00  0.00    +0.152 HD
ENDROOT
BRANCH   7  12
ATOM     11  O   UNL     1      34.940  -9.451 -23.884  0.00  0.00    -0.270 OA
ATOM     12  N   UNL     1      32.780  -9.811 -23.025  0.00  0.00    -0.280 N 
ATOM     13  C   UNL     1      33.949 -10.156 -23.715  0.00  0.00    +0.250 C 
ATOM     14  H   UNL     1      32.081 -10.503 -22.987  0.00  0.00    +0.155 HD
BRANCH  13  18
ATOM     15  F   UNL     1      33.301 -13.090 -27.503  0.00  0.00    -0.204 F 
ATOM     16  C   UNL     1      34.310 -13.866 -24.095  0.00  0.00    +0.050 C 
ATOM     17  C   UNL     1      34.303 -12.591 -23.528  0.00  0.00    +0.019 C 
ATOM     18  C   UNL     1      33.956 -11.515 -24.317  0.00  0.00    +0.057 C 
ATOM     19  C   UNL     1      33.972 -14.034 -25.437  0.00  0.00    +0.044 C 
ATOM     20  C   UNL     1      33.618 -11.654 -25.647  0.00  0.00    +0.034 C 
ATOM     21  C   UNL     1      33.625 -12.928 -26.214  0.00  0.00    +0.142 C 
BRANCH  16  23
ATOM     22  O   UNL     1      35.624 -17.148 -21.818  0.00  0.00    -0.350 OA
ATOM     23  N   UNL     1      34.659 -14.975 -23.317  0.00  0.00    -0.303 N 
ATOM     24  C   UNL     1      35.050 -14.792 -21.915  0.00  0.00    +0.123 C 
ATOM     25  C   UNL     1      35.268 -16.130 -23.991  0.00  0.00    +0.123 C 
ATOM     26  C   UNL     1      34.898 -16.109 -21.162  0.00  0.00    +0.164 C 
ATOM     27  C   UNL     1      35.102 -17.376 -23.128  0.00  0.00    +0.164 C 
ENDBRANCH  16  23
ENDBRANCH  13  18
ENDBRANCH   7  12
BRANCH   2  28
ATOM     28  C   UNL     1      31.348  -4.525 -24.344  0.00  0.00    +0.032 C 
BRANCH  28  29
ATOM     29  C   UNL     1      32.344  -3.433 -24.793  0.00  0.00    +0.031 C 
BRANCH  29  31
ATOM     30  N   UNL     1      35.609  -4.972 -27.103  0.00  0.00    -0.242 NA
ATOM     31  C   UNL     1      33.493  -3.974 -25.606  0.00  0.00    -0.019 C 
ATOM     32  C   UNL     1      34.372  -4.869 -25.028  0.00  0.00    +0.016 C 
ATOM     33  C   UNL     1      33.651  -3.567 -26.917  0.00  0.00    +0.016 C 
ATOM     34  C   UNL     1      35.411  -5.338 -25.817  0.00  0.00    +0.099 C 
ATOM     35  C   UNL     1      34.722  -4.094 -27.622  0.00  0.00    +0.099 C 
ENDBRANCH  29  31
ENDBRANCH  28  29
ENDBRANCH   2  28
TORSDOF 6
ENDMDL
MODEL 7
REMARK VINA RESULT:     -10.8      3.491     11.431
REMARK  Name = 5326868
REMARK  6 active torsions:
REMARK  status: ('A' for Active; 'I' for Inactive)
REMARK    1  A    between atoms: C_2  and  C_28
REMARK    2  A    between atoms: C_7  and  N_12
REMARK    3  A    between atoms: C_13  and  C_18
REMARK    4  A    between atoms: C_16  and  N_23
REMARK    5  A    between atoms: C_28  and  C_29
REMARK    6  A    between atoms: C_29  and  C_31
REMARK                            x       y       z     vdW  Elec       q    Type
REMARK                         _______ _______ _______ _____ _____    ______ ____
ROOT
ATOM      1  N   UNL     1      31.608  -8.383 -21.620  0.00  0.00    -0.312 N 
ATOM      2  C   UNL     1      33.320  -8.495 -23.029  0.00  0.00    -0.006 C 
ATOM      3  C   UNL     1      33.016  -9.815 -22.590  0.00  0.00    +0.012 C 
ATOM      4  C   UNL     1      31.940  -9.716 -21.707  0.00  0.00    +0.048 C 
ATOM      5  C   UNL     1      32.436  -7.637 -22.415  0.00  0.00    +0.058 C 
ATOM      6  C   UNL     1      33.559 -11.088 -22.859  0.00  0.00    +0.016 C 
ATOM      7  C   UNL     1      33.003 -12.211 -22.238  0.00  0.00    +0.051 C 
ATOM      8  C   UNL     1      31.374 -10.831 -21.077  0.00  0.00    +0.016 C 
ATOM      9  C   UNL     1      31.927 -12.083 -21.361  0.00  0.00    +0.016 C 
ATOM     10  H   UNL     1      30.880  -8.018 -21.066  0.00  0.00    +0.152 HD
ENDROOT
BRANCH   7  12
ATOM     11  O   UNL     1      34.942 -13.862 -20.654  0.00  0.00    -0.270 OA
ATOM     12  N   UNL     1      33.534 -13.476 -22.499  0.00  0.00    -0.280 N 
ATOM     13  C   UNL     1      34.442 -14.206 -21.721  0.00  0.00    +0.250 C 
ATOM     14  H   UNL     1      33.235 -13.907 -23.331  0.00  0.00    +0.155 HD
BRANCH  13  18
ATOM     15  F   UNL     1      35.420 -17.055 -25.504  0.00  0.00    -0.204 F 
ATOM     16  C   UNL     1      35.497 -17.794 -21.943  0.00  0.00    +0.050 C 
ATOM     17  C   UNL     1      35.117 -16.560 -21.415  0.00  0.00    +0.019 C 
ATOM     18  C   UNL     1      34.846 -15.522 -22.282  0.00  0.00    +0.057 C 
ATOM     19  C   UNL     1      35.600 -17.961 -23.324  0.00  0.00    +0.044 C 
ATOM     20  C   UNL     1      34.941 -15.661 -23.651  0.00  0.00    +0.034 C 
ATOM     21  C   UNL     1      35.321 -16.894 -24.178  0.00  0.00    +0.142 C 
BRANCH  16  23
ATOM     22  O   UNL     1      36.372 -21.171 -19.593  0.00  0.00    -0.350 OA
ATOM     23  N   UNL     1      35.778 -18.864 -21.086  0.00  0.00    -0.303 N 
ATOM     24  C   UNL     1      37.170 -19.209 -20.778  0.00  0.00    +0.123 C 
ATOM     25  C   UNL     1      34.833 -19.988 -21.048  0.00  0.00    +0.123 C 
ATOM     26  C   UNL     1      37.225 -20.031 -19.495  0.00  0.00    +0.164 C 
ATOM     27  C   UNL     1      35.011 -20.767 -19.749  0.00  0.00    +0.164 C 
ENDBRANCH  16  23
ENDBRANCH  13  18
ENDBRANCH   7  12
BRANCH   2  28
ATOM     28  C   UNL     1      34.387  -8.106 -23.972  0.00  0.00    +0.032 C 
BRANCH  28  29
ATOM     29  C   UNL     1      35.104  -6.784 -23.619  0.00  0.00    +0.031 C 
BRANCH  29  31
ATOM     30  N   UNL     1      34.181  -3.587 -26.320  0.00  0.00    -0.242 NA
ATOM     31  C   UNL     1      34.779  -5.659 -24.569  0.00  0.00    -0.019 C 
ATOM     32  C   UNL     1      35.556  -5.476 -25.697  0.00  0.00    +0.016 C 
ATOM     33  C   UNL     1      33.710  -4.827 -24.298  0.00  0.00    +0.016 C 
ATOM     34  C   UNL     1      35.216  -4.429 -26.539  0.00  0.00    +0.099 C 
ATOM     35  C   UNL     1      33.453  -3.808 -25.202  0.00  0.00    +0.099 C 
ENDBRANCH  29  31
ENDBRANCH  28  29
ENDBRANCH   2  28
TORSDOF 6
ENDMDL
MODEL 8
REMARK VINA RESULT:     -10.7      7.592     14.026
REMARK  Name = 5326868
REMARK  6 active torsions:
REMARK  status: ('A' for Active; 'I' for Inactive)
REMARK    1  A    between atoms: C_2  and  C_28
REMARK    2  A    between atoms: C_7  and  N_12
REMARK    3  A    between atoms: C_13  and  C_18
REMARK    4  A    between atoms: C_16  and  N_23
REMARK    5  A    between atoms: C_28  and  C_29
REMARK    6  A    between atoms: C_29  and  C_31
REMARK                            x       y       z     vdW  Elec       q    Type
REMARK                         _______ _______ _______ _____ _____    ______ ____
ROOT
ATOM      1  N   UNL     1      32.598 -20.575 -20.145  0.00  0.00    -0.312 N 
ATOM      2  C   UNL     1      34.814 -20.455 -20.202  0.00  0.00    -0.006 C 
ATOM      3  C   UNL     1      34.440 -21.231 -19.070  0.00  0.00    +0.012 C 
ATOM      4  C   UNL     1      33.045 -21.291 -19.057  0.00  0.00    +0.048 C 
ATOM      5  C   UNL     1      33.660 -20.066 -20.843  0.00  0.00    +0.058 C 
ATOM      6  C   UNL     1      35.157 -21.890 -18.051  0.00  0.00    +0.016 C 
ATOM      7  C   UNL     1      34.453 -22.583 -17.060  0.00  0.00    +0.051 C 
ATOM      8  C   UNL     1      32.328 -21.980 -18.072  0.00  0.00    +0.016 C 
ATOM      9  C   UNL     1      33.060 -22.627 -17.072  0.00  0.00    +0.016 C 
ATOM     10  H   UNL     1      31.653 -20.448 -20.385  0.00  0.00    +0.152 HD
ENDROOT
BRANCH   7  12
ATOM     11  O   UNL     1      33.564 -23.437 -14.327  0.00  0.00    -0.270 OA
ATOM     12  N   UNL     1      35.156 -23.238 -16.046  0.00  0.00    -0.280 N 
ATOM     13  C   UNL     1      34.690 -23.615 -14.781  0.00  0.00    +0.250 C 
ATOM     14  H   UNL     1      36.094 -23.461 -16.246  0.00  0.00    +0.155 HD
BRANCH  13  18
ATOM     15  F   UNL     1      36.279 -24.863 -10.387  0.00  0.00    -0.204 F 
ATOM     16  C   UNL     1      37.716 -25.522 -13.664  0.00  0.00    +0.050 C 
ATOM     17  C   UNL     1      36.777 -24.899 -14.487  0.00  0.00    +0.019 C 
ATOM     18  C   UNL     1      35.692 -24.277 -13.905  0.00  0.00    +0.057 C 
ATOM     19  C   UNL     1      37.548 -25.509 -12.279  0.00  0.00    +0.044 C 
ATOM     20  C   UNL     1      35.502 -24.251 -12.539  0.00  0.00    +0.034 C 
ATOM     21  C   UNL     1      36.440 -24.873 -11.717  0.00  0.00    +0.142 C 
BRANCH  16  23
ATOM     22  O   UNL     1      41.054 -27.245 -15.554  0.00  0.00    -0.350 OA
ATOM     23  N   UNL     1      38.826 -26.161 -14.228  0.00  0.00    -0.303 N 
ATOM     24  C   UNL     1      40.180 -25.704 -13.895  0.00  0.00    +0.123 C 
ATOM     25  C   UNL     1      38.678 -26.760 -15.561  0.00  0.00    +0.123 C 
ATOM     26  C   UNL     1      41.185 -26.809 -14.201  0.00  0.00    +0.164 C 
ATOM     27  C   UNL     1      39.762 -27.810 -15.777  0.00  0.00    +0.164 C 
ENDBRANCH  16  23
ENDBRANCH  13  18
ENDBRANCH   7  12
BRANCH   2  28
ATOM     28  C   UNL     1      36.190 -20.121 -20.623  0.00  0.00    +0.032 C 
BRANCH  28  29
ATOM     29  C   UNL     1      36.407 -18.634 -20.983  0.00  0.00    +0.031 C 
BRANCH  29  31
ATOM     30  N   UNL     1      34.777 -17.560 -24.798  0.00  0.00    -0.242 NA
ATOM     31  C   UNL     1      35.833 -18.256 -22.326  0.00  0.00    -0.019 C 
ATOM     32  C   UNL     1      35.517 -16.936 -22.583  0.00  0.00    +0.016 C 
ATOM     33  C   UNL     1      35.631 -19.235 -23.279  0.00  0.00    +0.016 C 
ATOM     34  C   UNL     1      34.993 -16.641 -23.831  0.00  0.00    +0.099 C 
ATOM     35  C   UNL     1      35.102 -18.837 -24.497  0.00  0.00    +0.099 C 
ENDBRANCH  29  31
ENDBRANCH  28  29
ENDBRANCH   2  28
TORSDOF 6
ENDMDL
MODEL 9
REMARK VINA RESULT:     -10.6      5.701      9.919
REMARK  Name = 5326868
REMARK  6 active torsions:
REMARK  status: ('A' for Active; 'I' for Inactive)
REMARK    1  A    between atoms: C_2  and  C_28
REMARK    2  A    between atoms: C_7  and  N_12
REMARK    3  A    between atoms: C_13  and  C_18
REMARK    4  A    between atoms: C_16  and  N_23
REMARK    5  A    between atoms: C_28  and  C_29
REMARK    6  A    between atoms: C_29  and  C_31
REMARK                            x       y       z     vdW  Elec       q    Type
REMARK                         _______ _______ _______ _____ _____    ______ ____
ROOT
ATOM      1  N   UNL     1      33.850 -24.348 -14.995  0.00  0.00    -0.312 N 
ATOM      2  C   UNL     1      35.886 -23.487 -14.800  0.00  0.00    -0.006 C 
ATOM      3  C   UNL     1      35.301 -22.981 -15.995  0.00  0.00    +0.012 C 
ATOM      4  C   UNL     1      34.025 -23.538 -16.094  0.00  0.00    +0.048 C 
ATOM      5  C   UNL     1      34.970 -24.324 -14.207  0.00  0.00    +0.058 C 
ATOM      6  C   UNL     1      35.739 -22.102 -17.006  0.00  0.00    +0.016 C 
ATOM      7  C   UNL     1      34.883 -21.811 -18.074  0.00  0.00    +0.051 C 
ATOM      8  C   UNL     1      33.158 -23.257 -17.157  0.00  0.00    +0.016 C 
ATOM      9  C   UNL     1      33.613 -22.381 -18.147  0.00  0.00    +0.016 C 
ATOM     10  H   UNL     1      33.037 -24.870 -14.804  0.00  0.00    +0.152 HD
ENDROOT
BRANCH   7  12
ATOM     11  O   UNL     1      33.319 -20.422 -20.223  0.00  0.00    -0.270 OA
ATOM     12  N   UNL     1      35.309 -20.941 -19.080  0.00  0.00    -0.280 N 
ATOM     13  C   UNL     1      34.531 -20.317 -20.064  0.00  0.00    +0.250 C 
ATOM     14  H   UNL     1      36.272 -20.743 -19.101  0.00  0.00    +0.155 HD
BRANCH  13  18
ATOM     15  F   UNL     1      38.703 -18.587 -21.794  0.00  0.00    -0.204 F 
ATOM     16  C   UNL     1      35.284 -17.926 -22.850  0.00  0.00    +0.050 C 
ATOM     17  C   UNL     1      34.578 -18.728 -21.952  0.00  0.00    +0.019 C 
ATOM     18  C   UNL     1      35.282 -19.462 -21.021  0.00  0.00    +0.057 C 
ATOM     19  C   UNL     1      36.677 -17.879 -22.796  0.00  0.00    +0.044 C 
ATOM     20  C   UNL     1      36.659 -19.433 -20.947  0.00  0.00    +0.034 C 
ATOM     21  C   UNL     1      37.365 -18.632 -21.844  0.00  0.00    +0.142 C 
BRANCH  16  23
ATOM     22  O   UNL     1      33.440 -15.668 -25.880  0.00  0.00    -0.350 OA
ATOM     23  N   UNL     1      34.595 -17.172 -23.805  0.00  0.00    -0.303 N 
ATOM     24  C   UNL     1      33.913 -17.845 -24.916  0.00  0.00    +0.123 C 
ATOM     25  C   UNL     1      35.079 -15.816 -24.098  0.00  0.00    +0.123 C 
ATOM     26  C   UNL     1      32.858 -16.918 -25.509  0.00  0.00    +0.164 C 
ATOM     27  C   UNL     1      33.960 -14.996 -24.733  0.00  0.00    +0.164 C 
ENDBRANCH  16  23
ENDBRANCH  13  18
ENDBRANCH   7  12
BRANCH   2  28
ATOM     28  C   UNL     1      37.233 -23.175 -14.280  0.00  0.00    +0.032 C 
BRANCH  28  29
ATOM     29  C   UNL     1      37.788 -24.210 -13.277  0.00  0.00    +0.031 C 
BRANCH  29  31
ATOM     30  N   UNL     1      40.302 -27.159 -15.109  0.00  0.00    -0.242 NA
ATOM     31  C   UNL     1      38.673 -25.248 -13.921  0.00  0.00    -0.019 C 
ATOM     32  C   UNL     1      38.105 -26.231 -14.709  0.00  0.00    +0.016 C 
ATOM     33  C   UNL     1      40.038 -25.201 -13.715  0.00  0.00    +0.016 C 
ATOM     34  C   UNL     1      38.960 -27.160 -15.279  0.00  0.00    +0.099 C 
ATOM     35  C   UNL     1      40.808 -26.177 -14.329  0.00  0.00    +0.099 C 
ENDBRANCH  29  31
ENDBRANCH  28  29
ENDBRANCH   2  28
TORSDOF 6
ENDMDL
