MODEL 1
REMARK VINA RESULT:     -12.8      0.000      0.000
REMARK  Name = 25049750
REMARK  7 active torsions:
REMARK  status: ('A' for Active; 'I' for Inactive)
REMARK    1  A    between atoms: C_1  and  C_14
REMARK    2  A    between atoms: C_6  and  O_20
REMARK    3  A    between atoms: C_10  and  C_17
REMARK    4  A    between atoms: C_17  and  O_18
REMARK    5  A    between atoms: O_20  and  C_21
REMARK    6  A    between atoms: C_21  and  C_23
REMARK    7  A    between atoms: C_27  and  C_32
REMARK                            x       y       z     vdW  Elec       q    Type
REMARK                         _______ _______ _______ _____ _____    ______ ____
ROOT
ATOM      1  C   UNL     1      35.179 -19.671 -21.582  0.00  0.00    -0.004 C 
ATOM      2  C   UNL     1      33.791 -19.602 -21.450  0.00  0.00    +0.000 C 
ATOM      3  C   UNL     1      35.935 -20.363 -20.637  0.00  0.00    +0.000 C 
ATOM      4  C   UNL     1      33.162 -20.225 -20.373  0.00  0.00    +0.037 C 
ATOM      5  C   UNL     1      35.305 -20.987 -19.560  0.00  0.00    +0.037 C 
ATOM      6  C   UNL     1      33.918 -20.919 -19.428  0.00  0.00    +0.139 C 
ENDROOT
BRANCH   1  14
ATOM      7  O   UNL     1      33.893 -17.315 -25.185  0.00  0.00    -0.275 OA
ATOM      8  N   UNL     1      35.003 -18.944 -23.922  0.00  0.00    -0.302 N 
ATOM      9  C   UNL     1      35.294 -16.768 -23.342  0.00  0.00    +0.081 C 
ATOM     10  C   UNL     1      34.524 -15.643 -22.742  0.00  0.00    +0.108 C 
ATOM     11  C   UNL     1      35.627 -15.373 -23.731  0.00  0.00    +0.021 C 
ATOM     12  C   UNL     1      36.241 -17.523 -22.483  0.00  0.00    +0.033 C 
ATOM     13  C   UNL     1      34.630 -17.661 -24.276  0.00  0.00    +0.222 C 
ATOM     14  C   UNL     1      35.861 -18.996 -22.750  0.00  0.00    +0.095 C 
ATOM     15  H   UNL     1      34.715 -19.745 -24.417  0.00  0.00    +0.150 HD
BRANCH  10  17
ATOM     16  O   UNL     1      35.051 -15.956 -20.479  0.00  0.00    -0.250 OA
ATOM     17  C   UNL     1      34.812 -15.187 -21.399  0.00  0.00    +0.314 C 
BRANCH  17  18
ATOM     18  O   UNL     1      34.787 -13.837 -21.290  0.00  0.00    -0.480 OA
ATOM     19  H   UNL     1      35.584 -13.362 -21.160  0.00  0.00    +0.295 HD
ENDBRANCH  17  18
ENDBRANCH  10  17
ENDBRANCH   1  14
BRANCH   6  20
ATOM     20  O   UNL     1      33.299 -21.531 -18.370  0.00  0.00    -0.471 OA
BRANCH  20  21
ATOM     21  C   UNL     1      33.690 -22.867 -18.085  0.00  0.00    +0.229 C 
BRANCH  21  23
ATOM     22  N   UNL     1      33.684 -23.508 -13.854  0.00  0.00    -0.406 NA
ATOM     23  C   UNL     1      33.650 -23.086 -16.604  0.00  0.00    +0.012 C 
ATOM     24  C   UNL     1      32.456 -23.036 -15.873  0.00  0.00    +0.096 C 
ATOM     25  C   UNL     1      34.852 -23.347 -15.962  0.00  0.00    +0.028 C 
ATOM     26  C   UNL     1      32.519 -23.256 -14.481  0.00  0.00    +0.117 C 
ATOM     27  C   UNL     1      34.814 -23.549 -14.596  0.00  0.00    +0.130 C 
ATOM     28  C   UNL     1      31.223 -22.775 -16.496  0.00  0.00    -0.015 C 
ATOM     29  C   UNL     1      31.333 -23.205 -13.756  0.00  0.00    +0.028 C 
ATOM     30  C   UNL     1      30.052 -22.729 -15.746  0.00  0.00    -0.004 C 
ATOM     31  C   UNL     1      30.107 -22.945 -14.374  0.00  0.00    +0.002 C 
BRANCH  27  32
ATOM     32  C   UNL     1      36.019 -23.825 -13.851  0.00  0.00    +0.030 C 
ATOM     33  C   UNL     1      37.107 -24.428 -14.484  0.00  0.00    +0.003 C 
ATOM     34  C   UNL     1      36.097 -23.489 -12.500  0.00  0.00    +0.003 C 
ATOM     35  C   UNL     1      38.273 -24.694 -13.764  0.00  0.00    +0.000 C 
ATOM     36  C   UNL     1      37.263 -23.755 -11.781  0.00  0.00    +0.000 C 
ATOM     37  C   UNL     1      38.350 -24.358 -12.413  0.00  0.00    +0.000 C 
ENDBRANCH  27  32
ENDBRANCH  21  23
ENDBRANCH  20  21
ENDBRANCH   6  20
TORSDOF 7
ENDMDL
MODEL 2
REMARK VINA RESULT:     -12.5      1.000      4.172
REMARK  Name = 25049750
REMARK  7 active torsions:
REMARK  status: ('A' for Active; 'I' for Inactive)
REMARK    1  A    between atoms: C_1  and  C_14
REMARK    2  A    between atoms: C_6  and  O_20
REMARK    3  A    between atoms: C_10  and  C_17
REMARK    4  A    between atoms: C_17  and  O_18
REMARK    5  A    between atoms: O_20  and  C_21
REMARK    6  A    between atoms: C_21  and  C_23
REMARK    7  A    between atoms: C_27  and  C_32
REMARK                            x       y       z     vdW  Elec       q    Type
REMARK                         _______ _______ _______ _____ _____    ______ ____
ROOT
ATOM      1  C   UNL     1      35.562 -19.231 -21.929  0.00  0.00    -0.004 C 
ATOM      2  C   UNL     1      36.487 -19.804 -21.055  0.00  0.00    +0.000 C 
ATOM      3  C   UNL     1      34.196 -19.414 -21.715  0.00  0.00    +0.000 C 
ATOM      4  C   UNL     1      36.046 -20.558 -19.969  0.00  0.00    +0.037 C 
ATOM      5  C   UNL     1      33.755 -20.168 -20.627  0.00  0.00    +0.037 C 
ATOM      6  C   UNL     1      34.680 -20.740 -19.754  0.00  0.00    +0.139 C 
ENDROOT
BRANCH   1  14
ATOM      7  O   UNL     1      33.658 -16.820 -25.208  0.00  0.00    -0.275 OA
ATOM      8  N   UNL     1      35.063 -18.387 -24.182  0.00  0.00    -0.302 N 
ATOM      9  C   UNL     1      35.179 -16.232 -23.476  0.00  0.00    +0.081 C 
ATOM     10  C   UNL     1      34.360 -15.241 -22.723  0.00  0.00    +0.108 C 
ATOM     11  C   UNL     1      35.318 -14.786 -23.793  0.00  0.00    +0.021 C 
ATOM     12  C   UNL     1      36.287 -16.925 -22.771  0.00  0.00    +0.033 C 
ATOM     13  C   UNL     1      34.520 -17.136 -24.403  0.00  0.00    +0.222 C 
ATOM     14  C   UNL     1      36.041 -18.412 -23.106  0.00  0.00    +0.095 C 
ATOM     15  H   UNL     1      34.812 -19.184 -24.703  0.00  0.00    +0.150 HD
BRANCH  10  17
ATOM     16  O   UNL     1      34.868 -13.668 -21.061  0.00  0.00    -0.250 OA
ATOM     17  C   UNL     1      34.738 -14.839 -21.385  0.00  0.00    +0.314 C 
BRANCH  17  18
ATOM     18  O   UNL     1      34.923 -15.894 -20.556  0.00  0.00    -0.480 OA
ATOM     19  H   UNL     1      34.990 -15.758 -19.632  0.00  0.00    +0.295 HD
ENDBRANCH  17  18
ENDBRANCH  10  17
ENDBRANCH   1  14
BRANCH   6  20
ATOM     20  O   UNL     1      34.246 -21.482 -18.686  0.00  0.00    -0.471 OA
BRANCH  20  21
ATOM     21  C   UNL     1      35.243 -22.130 -17.909  0.00  0.00    +0.229 C 
BRANCH  21  23
ATOM     22  N   UNL     1      33.339 -23.787 -14.454  0.00  0.00    -0.406 NA
ATOM     23  C   UNL     1      34.611 -22.713 -16.683  0.00  0.00    +0.012 C 
ATOM     24  C   UNL     1      35.361 -23.078 -15.557  0.00  0.00    +0.096 C 
ATOM     25  C   UNL     1      33.234 -22.884 -16.691  0.00  0.00    +0.028 C 
ATOM     26  C   UNL     1      34.675 -23.619 -14.450  0.00  0.00    +0.117 C 
ATOM     27  C   UNL     1      32.652 -23.422 -15.560  0.00  0.00    +0.130 C 
ATOM     28  C   UNL     1      36.757 -22.916 -15.519  0.00  0.00    -0.015 C 
ATOM     29  C   UNL     1      35.421 -23.982 -13.332  0.00  0.00    +0.028 C 
ATOM     30  C   UNL     1      37.477 -23.288 -14.389  0.00  0.00    -0.004 C 
ATOM     31  C   UNL     1      36.809 -23.821 -13.294  0.00  0.00    +0.002 C 
BRANCH  27  32
ATOM     32  C   UNL     1      31.226 -23.633 -15.486  0.00  0.00    +0.030 C 
ATOM     33  C   UNL     1      30.717 -24.704 -14.750  0.00  0.00    +0.003 C 
ATOM     34  C   UNL     1      30.357 -22.769 -16.150  0.00  0.00    +0.003 C 
ATOM     35  C   UNL     1      29.339 -24.909 -14.678  0.00  0.00    +0.000 C 
ATOM     36  C   UNL     1      28.979 -22.973 -16.078  0.00  0.00    +0.000 C 
ATOM     37  C   UNL     1      28.470 -24.044 -15.343  0.00  0.00    +0.000 C 
ENDBRANCH  27  32
ENDBRANCH  21  23
ENDBRANCH  20  21
ENDBRANCH   6  20
TORSDOF 7
ENDMDL
MODEL 3
REMARK VINA RESULT:     -11.2      1.533      2.300
REMARK  Name = 25049750
REMARK  7 active torsions:
REMARK  status: ('A' for Active; 'I' for Inactive)
REMARK    1  A    between atoms: C_1  and  C_14
REMARK    2  A    between atoms: C_6  and  O_20
REMARK    3  A    between atoms: C_10  and  C_17
REMARK    4  A    between atoms: C_17  and  O_18
REMARK    5  A    between atoms: O_20  and  C_21
REMARK    6  A    between atoms: C_21  and  C_23
REMARK    7  A    between atoms: C_27  and  C_32
REMARK                            x       y       z     vdW  Elec       q    Type
REMARK                         _______ _______ _______ _____ _____    ______ ____
ROOT
ATOM      1  C   UNL     1      35.950 -18.588 -22.760  0.00  0.00    -0.004 C 
ATOM      2  C   UNL     1      37.159 -18.451 -22.076  0.00  0.00    +0.000 C 
ATOM      3  C   UNL     1      34.884 -19.260 -22.162  0.00  0.00    +0.000 C 
ATOM      4  C   UNL     1      37.301 -18.987 -20.796  0.00  0.00    +0.037 C 
ATOM      5  C   UNL     1      35.027 -19.796 -20.882  0.00  0.00    +0.037 C 
ATOM      6  C   UNL     1      36.234 -19.659 -20.199  0.00  0.00    +0.139 C 
ENDROOT
BRANCH   1  14
ATOM      7  O   UNL     1      32.551 -17.206 -25.352  0.00  0.00    -0.275 OA
ATOM      8  N   UNL     1      34.506 -18.333 -24.731  0.00  0.00    -0.302 N 
ATOM      9  C   UNL     1      34.459 -16.075 -24.492  0.00  0.00    +0.081 C 
ATOM     10  C   UNL     1      33.801 -15.040 -23.648  0.00  0.00    +0.108 C 
ATOM     11  C   UNL     1      34.192 -14.732 -25.069  0.00  0.00    +0.021 C 
ATOM     12  C   UNL     1      35.859 -16.464 -24.184  0.00  0.00    +0.033 C 
ATOM     13  C   UNL     1      33.691 -17.233 -24.918  0.00  0.00    +0.222 C 
ATOM     14  C   UNL     1      35.797 -18.006 -24.147  0.00  0.00    +0.095 C 
ATOM     15  H   UNL     1      34.239 -19.250 -24.972  0.00  0.00    +0.150 HD
BRANCH  10  17
ATOM     16  O   UNL     1      34.880 -14.791 -21.581  0.00  0.00    -0.250 OA
ATOM     17  C   UNL     1      34.560 -14.307 -22.657  0.00  0.00    +0.314 C 
BRANCH  17  18
ATOM     18  O   UNL     1      34.867 -13.050 -23.058  0.00  0.00    -0.480 OA
ATOM     19  H   UNL     1      34.888 -12.351 -22.435  0.00  0.00    +0.295 HD
ENDBRANCH  17  18
ENDBRANCH  10  17
ENDBRANCH   1  14
BRANCH   6  20
ATOM     20  O   UNL     1      36.374 -20.186 -18.941  0.00  0.00    -0.471 OA
BRANCH  20  21
ATOM     21  C   UNL     1      36.686 -21.569 -18.857  0.00  0.00    +0.229 C 
BRANCH  21  23
ATOM     22  N   UNL     1      35.066 -23.197 -15.247  0.00  0.00    -0.406 NA
ATOM     23  C   UNL     1      36.085 -22.134 -17.608  0.00  0.00    +0.012 C 
ATOM     24  C   UNL     1      34.699 -22.261 -17.437  0.00  0.00    +0.096 C 
ATOM     25  C   UNL     1      36.952 -22.537 -16.603  0.00  0.00    +0.028 C 
ATOM     26  C   UNL     1      34.227 -22.806 -16.224  0.00  0.00    +0.117 C 
ATOM     27  C   UNL     1      36.396 -23.058 -15.451  0.00  0.00    +0.130 C 
ATOM     28  C   UNL     1      33.795 -21.862 -18.436  0.00  0.00    -0.015 C 
ATOM     29  C   UNL     1      32.852 -22.931 -16.055  0.00  0.00    +0.028 C 
ATOM     30  C   UNL     1      32.424 -21.999 -18.240  0.00  0.00    -0.004 C 
ATOM     31  C   UNL     1      31.952 -22.535 -17.048  0.00  0.00    +0.002 C 
BRANCH  27  32
ATOM     32  C   UNL     1      37.228 -23.500 -14.358  0.00  0.00    +0.030 C 
ATOM     33  C   UNL     1      38.234 -24.441 -14.583  0.00  0.00    +0.003 C 
ATOM     34  C   UNL     1      37.027 -22.988 -13.076  0.00  0.00    +0.003 C 
ATOM     35  C   UNL     1      39.039 -24.868 -13.526  0.00  0.00    +0.000 C 
ATOM     36  C   UNL     1      37.832 -23.415 -12.020  0.00  0.00    +0.000 C 
ATOM     37  C   UNL     1      38.837 -24.356 -12.245  0.00  0.00    +0.000 C 
ENDBRANCH  27  32
ENDBRANCH  21  23
ENDBRANCH  20  21
ENDBRANCH   6  20
TORSDOF 7
ENDMDL
MODEL 4
REMARK VINA RESULT:     -11.0      6.445     13.481
REMARK  Name = 25049750
REMARK  7 active torsions:
REMARK  status: ('A' for Active; 'I' for Inactive)
REMARK    1  A    between atoms: C_1  and  C_14
REMARK    2  A    between atoms: C_6  and  O_20
REMARK    3  A    between atoms: C_10  and  C_17
REMARK    4  A    between atoms: C_17  and  O_18
REMARK    5  A    between atoms: O_20  and  C_21
REMARK    6  A    between atoms: C_21  and  C_23
REMARK    7  A    between atoms: C_27  and  C_32
REMARK                            x       y       z     vdW  Elec       q    Type
REMARK                         _______ _______ _______ _____ _____    ______ ____
ROOT
ATOM      1  C   UNL     1      35.036 -15.182 -21.893  0.00  0.00    -0.004 C 
ATOM      2  C   UNL     1      34.774 -14.536 -23.102  0.00  0.00    +0.000 C 
ATOM      3  C   UNL     1      34.479 -14.697 -20.710  0.00  0.00    +0.000 C 
ATOM      4  C   UNL     1      33.956 -13.407 -23.127  0.00  0.00    +0.037 C 
ATOM      5  C   UNL     1      33.661 -13.568 -20.735  0.00  0.00    +0.037 C 
ATOM      6  C   UNL     1      33.399 -12.923 -21.944  0.00  0.00    +0.139 C 
ENDROOT
BRANCH   1  14
ATOM      7  O   UNL     1      34.590 -19.498 -20.724  0.00  0.00    -0.275 OA
ATOM      8  N   UNL     1      35.513 -17.349 -20.837  0.00  0.00    -0.302 N 
ATOM      9  C   UNL     1      35.156 -18.456 -22.787  0.00  0.00    +0.081 C 
ATOM     10  C   UNL     1      34.023 -18.913 -23.639  0.00  0.00    +0.108 C 
ATOM     11  C   UNL     1      35.317 -19.683 -23.611  0.00  0.00    +0.021 C 
ATOM     12  C   UNL     1      35.890 -17.225 -23.175  0.00  0.00    +0.033 C 
ATOM     13  C   UNL     1      35.034 -18.542 -21.342  0.00  0.00    +0.222 C 
ATOM     14  C   UNL     1      35.922 -16.407 -21.867  0.00  0.00    +0.095 C 
ATOM     15  H   UNL     1      35.572 -17.155 -19.874  0.00  0.00    +0.150 HD
BRANCH  10  17
ATOM     16  O   UNL     1      34.517 -17.468 -25.419  0.00  0.00    -0.250 OA
ATOM     17  C   UNL     1      33.749 -18.269 -24.906  0.00  0.00    +0.314 C 
BRANCH  17  18
ATOM     18  O   UNL     1      32.566 -18.655 -25.443  0.00  0.00    -0.480 OA
ATOM     19  H   UNL     1      31.849 -18.882 -24.884  0.00  0.00    +0.295 HD
ENDBRANCH  17  18
ENDBRANCH  10  17
ENDBRANCH   1  14
BRANCH   6  20
ATOM     20  O   UNL     1      32.595 -11.813 -21.968  0.00  0.00    -0.471 OA
BRANCH  20  21
ATOM     21  C   UNL     1      32.685 -10.981 -23.117  0.00  0.00    +0.229 C 
BRANCH  21  23
ATOM     22  N   UNL     1      32.908  -6.863 -21.977  0.00  0.00    -0.406 NA
ATOM     23  C   UNL     1      32.750  -9.550 -22.684  0.00  0.00    +0.012 C 
ATOM     24  C   UNL     1      32.373  -9.140 -21.398  0.00  0.00    +0.096 C 
ATOM     25  C   UNL     1      33.204  -8.619 -23.608  0.00  0.00    +0.028 C 
ATOM     26  C   UNL     1      32.469  -7.769 -21.082  0.00  0.00    +0.117 C 
ATOM     27  C   UNL     1      33.263  -7.299 -23.207  0.00  0.00    +0.130 C 
ATOM     28  C   UNL     1      31.910 -10.059 -20.439  0.00  0.00    -0.015 C 
ATOM     29  C   UNL     1      32.094  -7.364 -19.805  0.00  0.00    +0.028 C 
ATOM     30  C   UNL     1      31.541  -9.626 -19.170  0.00  0.00    -0.004 C 
ATOM     31  C   UNL     1      31.634  -8.276 -18.852  0.00  0.00    +0.002 C 
BRANCH  27  32
ATOM     32  C   UNL     1      33.722  -6.269 -24.107  0.00  0.00    +0.030 C 
ATOM     33  C   UNL     1      32.866  -5.231 -24.474  0.00  0.00    +0.003 C 
ATOM     34  C   UNL     1      35.022  -6.311 -24.610  0.00  0.00    +0.003 C 
ATOM     35  C   UNL     1      33.310  -4.234 -25.344  0.00  0.00    +0.000 C 
ATOM     36  C   UNL     1      35.466  -5.314 -25.480  0.00  0.00    +0.000 C 
ATOM     37  C   UNL     1      34.609  -4.277 -25.847  0.00  0.00    +0.000 C 
ENDBRANCH  27  32
ENDBRANCH  21  23
ENDBRANCH  20  21
ENDBRANCH   6  20
TORSDOF 7
ENDMDL
MODEL 5
REMARK VINA RESULT:     -10.8      7.315     11.780
REMARK  Name = 25049750
REMARK  7 active torsions:
REMARK  status: ('A' for Active; 'I' for Inactive)
REMARK    1  A    between atoms: C_1  and  C_14
REMARK    2  A    between atoms: C_6  and  O_20
REMARK    3  A    between atoms: C_10  and  C_17
REMARK    4  A    between atoms: C_17  and  O_18
REMARK    5  A    between atoms: O_20  and  C_21
REMARK    6  A    between atoms: C_21  and  C_23
REMARK    7  A    between atoms: C_27  and  C_32
REMARK                            x       y       z     vdW  Elec       q    Type
REMARK                         _______ _______ _______ _____ _____    ______ ____
ROOT
ATOM      1  C   UNL     1      35.068  -8.052 -24.164  0.00  0.00    -0.004 C 
ATOM      2  C   UNL     1      33.956  -8.767 -23.715  0.00  0.00    +0.000 C 
ATOM      3  C   UNL     1      36.001  -8.666 -24.999  0.00  0.00    +0.000 C 
ATOM      4  C   UNL     1      33.780 -10.096 -24.102  0.00  0.00    +0.037 C 
ATOM      5  C   UNL     1      35.824  -9.994 -25.385  0.00  0.00    +0.037 C 
ATOM      6  C   UNL     1      34.713 -10.709 -24.938  0.00  0.00    +0.139 C 
ENDROOT
BRANCH   1  14
ATOM      7  O   UNL     1      34.000  -4.012 -25.817  0.00  0.00    -0.275 OA
ATOM      8  N   UNL     1      35.310  -5.717 -24.890  0.00  0.00    -0.302 N 
ATOM      9  C   UNL     1      33.426  -5.104 -23.782  0.00  0.00    +0.081 C 
ATOM     10  C   UNL     1      31.946  -5.189 -23.931  0.00  0.00    +0.108 C 
ATOM     11  C   UNL     1      32.575  -4.034 -23.197  0.00  0.00    +0.021 C 
ATOM     12  C   UNL     1      34.109  -6.060 -22.874  0.00  0.00    +0.033 C 
ATOM     13  C   UNL     1      34.240  -4.845 -24.957  0.00  0.00    +0.222 C 
ATOM     14  C   UNL     1      35.258  -6.611 -23.745  0.00  0.00    +0.095 C 
ATOM     15  H   UNL     1      36.038  -5.731 -25.553  0.00  0.00    +0.150 HD
BRANCH  10  17
ATOM     16  O   UNL     1      30.738  -5.728 -21.995  0.00  0.00    -0.250 OA
ATOM     17  C   UNL     1      31.171  -6.071 -23.085  0.00  0.00    +0.314 C 
BRANCH  17  18
ATOM     18  O   UNL     1      30.988  -7.295 -23.637  0.00  0.00    -0.480 OA
ATOM     19  H   UNL     1      31.601  -7.624 -24.263  0.00  0.00    +0.295 HD
ENDBRANCH  17  18
ENDBRANCH  10  17
ENDBRANCH   1  14
BRANCH   6  20
ATOM     20  O   UNL     1      34.539 -12.014 -25.318  0.00  0.00    -0.471 OA
BRANCH  20  21
ATOM     21  C   UNL     1      33.334 -12.646 -24.910  0.00  0.00    +0.229 C 
BRANCH  21  23
ATOM     22  N   UNL     1      34.081 -14.851 -21.320  0.00  0.00    -0.406 NA
ATOM     23  C   UNL     1      33.577 -13.391 -23.634  0.00  0.00    +0.012 C 
ATOM     24  C   UNL     1      33.100 -12.933 -22.399  0.00  0.00    +0.096 C 
ATOM     25  C   UNL     1      34.300 -14.573 -23.709  0.00  0.00    +0.028 C 
ATOM     26  C   UNL     1      33.378 -13.705 -21.251  0.00  0.00    +0.117 C 
ATOM     27  C   UNL     1      34.523 -15.259 -22.531  0.00  0.00    +0.130 C 
ATOM     28  C   UNL     1      32.363 -11.740 -22.291  0.00  0.00    -0.015 C 
ATOM     29  C   UNL     1      32.905 -13.248 -20.025  0.00  0.00    +0.028 C 
ATOM     30  C   UNL     1      31.902 -11.308 -21.052  0.00  0.00    -0.004 C 
ATOM     31  C   UNL     1      32.173 -12.063 -19.917  0.00  0.00    +0.002 C 
BRANCH  27  32
ATOM     32  C   UNL     1      35.267 -16.496 -22.521  0.00  0.00    +0.030 C 
ATOM     33  C   UNL     1      35.856 -16.946 -21.339  0.00  0.00    +0.003 C 
ATOM     34  C   UNL     1      35.398 -17.242 -23.692  0.00  0.00    +0.003 C 
ATOM     35  C   UNL     1      36.574 -18.142 -21.328  0.00  0.00    +0.000 C 
ATOM     36  C   UNL     1      36.116 -18.437 -23.682  0.00  0.00    +0.000 C 
ATOM     37  C   UNL     1      36.705 -18.887 -22.500  0.00  0.00    +0.000 C 
ENDBRANCH  27  32
ENDBRANCH  21  23
ENDBRANCH  20  21
ENDBRANCH   6  20
TORSDOF 7
ENDMDL
MODEL 6
REMARK VINA RESULT:     -10.6      5.220      9.744
REMARK  Name = 25049750
REMARK  7 active torsions:
REMARK  status: ('A' for Active; 'I' for Inactive)
REMARK    1  A    between atoms: C_1  and  C_14
REMARK    2  A    between atoms: C_6  and  O_20
REMARK    3  A    between atoms: C_10  and  C_17
REMARK    4  A    between atoms: C_17  and  O_18
REMARK    5  A    between atoms: O_20  and  C_21
REMARK    6  A    between atoms: C_21  and  C_23
REMARK    7  A    between atoms: C_27  and  C_32
REMARK                            x       y       z     vdW  Elec       q    Type
REMARK                         _______ _______ _______ _____ _____    ______ ____
ROOT
ATOM      1  C   UNL     1      32.561 -11.254 -22.117  0.00  0.00    -0.004 C 
ATOM      2  C   UNL     1      32.638 -12.395 -21.317  0.00  0.00    +0.000 C 
ATOM      3  C   UNL     1      33.400 -11.122 -23.224  0.00  0.00    +0.000 C 
ATOM      4  C   UNL     1      33.554 -13.402 -21.623  0.00  0.00    +0.037 C 
ATOM      5  C   UNL     1      34.316 -12.129 -23.529  0.00  0.00    +0.037 C 
ATOM      6  C   UNL     1      34.392 -13.269 -22.730  0.00  0.00    +0.139 C 
ENDROOT
BRANCH   1  14
ATOM      7  O   UNL     1      32.287  -7.892 -19.150  0.00  0.00    -0.275 OA
ATOM      8  N   UNL     1      31.642  -9.771 -20.388  0.00  0.00    -0.302 N 
ATOM      9  C   UNL     1      32.296  -7.920 -21.529  0.00  0.00    +0.081 C 
ATOM     10  C   UNL     1      33.533  -7.137 -21.803  0.00  0.00    +0.108 C 
ATOM     11  C   UNL     1      32.191  -6.456 -21.762  0.00  0.00    +0.021 C 
ATOM     12  C   UNL     1      31.797  -8.854 -22.570  0.00  0.00    +0.033 C 
ATOM     13  C   UNL     1      32.092  -8.478 -20.203  0.00  0.00    +0.222 C 
ATOM     14  C   UNL     1      31.568 -10.164 -21.786  0.00  0.00    +0.095 C 
ATOM     15  H   UNL     1      31.395 -10.368 -19.645  0.00  0.00    +0.150 HD
BRANCH  10  17
ATOM     16  O   UNL     1      33.801  -6.404 -24.014  0.00  0.00    -0.250 OA
ATOM     17  C   UNL     1      34.142  -7.159 -23.115  0.00  0.00    +0.314 C 
BRANCH  17  18
ATOM     18  O   UNL     1      35.116  -8.095 -23.224  0.00  0.00    -0.480 OA
ATOM     19  H   UNL     1      35.925  -7.883 -23.645  0.00  0.00    +0.295 HD
ENDBRANCH  17  18
ENDBRANCH  10  17
ENDBRANCH   1  14
BRANCH   6  20
ATOM     20  O   UNL     1      35.292 -14.258 -23.031  0.00  0.00    -0.471 OA
BRANCH  20  21
ATOM     21  C   UNL     1      35.103 -14.945 -24.260  0.00  0.00    +0.229 C 
BRANCH  21  23
ATOM     22  N   UNL     1      33.968 -18.974 -23.374  0.00  0.00    -0.406 NA
ATOM     23  C   UNL     1      34.681 -16.353 -23.977  0.00  0.00    +0.012 C 
ATOM     24  C   UNL     1      33.670 -16.990 -24.710  0.00  0.00    +0.096 C 
ATOM     25  C   UNL     1      35.329 -17.025 -22.951  0.00  0.00    +0.028 C 
ATOM     26  C   UNL     1      33.341 -18.320 -24.370  0.00  0.00    +0.117 C 
ATOM     27  C   UNL     1      34.938 -18.323 -22.692  0.00  0.00    +0.130 C 
ATOM     28  C   UNL     1      32.995 -16.337 -25.755  0.00  0.00    -0.015 C 
ATOM     29  C   UNL     1      32.337 -18.952 -25.097  0.00  0.00    +0.028 C 
ATOM     30  C   UNL     1      31.995 -16.993 -26.466  0.00  0.00    -0.004 C 
ATOM     31  C   UNL     1      31.666 -18.303 -26.137  0.00  0.00    +0.002 C 
BRANCH  27  32
ATOM     32  C   UNL     1      35.561 -19.092 -21.641  0.00  0.00    +0.030 C 
ATOM     33  C   UNL     1      34.838 -20.086 -20.981  0.00  0.00    +0.003 C 
ATOM     34  C   UNL     1      36.886 -18.841 -21.285  0.00  0.00    +0.003 C 
ATOM     35  C   UNL     1      35.441 -20.829 -19.966  0.00  0.00    +0.000 C 
ATOM     36  C   UNL     1      37.489 -19.585 -20.270  0.00  0.00    +0.000 C 
ATOM     37  C   UNL     1      36.765 -20.578 -19.610  0.00  0.00    +0.000 C 
ENDBRANCH  27  32
ENDBRANCH  21  23
ENDBRANCH  20  21
ENDBRANCH   6  20
TORSDOF 7
ENDMDL
MODEL 7
REMARK VINA RESULT:     -10.6      5.606     10.438
REMARK  Name = 25049750
REMARK  7 active torsions:
REMARK  status: ('A' for Active; 'I' for Inactive)
REMARK    1  A    between atoms: C_1  and  C_14
REMARK    2  A    between atoms: C_6  and  O_20
REMARK    3  A    between atoms: C_10  and  C_17
REMARK    4  A    between atoms: C_17  and  O_18
REMARK    5  A    between atoms: O_20  and  C_21
REMARK    6  A    between atoms: C_21  and  C_23
REMARK    7  A    between atoms: C_27  and  C_32
REMARK                            x       y       z     vdW  Elec       q    Type
REMARK                         _______ _______ _______ _____ _____    ______ ____
ROOT
ATOM      1  C   UNL     1      31.925  -9.520 -21.928  0.00  0.00    -0.004 C 
ATOM      2  C   UNL     1      32.721 -10.286 -22.781  0.00  0.00    +0.000 C 
ATOM      3  C   UNL     1      31.546 -10.029 -20.686  0.00  0.00    +0.000 C 
ATOM      4  C   UNL     1      33.136 -11.560 -22.392  0.00  0.00    +0.037 C 
ATOM      5  C   UNL     1      31.961 -11.303 -20.298  0.00  0.00    +0.037 C 
ATOM      6  C   UNL     1      32.756 -12.068 -21.150  0.00  0.00    +0.139 C 
ENDROOT
BRANCH   1  14
ATOM      7  O   UNL     1      32.846  -5.290 -20.724  0.00  0.00    -0.275 OA
ATOM      8  N   UNL     1      31.575  -7.182 -21.259  0.00  0.00    -0.302 N 
ATOM      9  C   UNL     1      33.080  -6.445 -22.791  0.00  0.00    +0.081 C 
ATOM     10  C   UNL     1      34.555  -6.362 -22.979  0.00  0.00    +0.108 C 
ATOM     11  C   UNL     1      33.647  -5.332 -23.596  0.00  0.00    +0.021 C 
ATOM     12  C   UNL     1      32.332  -7.527 -23.480  0.00  0.00    +0.033 C 
ATOM     13  C   UNL     1      32.522  -6.199 -21.472  0.00  0.00    +0.222 C 
ATOM     14  C   UNL     1      31.478  -8.139 -22.349  0.00  0.00    +0.095 C 
ATOM     15  H   UNL     1      31.019  -7.230 -20.447  0.00  0.00    +0.150 HD
BRANCH  10  17
ATOM     16  O   UNL     1      35.629  -8.330 -23.667  0.00  0.00    -0.250 OA
ATOM     17  C   UNL     1      35.223  -7.211 -23.944  0.00  0.00    +0.314 C 
BRANCH  17  18
ATOM     18  O   UNL     1      35.337  -6.628 -25.162  0.00  0.00    -0.480 OA
ATOM     19  H   UNL     1      35.888  -5.878 -25.272  0.00  0.00    +0.295 HD
ENDBRANCH  17  18
ENDBRANCH  10  17
ENDBRANCH   1  14
BRANCH   6  20
ATOM     20  O   UNL     1      33.163 -13.320 -20.768  0.00  0.00    -0.471 OA
BRANCH  20  21
ATOM     21  C   UNL     1      34.537 -13.631 -20.952  0.00  0.00    +0.229 C 
BRANCH  21  23
ATOM     22  N   UNL     1      34.904 -17.333 -23.067  0.00  0.00    -0.406 NA
ATOM     23  C   UNL     1      34.654 -14.909 -21.723  0.00  0.00    +0.012 C 
ATOM     24  C   UNL     1      34.339 -14.990 -23.087  0.00  0.00    +0.096 C 
ATOM     25  C   UNL     1      35.090 -16.034 -21.039  0.00  0.00    +0.028 C 
ATOM     26  C   UNL     1      34.481 -16.239 -23.728  0.00  0.00    +0.117 C 
ATOM     27  C   UNL     1      35.197 -17.212 -21.752  0.00  0.00    +0.130 C 
ATOM     28  C   UNL     1      33.895 -13.867 -23.807  0.00  0.00    -0.015 C 
ATOM     29  C   UNL     1      34.168 -16.318 -25.082  0.00  0.00    +0.028 C 
ATOM     30  C   UNL     1      33.590 -13.976 -25.160  0.00  0.00    -0.004 C 
ATOM     31  C   UNL     1      33.727 -15.203 -25.798  0.00  0.00    +0.002 C 
BRANCH  27  32
ATOM     32  C   UNL     1      35.643 -18.429 -21.116  0.00  0.00    +0.030 C 
ATOM     33  C   UNL     1      36.995 -18.608 -20.823  0.00  0.00    +0.003 C 
ATOM     34  C   UNL     1      34.722 -19.425 -20.793  0.00  0.00    +0.003 C 
ATOM     35  C   UNL     1      37.427 -19.783 -20.208  0.00  0.00    +0.000 C 
ATOM     36  C   UNL     1      35.154 -20.601 -20.177  0.00  0.00    +0.000 C 
ATOM     37  C   UNL     1      36.506 -20.779 -19.886  0.00  0.00    +0.000 C 
ENDBRANCH  27  32
ENDBRANCH  21  23
ENDBRANCH  20  21
ENDBRANCH   6  20
TORSDOF 7
ENDMDL
MODEL 8
REMARK VINA RESULT:     -10.4      9.126     16.820
REMARK  Name = 25049750
REMARK  7 active torsions:
REMARK  status: ('A' for Active; 'I' for Inactive)
REMARK    1  A    between atoms: C_1  and  C_14
REMARK    2  A    between atoms: C_6  and  O_20
REMARK    3  A    between atoms: C_10  and  C_17
REMARK    4  A    between atoms: C_17  and  O_18
REMARK    5  A    between atoms: O_20  and  C_21
REMARK    6  A    between atoms: C_21  and  C_23
REMARK    7  A    between atoms: C_27  and  C_32
REMARK                            x       y       z     vdW  Elec       q    Type
REMARK                         _______ _______ _______ _____ _____    ______ ____
ROOT
ATOM      1  C   UNL     1      33.989 -11.284 -23.787  0.00  0.00    -0.004 C 
ATOM      2  C   UNL     1      33.503 -10.154 -23.127  0.00  0.00    +0.000 C 
ATOM      3  C   UNL     1      34.942 -11.146 -24.796  0.00  0.00    +0.000 C 
ATOM      4  C   UNL     1      33.971  -8.887 -23.477  0.00  0.00    +0.037 C 
ATOM      5  C   UNL     1      35.410  -9.879 -25.145  0.00  0.00    +0.037 C 
ATOM      6  C   UNL     1      34.926  -8.750 -24.485  0.00  0.00    +0.139 C 
ENDROOT
BRANCH   1  14
ATOM      7  O   UNL     1      34.924 -14.340 -20.629  0.00  0.00    -0.275 OA
ATOM      8  N   UNL     1      34.510 -13.452 -22.755  0.00  0.00    -0.302 N 
ATOM      9  C   UNL     1      32.933 -13.146 -21.150  0.00  0.00    +0.081 C 
ATOM     10  C   UNL     1      32.738 -12.383 -19.886  0.00  0.00    +0.108 C 
ATOM     11  C   UNL     1      32.058 -13.712 -20.090  0.00  0.00    +0.021 C 
ATOM     12  C   UNL     1      32.314 -12.631 -22.398  0.00  0.00    +0.033 C 
ATOM     13  C   UNL     1      34.234 -13.729 -21.430  0.00  0.00    +0.222 C 
ATOM     14  C   UNL     1      33.482 -12.657 -23.407  0.00  0.00    +0.095 C 
ATOM     15  H   UNL     1      35.323 -13.763 -23.214  0.00  0.00    +0.150 HD
BRANCH  10  17
ATOM     16  O   UNL     1      30.920 -11.110 -20.643  0.00  0.00    -0.250 OA
ATOM     17  C   UNL     1      31.828 -11.259 -19.838  0.00  0.00    +0.314 C 
BRANCH  17  18
ATOM     18  O   UNL     1      32.098 -10.412 -18.815  0.00  0.00    -0.480 OA
ATOM     19  H   UNL     1      32.330 -10.752 -17.974  0.00  0.00    +0.295 HD
ENDBRANCH  17  18
ENDBRANCH  10  17
ENDBRANCH   1  14
BRANCH   6  20
ATOM     20  O   UNL     1      35.385  -7.505 -24.829  0.00  0.00    -0.471 OA
BRANCH  20  21
ATOM     21  C   UNL     1      35.372  -6.514 -23.811  0.00  0.00    +0.229 C 
BRANCH  21  23
ATOM     22  N   UNL     1      32.169  -3.794 -24.618  0.00  0.00    -0.406 NA
ATOM     23  C   UNL     1      34.238  -5.569 -24.059  0.00  0.00    +0.012 C 
ATOM     24  C   UNL     1      33.256  -5.311 -23.093  0.00  0.00    +0.096 C 
ATOM     25  C   UNL     1      34.183  -4.941 -25.295  0.00  0.00    +0.028 C 
ATOM     26  C   UNL     1      32.226  -4.404 -23.419  0.00  0.00    +0.117 C 
ATOM     27  C   UNL     1      33.136  -4.070 -25.522  0.00  0.00    +0.130 C 
ATOM     28  C   UNL     1      33.285  -5.931 -21.832  0.00  0.00    -0.015 C 
ATOM     29  C   UNL     1      31.251  -4.150 -22.459  0.00  0.00    +0.028 C 
ATOM     30  C   UNL     1      32.297  -5.657 -20.891  0.00  0.00    -0.004 C 
ATOM     31  C   UNL     1      31.278  -4.765 -21.205  0.00  0.00    +0.002 C 
BRANCH  27  32
ATOM     32  C   UNL     1      33.005  -3.377 -26.781  0.00  0.00    +0.030 C 
ATOM     33  C   UNL     1      31.973  -2.457 -26.967  0.00  0.00    +0.003 C 
ATOM     34  C   UNL     1      33.910  -3.626 -27.813  0.00  0.00    +0.003 C 
ATOM     35  C   UNL     1      31.847  -1.786 -28.184  0.00  0.00    +0.000 C 
ATOM     36  C   UNL     1      33.784  -2.955 -29.030  0.00  0.00    +0.000 C 
ATOM     37  C   UNL     1      32.751  -2.036 -29.215  0.00  0.00    +0.000 C 
ENDBRANCH  27  32
ENDBRANCH  21  23
ENDBRANCH  20  21
ENDBRANCH   6  20
TORSDOF 7
ENDMDL
MODEL 9
REMARK VINA RESULT:     -10.2      4.521      9.600
REMARK  Name = 25049750
REMARK  7 active torsions:
REMARK  status: ('A' for Active; 'I' for Inactive)
REMARK    1  A    between atoms: C_1  and  C_14
REMARK    2  A    between atoms: C_6  and  O_20
REMARK    3  A    between atoms: C_10  and  C_17
REMARK    4  A    between atoms: C_17  and  O_18
REMARK    5  A    between atoms: O_20  and  C_21
REMARK    6  A    between atoms: C_21  and  C_23
REMARK    7  A    between atoms: C_27  and  C_32
REMARK                            x       y       z     vdW  Elec       q    Type
REMARK                         _______ _______ _______ _____ _____    ______ ____
ROOT
ATOM      1  C   UNL     1      38.842 -24.730 -14.708  0.00  0.00    -0.004 C 
ATOM      2  C   UNL     1      38.057 -25.621 -13.975  0.00  0.00    +0.000 C 
ATOM      3  C   UNL     1      38.283 -23.550 -15.197  0.00  0.00    +0.000 C 
ATOM      4  C   UNL     1      36.715 -25.331 -13.732  0.00  0.00    +0.037 C 
ATOM      5  C   UNL     1      36.941 -23.260 -14.953  0.00  0.00    +0.037 C 
ATOM      6  C   UNL     1      36.156 -24.150 -14.220  0.00  0.00    +0.139 C 
ENDROOT
BRANCH   1  14
ATOM      7  O   UNL     1      41.820 -27.781 -13.289  0.00  0.00    -0.275 OA
ATOM      8  N   UNL     1      40.927 -25.684 -13.827  0.00  0.00    -0.302 N 
ATOM      9  C   UNL     1      40.972 -27.268 -15.453  0.00  0.00    +0.081 C 
ATOM     10  C   UNL     1      40.311 -28.559 -15.795  0.00  0.00    +0.108 C 
ATOM     11  C   UNL     1      41.728 -28.288 -16.227  0.00  0.00    +0.021 C 
ATOM     12  C   UNL     1      40.520 -26.031 -16.137  0.00  0.00    +0.033 C 
ATOM     13  C   UNL     1      41.306 -26.991 -14.066  0.00  0.00    +0.222 C 
ATOM     14  C   UNL     1      40.297 -25.045 -14.970  0.00  0.00    +0.095 C 
ATOM     15  H   UNL     1      41.071 -25.229 -12.965  0.00  0.00    +0.150 HD
BRANCH  10  17
ATOM     16  O   UNL     1      39.436 -29.485 -17.763  0.00  0.00    -0.250 OA
ATOM     17  C   UNL     1      39.366 -28.634 -16.889  0.00  0.00    +0.314 C 
BRANCH  17  18
ATOM     18  O   UNL     1      38.416 -27.669 -16.826  0.00  0.00    -0.480 OA
ATOM     19  H   UNL     1      37.957 -27.413 -17.600  0.00  0.00    +0.295 HD
ENDBRANCH  17  18
ENDBRANCH  10  17
ENDBRANCH   1  14
BRANCH   6  20
ATOM     20  O   UNL     1      34.837 -23.865 -13.982  0.00  0.00    -0.471 OA
BRANCH  20  21
ATOM     21  C   UNL     1      33.876 -24.659 -14.663  0.00  0.00    +0.229 C 
BRANCH  21  23
ATOM     22  N   UNL     1      31.803 -22.173 -17.461  0.00  0.00    -0.406 NA
ATOM     23  C   UNL     1      33.119 -23.798 -15.625  0.00  0.00    +0.012 C 
ATOM     24  C   UNL     1      31.730 -23.628 -15.542  0.00  0.00    +0.096 C 
ATOM     25  C   UNL     1      33.842 -23.157 -16.621  0.00  0.00    +0.028 C 
ATOM     26  C   UNL     1      31.104 -22.795 -16.493  0.00  0.00    +0.117 C 
ATOM     27  C   UNL     1      33.141 -22.363 -17.507  0.00  0.00    +0.130 C 
ATOM     28  C   UNL     1      30.970 -24.262 -14.544  0.00  0.00    -0.015 C 
ATOM     29  C   UNL     1      29.725 -22.628 -16.410  0.00  0.00    +0.028 C 
ATOM     30  C   UNL     1      29.592 -24.077 -14.484  0.00  0.00    -0.004 C 
ATOM     31  C   UNL     1      28.969 -23.259 -15.418  0.00  0.00    +0.002 C 
BRANCH  27  32
ATOM     32  C   UNL     1      33.818 -21.663 -18.573  0.00  0.00    +0.030 C 
ATOM     33  C   UNL     1      35.200 -21.783 -18.720  0.00  0.00    +0.003 C 
ATOM     34  C   UNL     1      33.090 -20.865 -19.456  0.00  0.00    +0.003 C 
ATOM     35  C   UNL     1      35.854 -21.107 -19.750  0.00  0.00    +0.000 C 
ATOM     36  C   UNL     1      33.744 -20.189 -20.486  0.00  0.00    +0.000 C 
ATOM     37  C   UNL     1      35.126 -20.309 -20.632  0.00  0.00    +0.000 C 
ENDBRANCH  27  32
ENDBRANCH  21  23
ENDBRANCH  20  21
ENDBRANCH   6  20
TORSDOF 7
ENDMDL
