MODEL 1
REMARK VINA RESULT:     -12.2      0.000      0.000
REMARK  Name = 11610553
REMARK  5 active torsions:
REMARK  status: ('A' for Active; 'I' for Inactive)
REMARK    1  A    between atoms: C_1  and  C_9
REMARK    2  A    between atoms: C_4  and  O_19
REMARK    3  A    between atoms: C_10  and  C_14
REMARK    4  A    between atoms: O_19  and  C_20
REMARK    5  A    between atoms: C_20  and  C_22
REMARK                            x       y       z     vdW  Elec       q    Type
REMARK                         _______ _______ _______ _____ _____    ______ ____
ROOT
ATOM      1  C   UNL     1      33.389 -13.057 -22.381  0.00  0.00    +0.015 C 
ATOM      2  C   UNL     1      33.442 -13.661 -23.637  0.00  0.00    +0.004 C 
ATOM      3  C   UNL     1      34.124 -13.587 -21.320  0.00  0.00    +0.004 C 
ATOM      4  C   UNL     1      34.960 -15.318 -22.770  0.00  0.00    +0.139 C 
ATOM      5  C   UNL     1      34.230 -14.796 -23.832  0.00  0.00    +0.037 C 
ATOM      6  C   UNL     1      34.912 -14.721 -21.515  0.00  0.00    +0.037 C 
ENDROOT
BRANCH   1   9
ATOM      7  N   UNL     1      31.441 -11.910 -21.418  0.00  0.00    -0.236 N 
ATOM      8  N   UNL     1      30.811 -10.725 -21.342  0.00  0.00    -0.180 NA
ATOM      9  C   UNL     1      32.574 -11.885 -22.179  0.00  0.00    +0.067 C 
ATOM     10  C   UNL     1      32.692 -10.593 -22.633  0.00  0.00    +0.036 C 
ATOM     11  C   UNL     1      31.580  -9.925 -22.086  0.00  0.00    +0.119 C 
ATOM     12  H   UNL     1      31.117 -12.721 -20.965  0.00  0.00    +0.174 HD
BRANCH  10  14
ATOM     13  N   UNL     1      35.804  -9.166 -25.119  0.00  0.00    -0.242 NA
ATOM     14  C   UNL     1      33.744 -10.110 -23.475  0.00  0.00    +0.006 C 
ATOM     15  C   UNL     1      34.305  -8.855 -23.247  0.00  0.00    +0.021 C 
ATOM     16  C   UNL     1      34.217 -10.891 -24.526  0.00  0.00    +0.021 C 
ATOM     17  C   UNL     1      35.321  -8.434 -24.089  0.00  0.00    +0.099 C 
ATOM     18  C   UNL     1      35.237 -10.378 -25.311  0.00  0.00    +0.099 C 
ENDBRANCH  10  14
ENDBRANCH   1   9
BRANCH   4  19
ATOM     19  O   UNL     1      35.734 -16.432 -22.962  0.00  0.00    -0.468 OA
BRANCH  19  20
ATOM     20  C   UNL     1      35.050 -17.654 -23.205  0.00  0.00    +0.264 C 
BRANCH  20  22
ATOM     21  N   UNL     1      34.263 -19.266 -21.580  0.00  0.00    -0.406 NA
ATOM     22  C   UNL     1      35.328 -18.609 -22.093  0.00  0.00    +0.152 C 
ATOM     23  C   UNL     1      35.765 -20.368 -20.051  0.00  0.00    +0.026 C 
ATOM     24  C   UNL     1      34.475 -20.135 -20.573  0.00  0.00    +0.113 C 
ATOM     25  C   UNL     1      36.625 -18.771 -21.648  0.00  0.00    +0.031 C 
ATOM     26  C   UNL     1      36.841 -19.666 -20.611  0.00  0.00    +0.005 C 
ATOM     27  C   UNL     1      35.950 -21.282 -19.000  0.00  0.00    +0.002 C 
ATOM     28  C   UNL     1      33.408 -20.833 -20.016  0.00  0.00    +0.085 C 
ATOM     29  C   UNL     1      34.864 -21.967 -18.462  0.00  0.00    -0.004 C 
ATOM     30  C   UNL     1      33.592 -21.742 -18.971  0.00  0.00    -0.019 C 
ENDBRANCH  20  22
ENDBRANCH  19  20
ENDBRANCH   4  19
TORSDOF 5
ENDMDL
MODEL 2
REMARK VINA RESULT:     -11.8      5.556     12.659
REMARK  Name = 11610553
REMARK  5 active torsions:
REMARK  status: ('A' for Active; 'I' for Inactive)
REMARK    1  A    between atoms: C_1  and  C_9
REMARK    2  A    between atoms: C_4  and  O_19
REMARK    3  A    between atoms: C_10  and  C_14
REMARK    4  A    between atoms: O_19  and  C_20
REMARK    5  A    between atoms: C_20  and  C_22
REMARK                            x       y       z     vdW  Elec       q    Type
REMARK                         _______ _______ _______ _____ _____    ______ ____
ROOT
ATOM      1  C   UNL     1      36.202 -22.953 -15.024  0.00  0.00    +0.015 C 
ATOM      2  C   UNL     1      35.168 -22.951 -15.959  0.00  0.00    +0.004 C 
ATOM      3  C   UNL     1      37.420 -22.344 -15.327  0.00  0.00    +0.004 C 
ATOM      4  C   UNL     1      36.568 -21.735 -17.496  0.00  0.00    +0.139 C 
ATOM      5  C   UNL     1      35.352 -22.340 -17.200  0.00  0.00    +0.037 C 
ATOM      6  C   UNL     1      37.604 -21.733 -16.567  0.00  0.00    +0.037 C 
ENDROOT
BRANCH   1   9
ATOM      7  N   UNL     1      35.015 -23.212 -12.887  0.00  0.00    -0.236 N 
ATOM      8  N   UNL     1      34.992 -23.912 -11.741  0.00  0.00    -0.180 NA
ATOM      9  C   UNL     1      36.012 -23.586 -13.741  0.00  0.00    +0.067 C 
ATOM     10  C   UNL     1      36.688 -24.601 -13.107  0.00  0.00    +0.036 C 
ATOM     11  C   UNL     1      36.015 -24.759 -11.880  0.00  0.00    +0.119 C 
ATOM     12  H   UNL     1      34.373 -22.496 -13.094  0.00  0.00    +0.174 HD
BRANCH  10  14
ATOM     13  N   UNL     1      40.030 -26.655 -14.691  0.00  0.00    -0.242 NA
ATOM     14  C   UNL     1      37.819 -25.297 -13.642  0.00  0.00    +0.006 C 
ATOM     15  C   UNL     1      37.645 -26.260 -14.633  0.00  0.00    +0.021 C 
ATOM     16  C   UNL     1      39.101 -25.014 -13.179  0.00  0.00    +0.021 C 
ATOM     17  C   UNL     1      38.771 -26.905 -15.119  0.00  0.00    +0.099 C 
ATOM     18  C   UNL     1      40.162 -25.715 -13.730  0.00  0.00    +0.099 C 
ENDBRANCH  10  14
ENDBRANCH   1   9
BRANCH   4  19
ATOM     19  O   UNL     1      36.748 -21.134 -18.714  0.00  0.00    -0.468 OA
BRANCH  19  20
ATOM     20  C   UNL     1      35.651 -21.174 -19.617  0.00  0.00    +0.264 C 
BRANCH  20  22
ATOM     21  N   UNL     1      34.880 -20.048 -21.616  0.00  0.00    -0.406 NA
ATOM     22  C   UNL     1      35.797 -20.081 -20.622  0.00  0.00    +0.152 C 
ATOM     23  C   UNL     1      36.006 -18.110 -22.500  0.00  0.00    +0.026 C 
ATOM     24  C   UNL     1      34.980 -19.078 -22.544  0.00  0.00    +0.113 C 
ATOM     25  C   UNL     1      36.834 -19.179 -20.497  0.00  0.00    +0.031 C 
ATOM     26  C   UNL     1      36.935 -18.179 -21.453  0.00  0.00    +0.005 C 
ATOM     27  C   UNL     1      36.081 -17.110 -23.485  0.00  0.00    +0.002 C 
ATOM     28  C   UNL     1      34.058 -19.007 -23.584  0.00  0.00    +0.085 C 
ATOM     29  C   UNL     1      35.145 -17.063 -24.514  0.00  0.00    -0.004 C 
ATOM     30  C   UNL     1      34.132 -18.013 -24.563  0.00  0.00    -0.019 C 
ENDBRANCH  20  22
ENDBRANCH  19  20
ENDBRANCH   4  19
TORSDOF 5
ENDMDL
MODEL 3
REMARK VINA RESULT:     -11.7      3.216     10.714
REMARK  Name = 11610553
REMARK  5 active torsions:
REMARK  status: ('A' for Active; 'I' for Inactive)
REMARK    1  A    between atoms: C_1  and  C_9
REMARK    2  A    between atoms: C_4  and  O_19
REMARK    3  A    between atoms: C_10  and  C_14
REMARK    4  A    between atoms: O_19  and  C_20
REMARK    5  A    between atoms: C_20  and  C_22
REMARK                            x       y       z     vdW  Elec       q    Type
REMARK                         _______ _______ _______ _____ _____    ______ ____
ROOT
ATOM      1  C   UNL     1      33.785 -21.831 -18.393  0.00  0.00    +0.015 C 
ATOM      2  C   UNL     1      35.148 -22.063 -18.575  0.00  0.00    +0.004 C 
ATOM      3  C   UNL     1      33.105 -20.961 -19.245  0.00  0.00    +0.004 C 
ATOM      4  C   UNL     1      35.148 -20.558 -20.455  0.00  0.00    +0.139 C 
ATOM      5  C   UNL     1      35.832 -21.424 -19.610  0.00  0.00    +0.037 C 
ATOM      6  C   UNL     1      33.788 -20.322 -20.280  0.00  0.00    +0.037 C 
ENDROOT
BRANCH   1   9
ATOM      7  N   UNL     1      31.719 -22.605 -17.313  0.00  0.00    -0.236 N 
ATOM      8  N   UNL     1      31.236 -23.251 -16.237  0.00  0.00    -0.180 NA
ATOM      9  C   UNL     1      33.078 -22.491 -17.323  0.00  0.00    +0.067 C 
ATOM     10  C   UNL     1      33.515 -23.105 -16.173  0.00  0.00    +0.036 C 
ATOM     11  C   UNL     1      32.338 -23.553 -15.545  0.00  0.00    +0.119 C 
ATOM     12  H   UNL     1      31.145 -22.249 -18.028  0.00  0.00    +0.174 HD
BRANCH  10  14
ATOM     13  N   UNL     1      37.561 -23.448 -14.985  0.00  0.00    -0.242 NA
ATOM     14  C   UNL     1      34.884 -23.221 -15.772  0.00  0.00    +0.006 C 
ATOM     15  C   UNL     1      35.704 -22.096 -15.740  0.00  0.00    +0.021 C 
ATOM     16  C   UNL     1      35.407 -24.460 -15.409  0.00  0.00    +0.021 C 
ATOM     17  C   UNL     1      37.021 -22.261 -15.344  0.00  0.00    +0.099 C 
ATOM     18  C   UNL     1      36.738 -24.519 -15.028  0.00  0.00    +0.099 C 
ENDBRANCH  10  14
ENDBRANCH   1   9
BRANCH   4  19
ATOM     19  O   UNL     1      35.819 -19.930 -21.472  0.00  0.00    -0.468 OA
BRANCH  19  20
ATOM     20  C   UNL     1      36.327 -18.631 -21.198  0.00  0.00    +0.264 C 
BRANCH  20  22
ATOM     21  N   UNL     1      35.476 -16.425 -21.713  0.00  0.00    -0.406 NA
ATOM     22  C   UNL     1      35.763 -17.661 -22.181  0.00  0.00    +0.152 C 
ATOM     23  C   UNL     1      34.724 -15.835 -23.925  0.00  0.00    +0.026 C 
ATOM     24  C   UNL     1      34.963 -15.522 -22.571  0.00  0.00    +0.113 C 
ATOM     25  C   UNL     1      35.563 -18.059 -23.487  0.00  0.00    +0.031 C 
ATOM     26  C   UNL     1      35.035 -17.127 -24.369  0.00  0.00    +0.005 C 
ATOM     27  C   UNL     1      34.187 -14.869 -24.793  0.00  0.00    +0.002 C 
ATOM     28  C   UNL     1      34.654 -14.238 -22.131  0.00  0.00    +0.085 C 
ATOM     29  C   UNL     1      33.887 -13.592 -24.326  0.00  0.00    -0.004 C 
ATOM     30  C   UNL     1      34.120 -13.277 -22.994  0.00  0.00    -0.019 C 
ENDBRANCH  20  22
ENDBRANCH  19  20
ENDBRANCH   4  19
TORSDOF 5
ENDMDL
MODEL 4
REMARK VINA RESULT:     -11.7      6.689     13.264
REMARK  Name = 11610553
REMARK  5 active torsions:
REMARK  status: ('A' for Active; 'I' for Inactive)
REMARK    1  A    between atoms: C_1  and  C_9
REMARK    2  A    between atoms: C_4  and  O_19
REMARK    3  A    between atoms: C_10  and  C_14
REMARK    4  A    between atoms: O_19  and  C_20
REMARK    5  A    between atoms: C_20  and  C_22
REMARK                            x       y       z     vdW  Elec       q    Type
REMARK                         _______ _______ _______ _____ _____    ______ ____
ROOT
ATOM      1  C   UNL     1      35.394 -23.766 -13.607  0.00  0.00    +0.015 C 
ATOM      2  C   UNL     1      36.030 -22.989 -14.575  0.00  0.00    +0.004 C 
ATOM      3  C   UNL     1      34.071 -24.166 -13.792  0.00  0.00    +0.004 C 
ATOM      4  C   UNL     1      34.023 -23.013 -15.906  0.00  0.00    +0.139 C 
ATOM      5  C   UNL     1      35.341 -22.611 -15.728  0.00  0.00    +0.037 C 
ATOM      6  C   UNL     1      33.382 -23.789 -14.945  0.00  0.00    +0.037 C 
ENDROOT
BRANCH   1   9
ATOM      7  N   UNL     1      35.679 -23.805 -11.167  0.00  0.00    -0.236 N 
ATOM      8  N   UNL     1      36.467 -24.257 -10.176  0.00  0.00    -0.180 NA
ATOM      9  C   UNL     1      36.105 -24.157 -12.415  0.00  0.00    +0.067 C 
ATOM     10  C   UNL     1      37.252 -24.890 -12.226  0.00  0.00    +0.036 C 
ATOM     11  C   UNL     1      37.426 -24.919 -10.829  0.00  0.00    +0.119 C 
ATOM     12  H   UNL     1      34.869 -23.270 -11.007  0.00  0.00    +0.174 HD
BRANCH  10  14
ATOM     13  N   UNL     1      39.586 -26.588 -15.320  0.00  0.00    -0.242 NA
ATOM     14  C   UNL     1      38.042 -25.465 -13.272  0.00  0.00    +0.006 C 
ATOM     15  C   UNL     1      37.483 -26.398 -14.142  0.00  0.00    +0.021 C 
ATOM     16  C   UNL     1      39.375 -25.095 -13.431  0.00  0.00    +0.021 C 
ATOM     17  C   UNL     1      38.288 -26.925 -15.138  0.00  0.00    +0.099 C 
ATOM     18  C   UNL     1      40.096 -25.680 -14.459  0.00  0.00    +0.099 C 
ENDBRANCH  10  14
ENDBRANCH   1   9
BRANCH   4  19
ATOM     19  O   UNL     1      33.346 -22.642 -17.038  0.00  0.00    -0.468 OA
BRANCH  19  20
ATOM     20  C   UNL     1      33.896 -23.064 -18.279  0.00  0.00    +0.264 C 
BRANCH  20  22
ATOM     21  N   UNL     1      35.443 -21.497 -19.285  0.00  0.00    -0.406 NA
ATOM     22  C   UNL     1      34.151 -21.871 -19.139  0.00  0.00    +0.152 C 
ATOM     23  C   UNL     1      34.691 -19.694 -20.696  0.00  0.00    +0.026 C 
ATOM     24  C   UNL     1      35.712 -20.424 -20.052  0.00  0.00    +0.113 C 
ATOM     25  C   UNL     1      33.086 -21.221 -19.729  0.00  0.00    +0.031 C 
ATOM     26  C   UNL     1      33.367 -20.115 -20.518  0.00  0.00    +0.005 C 
ATOM     27  C   UNL     1      35.008 -18.579 -21.490  0.00  0.00    +0.002 C 
ATOM     28  C   UNL     1      37.028 -20.004 -20.229  0.00  0.00    +0.085 C 
ATOM     29  C   UNL     1      36.332 -18.181 -21.649  0.00  0.00    -0.004 C 
ATOM     30  C   UNL     1      37.343 -18.895 -21.018  0.00  0.00    -0.019 C 
ENDBRANCH  20  22
ENDBRANCH  19  20
ENDBRANCH   4  19
TORSDOF 5
ENDMDL
MODEL 5
REMARK VINA RESULT:     -11.7      4.179     11.599
REMARK  Name = 11610553
REMARK  5 active torsions:
REMARK  status: ('A' for Active; 'I' for Inactive)
REMARK    1  A    between atoms: C_1  and  C_9
REMARK    2  A    between atoms: C_4  and  O_19
REMARK    3  A    between atoms: C_10  and  C_14
REMARK    4  A    between atoms: O_19  and  C_20
REMARK    5  A    between atoms: C_20  and  C_22
REMARK                            x       y       z     vdW  Elec       q    Type
REMARK                         _______ _______ _______ _____ _____    ______ ____
ROOT
ATOM      1  C   UNL     1      34.184 -22.786 -16.825  0.00  0.00    +0.015 C 
ATOM      2  C   UNL     1      33.444 -22.711 -18.005  0.00  0.00    +0.004 C 
ATOM      3  C   UNL     1      35.490 -22.297 -16.789  0.00  0.00    +0.004 C 
ATOM      4  C   UNL     1      35.313 -21.664 -19.106  0.00  0.00    +0.139 C 
ATOM      5  C   UNL     1      34.011 -22.149 -19.149  0.00  0.00    +0.037 C 
ATOM      6  C   UNL     1      36.056 -21.734 -17.932  0.00  0.00    +0.037 C 
ENDROOT
BRANCH   1   9
ATOM      7  N   UNL     1      32.248 -23.443 -15.462  0.00  0.00    -0.236 N 
ATOM      8  N   UNL     1      31.886 -24.017 -14.303  0.00  0.00    -0.180 NA
ATOM      9  C   UNL     1      33.599 -23.368 -15.643  0.00  0.00    +0.067 C 
ATOM     10  C   UNL     1      34.158 -23.932 -14.521  0.00  0.00    +0.036 C 
ATOM     11  C   UNL     1      33.057 -24.313 -13.732  0.00  0.00    +0.119 C 
ATOM     12  H   UNL     1      31.599 -23.108 -16.122  0.00  0.00    +0.174 HD
BRANCH  10  14
ATOM     13  N   UNL     1      38.310 -24.330 -13.811  0.00  0.00    -0.242 NA
ATOM     14  C   UNL     1      35.563 -24.066 -14.282  0.00  0.00    +0.006 C 
ATOM     15  C   UNL     1      36.219 -23.178 -13.434  0.00  0.00    +0.021 C 
ATOM     16  C   UNL     1      36.286 -25.088 -14.893  0.00  0.00    +0.021 C 
ATOM     17  C   UNL     1      37.579 -23.350 -13.234  0.00  0.00    +0.099 C 
ATOM     18  C   UNL     1      37.643 -25.175 -14.629  0.00  0.00    +0.099 C 
ENDBRANCH  10  14
ENDBRANCH   1   9
BRANCH   4  19
ATOM     19  O   UNL     1      35.869 -21.111 -20.229  0.00  0.00    -0.468 OA
BRANCH  19  20
ATOM     20  C   UNL     1      36.286 -19.756 -20.137  0.00  0.00    +0.264 C 
BRANCH  20  22
ATOM     21  N   UNL     1      35.779 -17.660 -21.237  0.00  0.00    -0.406 NA
ATOM     22  C   UNL     1      35.812 -19.008 -21.339  0.00  0.00    +0.152 C 
ATOM     23  C   UNL     1      34.952 -17.577 -23.499  0.00  0.00    +0.026 C 
ATOM     24  C   UNL     1      35.355 -16.951 -22.301  0.00  0.00    +0.113 C 
ATOM     25  C   UNL     1      35.437 -19.709 -22.467  0.00  0.00    +0.031 C 
ATOM     26  C   UNL     1      35.001 -18.976 -23.562  0.00  0.00    +0.005 C 
ATOM     27  C   UNL     1      34.515 -16.807 -24.590  0.00  0.00    +0.002 C 
ATOM     28  C   UNL     1      35.307 -15.562 -22.240  0.00  0.00    +0.085 C 
ATOM     29  C   UNL     1      34.475 -15.418 -24.501  0.00  0.00    -0.004 C 
ATOM     30  C   UNL     1      34.872 -14.795 -23.325  0.00  0.00    -0.019 C 
ENDBRANCH  20  22
ENDBRANCH  19  20
ENDBRANCH   4  19
TORSDOF 5
ENDMDL
MODEL 6
REMARK VINA RESULT:     -11.6      4.393     11.926
REMARK  Name = 11610553
REMARK  5 active torsions:
REMARK  status: ('A' for Active; 'I' for Inactive)
REMARK    1  A    between atoms: C_1  and  C_9
REMARK    2  A    between atoms: C_4  and  O_19
REMARK    3  A    between atoms: C_10  and  C_14
REMARK    4  A    between atoms: O_19  and  C_20
REMARK    5  A    between atoms: C_20  and  C_22
REMARK                            x       y       z     vdW  Elec       q    Type
REMARK                         _______ _______ _______ _____ _____    ______ ____
ROOT
ATOM      1  C   UNL     1      34.906 -22.610 -16.355  0.00  0.00    +0.015 C 
ATOM      2  C   UNL     1      36.208 -22.119 -16.455  0.00  0.00    +0.004 C 
ATOM      3  C   UNL     1      34.067 -22.595 -17.469  0.00  0.00    +0.004 C 
ATOM      4  C   UNL     1      35.827 -21.599 -18.776  0.00  0.00    +0.139 C 
ATOM      5  C   UNL     1      36.670 -21.611 -17.670  0.00  0.00    +0.037 C 
ATOM      6  C   UNL     1      34.528 -22.088 -18.683  0.00  0.00    +0.037 C 
ENDROOT
BRANCH   1   9
ATOM      7  N   UNL     1      33.221 -22.775 -14.574  0.00  0.00    -0.236 N 
ATOM      8  N   UNL     1      32.943 -23.364 -13.398  0.00  0.00    -0.180 NA
ATOM      9  C   UNL     1      34.429 -23.134 -15.099  0.00  0.00    +0.067 C 
ATOM     10  C   UNL     1      34.979 -24.019 -14.202  0.00  0.00    +0.036 C 
ATOM     11  C   UNL     1      34.020 -24.122 -13.176  0.00  0.00    +0.119 C 
ATOM     12  H   UNL     1      32.610 -22.144 -15.017  0.00  0.00    +0.174 HD
BRANCH  10  14
ATOM     13  N   UNL     1      38.744 -25.898 -14.643  0.00  0.00    -0.242 NA
ATOM     14  C   UNL     1      36.252 -24.655 -14.351  0.00  0.00    +0.006 C 
ATOM     15  C   UNL     1      36.355 -25.876 -15.012  0.00  0.00    +0.021 C 
ATOM     16  C   UNL     1      37.400 -24.057 -13.837  0.00  0.00    +0.021 C 
ATOM     17  C   UNL     1      37.610 -26.451 -15.130  0.00  0.00    +0.099 C 
ATOM     18  C   UNL     1      38.609 -24.713 -14.007  0.00  0.00    +0.099 C 
ENDBRANCH  10  14
ENDBRANCH   1   9
BRANCH   4  19
ATOM     19  O   UNL     1      36.281 -21.101 -19.969  0.00  0.00    -0.468 OA
BRANCH  19  20
ATOM     20  C   UNL     1      36.634 -19.724 -19.995  0.00  0.00    +0.264 C 
BRANCH  20  22
ATOM     21  N   UNL     1      35.989 -17.739 -21.220  0.00  0.00    -0.406 NA
ATOM     22  C   UNL     1      36.062 -19.089 -21.219  0.00  0.00    +0.152 C 
ATOM     23  C   UNL     1      35.022 -17.860 -23.424  0.00  0.00    +0.026 C 
ATOM     24  C   UNL     1      35.476 -17.130 -22.306  0.00  0.00    +0.113 C 
ATOM     25  C   UNL     1      35.644 -19.887 -22.264  0.00  0.00    +0.031 C 
ATOM     26  C   UNL     1      35.116 -19.258 -23.381  0.00  0.00    +0.005 C 
ATOM     27  C   UNL     1      34.493 -17.192 -24.541  0.00  0.00    +0.002 C 
ATOM     28  C   UNL     1      35.383 -15.741 -22.350  0.00  0.00    +0.085 C 
ATOM     29  C   UNL     1      34.411 -15.803 -24.558  0.00  0.00    -0.004 C 
ATOM     30  C   UNL     1      34.856 -15.077 -23.460  0.00  0.00    -0.019 C 
ENDBRANCH  20  22
ENDBRANCH  19  20
ENDBRANCH   4  19
TORSDOF 5
ENDMDL
MODEL 7
REMARK VINA RESULT:     -11.3      4.212     11.558
REMARK  Name = 11610553
REMARK  5 active torsions:
REMARK  status: ('A' for Active; 'I' for Inactive)
REMARK    1  A    between atoms: C_1  and  C_9
REMARK    2  A    between atoms: C_4  and  O_19
REMARK    3  A    between atoms: C_10  and  C_14
REMARK    4  A    between atoms: O_19  and  C_20
REMARK    5  A    between atoms: C_20  and  C_22
REMARK                            x       y       z     vdW  Elec       q    Type
REMARK                         _______ _______ _______ _____ _____    ______ ____
ROOT
ATOM      1  C   UNL     1      34.693 -22.793 -16.373  0.00  0.00    +0.015 C 
ATOM      2  C   UNL     1      35.898 -22.230 -16.793  0.00  0.00    +0.004 C 
ATOM      3  C   UNL     1      33.581 -22.770 -17.213  0.00  0.00    +0.004 C 
ATOM      4  C   UNL     1      34.876 -21.623 -18.888  0.00  0.00    +0.139 C 
ATOM      5  C   UNL     1      35.989 -21.643 -18.056  0.00  0.00    +0.037 C 
ATOM      6  C   UNL     1      33.672 -22.183 -18.475  0.00  0.00    +0.037 C 
ENDROOT
BRANCH   1   9
ATOM      7  N   UNL     1      35.704 -23.733 -14.340  0.00  0.00    -0.236 N 
ATOM      8  N   UNL     1      35.424 -24.288 -13.148  0.00  0.00    -0.180 NA
ATOM      9  C   UNL     1      34.599 -23.400 -15.067  0.00  0.00    +0.067 C 
ATOM     10  C   UNL     1      33.520 -23.762 -14.297  0.00  0.00    +0.036 C 
ATOM     11  C   UNL     1      34.088 -24.303 -13.128  0.00  0.00    +0.119 C 
ATOM     12  H   UNL     1      36.623 -23.581 -14.659  0.00  0.00    +0.174 HD
BRANCH  10  14
ATOM     13  N   UNL     1      29.467 -23.264 -15.406  0.00  0.00    -0.242 NA
ATOM     14  C   UNL     1      32.149 -23.594 -14.671  0.00  0.00    +0.006 C 
ATOM     15  C   UNL     1      31.530 -22.354 -14.533  0.00  0.00    +0.021 C 
ATOM     16  C   UNL     1      31.422 -24.668 -15.180  0.00  0.00    +0.021 C 
ATOM     17  C   UNL     1      30.202 -22.242 -14.910  0.00  0.00    +0.099 C 
ATOM     18  C   UNL     1      30.098 -24.453 -15.528  0.00  0.00    +0.099 C 
ENDBRANCH  10  14
ENDBRANCH   1   9
BRANCH   4  19
ATOM     19  O   UNL     1      34.966 -21.046 -20.128  0.00  0.00    -0.468 OA
BRANCH  19  20
ATOM     20  C   UNL     1      35.963 -20.048 -20.300  0.00  0.00    +0.264 C 
BRANCH  20  22
ATOM     21  N   UNL     1      35.593 -17.845 -21.230  0.00  0.00    -0.406 NA
ATOM     22  C   UNL     1      35.600 -19.178 -21.457  0.00  0.00    +0.152 C 
ATOM     23  C   UNL     1      34.941 -17.527 -23.528  0.00  0.00    +0.026 C 
ATOM     24  C   UNL     1      35.268 -17.028 -22.250  0.00  0.00    +0.113 C 
ATOM     25  C   UNL     1      35.295 -19.759 -22.671  0.00  0.00    +0.031 C 
ATOM     26  C   UNL     1      34.960 -18.915 -23.720  0.00  0.00    +0.005 C 
ATOM     27  C   UNL     1      34.607 -16.645 -24.571  0.00  0.00    +0.002 C 
ATOM     28  C   UNL     1      35.249 -15.649 -22.062  0.00  0.00    +0.085 C 
ATOM     29  C   UNL     1      34.595 -15.270 -24.354  0.00  0.00    -0.004 C 
ATOM     30  C   UNL     1      34.916 -14.772 -23.098  0.00  0.00    -0.019 C 
ENDBRANCH  20  22
ENDBRANCH  19  20
ENDBRANCH   4  19
TORSDOF 5
ENDMDL
MODEL 8
REMARK VINA RESULT:     -11.2      3.161      5.389
REMARK  Name = 11610553
REMARK  5 active torsions:
REMARK  status: ('A' for Active; 'I' for Inactive)
REMARK    1  A    between atoms: C_1  and  C_9
REMARK    2  A    between atoms: C_4  and  O_19
REMARK    3  A    between atoms: C_10  and  C_14
REMARK    4  A    between atoms: O_19  and  C_20
REMARK    5  A    between atoms: C_20  and  C_22
REMARK                            x       y       z     vdW  Elec       q    Type
REMARK                         _______ _______ _______ _____ _____    ______ ____
ROOT
ATOM      1  C   UNL     1      33.650  -8.037 -23.107  0.00  0.00    +0.015 C 
ATOM      2  C   UNL     1      32.744  -9.094 -23.200  0.00  0.00    +0.004 C 
ATOM      3  C   UNL     1      34.944  -8.182 -23.607  0.00  0.00    +0.004 C 
ATOM      4  C   UNL     1      34.425 -10.432 -24.288  0.00  0.00    +0.139 C 
ATOM      5  C   UNL     1      33.134 -10.295 -23.793  0.00  0.00    +0.037 C 
ATOM      6  C   UNL     1      35.333  -9.382 -24.199  0.00  0.00    +0.037 C 
ENDROOT
BRANCH   1   9
ATOM      7  N   UNL     1      32.836  -6.726 -21.195  0.00  0.00    -0.236 N 
ATOM      8  N   UNL     1      32.501  -5.487 -20.797  0.00  0.00    -0.180 NA
ATOM      9  C   UNL     1      33.247  -6.795 -22.495  0.00  0.00    +0.067 C 
ATOM     10  C   UNL     1      33.175  -5.511 -22.980  0.00  0.00    +0.036 C 
ATOM     11  C   UNL     1      32.710  -4.750 -21.891  0.00  0.00    +0.119 C 
ATOM     12  H   UNL     1      32.791  -7.511 -20.604  0.00  0.00    +0.174 HD
BRANCH  10  14
ATOM     13  N   UNL     1      34.182  -4.342 -26.919  0.00  0.00    -0.242 NA
ATOM     14  C   UNL     1      33.516  -5.115 -24.312  0.00  0.00    +0.006 C 
ATOM     15  C   UNL     1      34.819  -5.266 -24.778  0.00  0.00    +0.021 C 
ATOM     16  C   UNL     1      32.546  -4.576 -25.154  0.00  0.00    +0.021 C 
ATOM     17  C   UNL     1      35.098  -4.868 -26.075  0.00  0.00    +0.099 C 
ATOM     18  C   UNL     1      32.927  -4.209 -26.435  0.00  0.00    +0.099 C 
ENDBRANCH  10  14
ENDBRANCH   1   9
BRANCH   4  19
ATOM     19  O   UNL     1      34.807 -11.612 -24.870  0.00  0.00    -0.468 OA
BRANCH  19  20
ATOM     20  C   UNL     1      33.832 -12.644 -24.927  0.00  0.00    +0.264 C 
BRANCH  20  22
ATOM     21  N   UNL     1      34.347 -15.001 -24.732  0.00  0.00    -0.406 NA
ATOM     22  C   UNL     1      34.287 -13.804 -24.106  0.00  0.00    +0.152 C 
ATOM     23  C   UNL     1      35.107 -15.970 -22.661  0.00  0.00    +0.026 C 
ATOM     24  C   UNL     1      34.751 -16.071 -24.022  0.00  0.00    +0.113 C 
ATOM     25  C   UNL     1      34.614 -13.607 -22.779  0.00  0.00    +0.031 C 
ATOM     26  C   UNL     1      35.030 -14.711 -22.050  0.00  0.00    +0.005 C 
ATOM     27  C   UNL     1      35.525 -17.108 -21.949  0.00  0.00    +0.002 C 
ATOM     28  C   UNL     1      34.829 -17.323 -24.627  0.00  0.00    +0.085 C 
ATOM     29  C   UNL     1      35.592 -18.347 -22.580  0.00  0.00    -0.004 C 
ATOM     30  C   UNL     1      35.243 -18.454 -23.920  0.00  0.00    -0.019 C 
ENDBRANCH  20  22
ENDBRANCH  19  20
ENDBRANCH   4  19
TORSDOF 5
ENDMDL
MODEL 9
REMARK VINA RESULT:     -11.2      4.017      6.785
REMARK  Name = 11610553
REMARK  5 active torsions:
REMARK  status: ('A' for Active; 'I' for Inactive)
REMARK    1  A    between atoms: C_1  and  C_9
REMARK    2  A    between atoms: C_4  and  O_19
REMARK    3  A    between atoms: C_10  and  C_14
REMARK    4  A    between atoms: O_19  and  C_20
REMARK    5  A    between atoms: C_20  and  C_22
REMARK                            x       y       z     vdW  Elec       q    Type
REMARK                         _______ _______ _______ _____ _____    ______ ____
ROOT
ATOM      1  C   UNL     1      31.818  -6.290 -21.994  0.00  0.00    +0.015 C 
ATOM      2  C   UNL     1      32.398  -6.618 -20.769  0.00  0.00    +0.004 C 
ATOM      3  C   UNL     1      31.364  -7.299 -22.843  0.00  0.00    +0.004 C 
ATOM      4  C   UNL     1      32.071  -8.956 -21.245  0.00  0.00    +0.139 C 
ATOM      5  C   UNL     1      32.525  -7.956 -20.394  0.00  0.00    +0.037 C 
ATOM      6  C   UNL     1      31.491  -8.636 -22.469  0.00  0.00    +0.037 C 
ENDROOT
BRANCH   1   9
ATOM      7  N   UNL     1      30.786  -4.069 -21.793  0.00  0.00    -0.236 N 
ATOM      8  N   UNL     1      30.807  -2.818 -22.282  0.00  0.00    -0.180 NA
ATOM      9  C   UNL     1      31.688  -4.907 -22.382  0.00  0.00    +0.067 C 
ATOM     10  C   UNL     1      32.344  -4.150 -23.324  0.00  0.00    +0.036 C 
ATOM     11  C   UNL     1      31.760  -2.873 -23.217  0.00  0.00    +0.119 C 
ATOM     12  H   UNL     1      30.178  -4.355 -21.075  0.00  0.00    +0.174 HD
BRANCH  10  14
ATOM     13  N   UNL     1      35.411  -5.564 -25.872  0.00  0.00    -0.242 NA
ATOM     14  C   UNL     1      33.382  -4.628 -24.186  0.00  0.00    +0.006 C 
ATOM     15  C   UNL     1      34.277  -5.595 -23.737  0.00  0.00    +0.021 C 
ATOM     16  C   UNL     1      33.504  -4.130 -25.481  0.00  0.00    +0.021 C 
ATOM     17  C   UNL     1      35.263  -6.026 -24.609  0.00  0.00    +0.099 C 
ATOM     18  C   UNL     1      34.525  -4.625 -26.275  0.00  0.00    +0.099 C 
ENDBRANCH  10  14
ENDBRANCH   1   9
BRANCH   4  19
ATOM     19  O   UNL     1      32.195 -10.270 -20.877  0.00  0.00    -0.468 OA
BRANCH  19  20
ATOM     20  C   UNL     1      31.687 -11.240 -21.782  0.00  0.00    +0.264 C 
BRANCH  20  22
ATOM     21  N   UNL     1      32.887 -12.902 -23.069  0.00  0.00    -0.406 NA
ATOM     22  C   UNL     1      32.622 -12.401 -21.841  0.00  0.00    +0.152 C 
ATOM     23  C   UNL     1      34.322 -14.530 -22.022  0.00  0.00    +0.026 C 
ATOM     24  C   UNL     1      33.725 -13.952 -23.161  0.00  0.00    +0.113 C 
ATOM     25  C   UNL     1      33.157 -12.900 -20.670  0.00  0.00    +0.031 C 
ATOM     26  C   UNL     1      34.020 -13.981 -20.768  0.00  0.00    +0.005 C 
ATOM     27  C   UNL     1      35.192 -15.625 -22.154  0.00  0.00    +0.002 C 
ATOM     28  C   UNL     1      34.026 -14.498 -24.406  0.00  0.00    +0.085 C 
ATOM     29  C   UNL     1      35.475 -16.152 -23.412  0.00  0.00    -0.004 C 
ATOM     30  C   UNL     1      34.891 -15.587 -24.538  0.00  0.00    -0.019 C 
ENDBRANCH  20  22
ENDBRANCH  19  20
ENDBRANCH   4  19
TORSDOF 5
ENDMDL
