MODEL 1
REMARK VINA RESULT:     -13.8      0.000      0.000
REMARK  Name = 89670174
REMARK  4 active torsions:
REMARK  status: ('A' for Active; 'I' for Inactive)
REMARK    1  A    between atoms: C_3  and  C_13
REMARK    2  A    between atoms: C_9  and  O_26
REMARK    3  A    between atoms: C_18  and  C_25
REMARK    4  A    between atoms: O_26  and  C_30
REMARK                            x       y       z     vdW  Elec       q    Type
REMARK                         _______ _______ _______ _____ _____    ______ ____
ROOT
ATOM      1  O   UNL     1      34.934 -19.324 -23.711  0.00  0.00    -0.479 OA
ATOM      2  C   UNL     1      35.356 -18.564 -21.426  0.00  0.00    +0.072 C 
ATOM      3  C   UNL     1      34.222 -19.563 -21.257  0.00  0.00    +0.085 C 
ATOM      4  C   UNL     1      35.254 -19.777 -22.342  0.00  0.00    +0.174 C 
ATOM      5  C   UNL     1      35.226 -17.439 -22.387  0.00  0.00    +0.018 C 
ATOM      6  C   UNL     1      34.996 -17.940 -23.675  0.00  0.00    +0.135 C 
ATOM      7  C   UNL     1      35.297 -16.068 -22.191  0.00  0.00    +0.036 C 
ATOM      8  C   UNL     1      34.829 -17.125 -24.778  0.00  0.00    +0.040 C 
ATOM      9  C   UNL     1      35.134 -15.222 -23.294  0.00  0.00    +0.145 C 
ATOM     10  C   UNL     1      34.903 -15.747 -24.577  0.00  0.00    +0.041 C 
ENDROOT
BRANCH   3  13
ATOM     11  N   UNL     1      35.312 -20.824 -19.334  0.00  0.00    -0.318 N 
ATOM     12  N   UNL     1      33.109 -21.014 -19.556  0.00  0.00    -0.318 N 
ATOM     13  C   UNL     1      34.200 -20.471 -20.046  0.00  0.00    +0.148 C 
ATOM     14  C   UNL     1      34.911 -21.650 -18.315  0.00  0.00    +0.059 C 
ATOM     15  C   UNL     1      33.532 -21.753 -18.475  0.00  0.00    +0.059 C 
ATOM     16  C   UNL     1      35.615 -22.297 -17.298  0.00  0.00    +0.019 C 
ATOM     17  C   UNL     1      32.796 -22.543 -17.577  0.00  0.00    +0.016 C 
ATOM     18  C   UNL     1      34.866 -23.080 -16.413  0.00  0.00    +0.073 C 
ATOM     19  C   UNL     1      33.481 -23.201 -16.549  0.00  0.00    +0.005 C 
ATOM     20  H   UNL     1      36.235 -20.537 -19.519  0.00  0.00    +0.148 HD
ATOM     21  H   UNL     1      32.187 -20.914 -19.889  0.00  0.00    +0.148 HD
BRANCH  18  25
ATOM     22  F   UNL     1      35.142 -23.411 -14.061  0.00  0.00    -0.166 F 
ATOM     23  F   UNL     1      35.394 -25.148 -15.334  0.00  0.00    -0.166 F 
ATOM     24  F   UNL     1      36.910 -23.590 -15.314  0.00  0.00    -0.166 F 
ATOM     25  C   UNL     1      35.562 -23.794 -15.302  0.00  0.00    +0.419 C 
ENDBRANCH  18  25
ENDBRANCH   3  13
BRANCH   9  26
ATOM     26  O   UNL     1      35.200 -13.851 -23.119  0.00  0.00    -0.454 OA
BRANCH  26  30
ATOM     27  O   UNL     1      32.224  -8.290 -23.745  0.00  0.00    -0.275 OA
ATOM     28  N   UNL     1      32.140 -10.191 -22.459  0.00  0.00    -0.270 N 
ATOM     29  N   UNL     1      32.057 -12.091 -21.052  0.00  0.00    -0.229 NA
ATOM     30  C   UNL     1      34.184 -13.249 -22.440  0.00  0.00    +0.146 C 
ATOM     31  C   UNL     1      33.712 -11.989 -22.811  0.00  0.00    +0.045 C 
ATOM     32  C   UNL     1      34.242 -11.278 -24.018  0.00  0.00    +0.042 C 
ATOM     33  C   UNL     1      33.606 -13.918 -21.367  0.00  0.00    +0.058 C 
ATOM     34  C   UNL     1      32.650 -11.449 -22.087  0.00  0.00    +0.133 C 
ATOM     35  C   UNL     1      34.106  -9.772 -23.861  0.00  0.00    +0.090 C 
ATOM     36  C   UNL     1      32.728  -9.355 -23.387  0.00  0.00    +0.227 C 
ATOM     37  C   UNL     1      32.553 -13.302 -20.715  0.00  0.00    +0.103 C 
ATOM     38  H   UNL     1      31.309  -9.886 -22.029  0.00  0.00    +0.156 HD
ENDBRANCH  26  30
ENDBRANCH   9  26
TORSDOF 4
ENDMDL
MODEL 2
REMARK VINA RESULT:     -13.2      5.932     11.516
REMARK  Name = 89670174
REMARK  4 active torsions:
REMARK  status: ('A' for Active; 'I' for Inactive)
REMARK    1  A    between atoms: C_3  and  C_13
REMARK    2  A    between atoms: C_9  and  O_26
REMARK    3  A    between atoms: C_18  and  C_25
REMARK    4  A    between atoms: O_26  and  C_30
REMARK                            x       y       z     vdW  Elec       q    Type
REMARK                         _______ _______ _______ _____ _____    ______ ____
ROOT
ATOM      1  O   UNL     1      37.308 -19.373 -21.021  0.00  0.00    -0.479 OA
ATOM      2  C   UNL     1      34.976 -18.854 -21.539  0.00  0.00    +0.072 C 
ATOM      3  C   UNL     1      35.596 -17.484 -21.310  0.00  0.00    +0.085 C 
ATOM      4  C   UNL     1      36.430 -18.592 -21.915  0.00  0.00    +0.174 C 
ATOM      5  C   UNL     1      35.109 -19.917 -20.511  0.00  0.00    +0.018 C 
ATOM      6  C   UNL     1      36.465 -20.175 -20.267  0.00  0.00    +0.135 C 
ATOM      7  C   UNL     1      34.145 -20.632 -19.817  0.00  0.00    +0.036 C 
ATOM      8  C   UNL     1      36.897 -21.115 -19.353  0.00  0.00    +0.040 C 
ATOM      9  C   UNL     1      34.558 -21.592 -18.887  0.00  0.00    +0.145 C 
ATOM     10  C   UNL     1      35.924 -21.831 -18.658  0.00  0.00    +0.041 C 
ENDROOT
BRANCH   3  13
ATOM     11  N   UNL     1      34.842 -16.412 -23.493  0.00  0.00    -0.318 N 
ATOM     12  N   UNL     1      35.044 -15.084 -21.722  0.00  0.00    -0.318 N 
ATOM     13  C   UNL     1      35.160 -16.314 -22.166  0.00  0.00    +0.148 C 
ATOM     14  C   UNL     1      34.497 -15.160 -23.933  0.00  0.00    +0.059 C 
ATOM     15  C   UNL     1      34.630 -14.349 -22.811  0.00  0.00    +0.059 C 
ATOM     16  C   UNL     1      34.092 -14.683 -25.181  0.00  0.00    +0.019 C 
ATOM     17  C   UNL     1      34.347 -12.977 -22.919  0.00  0.00    +0.016 C 
ATOM     18  C   UNL     1      33.814 -13.314 -25.271  0.00  0.00    +0.073 C 
ATOM     19  C   UNL     1      33.939 -12.476 -24.161  0.00  0.00    +0.005 C 
ATOM     20  H   UNL     1      34.859 -17.234 -24.034  0.00  0.00    +0.148 HD
ATOM     21  H   UNL     1      35.214 -14.757 -20.809  0.00  0.00    +0.148 HD
BRANCH  18  25
ATOM     22  F   UNL     1      34.322 -12.830 -27.557  0.00  0.00    -0.166 F 
ATOM     23  F   UNL     1      32.269 -13.355 -27.096  0.00  0.00    -0.166 F 
ATOM     24  F   UNL     1      33.054 -11.421 -26.490  0.00  0.00    -0.166 F 
ATOM     25  C   UNL     1      33.374 -12.744 -26.578  0.00  0.00    +0.419 C 
ENDBRANCH  18  25
ENDBRANCH   3  13
BRANCH   9  26
ATOM     26  O   UNL     1      33.611 -22.314 -18.183  0.00  0.00    -0.454 OA
BRANCH  26  30
ATOM     27  O   UNL     1      30.146 -24.281 -13.254  0.00  0.00    -0.275 OA
ATOM     28  N   UNL     1      32.342 -23.932 -13.828  0.00  0.00    -0.270 N 
ATOM     29  N   UNL     1      34.615 -23.516 -14.336  0.00  0.00    -0.229 NA
ATOM     30  C   UNL     1      33.919 -22.692 -16.911  0.00  0.00    +0.146 C 
ATOM     31  C   UNL     1      32.928 -23.096 -16.016  0.00  0.00    +0.045 C 
ATOM     32  C   UNL     1      31.494 -23.211 -16.434  0.00  0.00    +0.042 C 
ATOM     33  C   UNL     1      35.251 -22.683 -16.512  0.00  0.00    +0.058 C 
ATOM     34  C   UNL     1      33.322 -23.496 -14.740  0.00  0.00    +0.133 C 
ATOM     35  C   UNL     1      30.567 -23.013 -15.245  0.00  0.00    +0.090 C 
ATOM     36  C   UNL     1      30.981 -23.829 -14.037  0.00  0.00    +0.227 C 
ATOM     37  C   UNL     1      35.543 -23.104 -15.228  0.00  0.00    +0.103 C 
ATOM     38  H   UNL     1      32.647 -24.338 -12.984  0.00  0.00    +0.156 HD
ENDBRANCH  26  30
ENDBRANCH   9  26
TORSDOF 4
ENDMDL
MODEL 3
REMARK VINA RESULT:     -13.1      5.873     11.490
REMARK  Name = 89670174
REMARK  4 active torsions:
REMARK  status: ('A' for Active; 'I' for Inactive)
REMARK    1  A    between atoms: C_3  and  C_13
REMARK    2  A    between atoms: C_9  and  O_26
REMARK    3  A    between atoms: C_18  and  C_25
REMARK    4  A    between atoms: O_26  and  C_30
REMARK                            x       y       z     vdW  Elec       q    Type
REMARK                         _______ _______ _______ _____ _____    ______ ____
ROOT
ATOM      1  O   UNL     1      37.283 -19.378 -21.001  0.00  0.00    -0.479 OA
ATOM      2  C   UNL     1      34.963 -18.873 -21.582  0.00  0.00    +0.072 C 
ATOM      3  C   UNL     1      35.572 -17.498 -21.357  0.00  0.00    +0.085 C 
ATOM      4  C   UNL     1      36.424 -18.612 -21.926  0.00  0.00    +0.174 C 
ATOM      5  C   UNL     1      35.074 -19.922 -20.537  0.00  0.00    +0.018 C 
ATOM      6  C   UNL     1      36.424 -20.172 -20.257  0.00  0.00    +0.135 C 
ATOM      7  C   UNL     1      34.095 -20.630 -19.857  0.00  0.00    +0.036 C 
ATOM      8  C   UNL     1      36.837 -21.098 -19.320  0.00  0.00    +0.040 C 
ATOM      9  C   UNL     1      34.489 -21.577 -18.905  0.00  0.00    +0.145 C 
ATOM     10  C   UNL     1      35.849 -21.809 -18.639  0.00  0.00    +0.041 C 
ENDROOT
BRANCH   3  13
ATOM     11  N   UNL     1      35.180 -15.032 -21.848  0.00  0.00    -0.318 N 
ATOM     12  N   UNL     1      34.721 -16.479 -23.472  0.00  0.00    -0.318 N 
ATOM     13  C   UNL     1      35.154 -16.342 -22.239  0.00  0.00    +0.148 C 
ATOM     14  C   UNL     1      34.735 -14.273 -22.900  0.00  0.00    +0.059 C 
ATOM     15  C   UNL     1      34.455 -15.198 -23.901  0.00  0.00    +0.059 C 
ATOM     16  C   UNL     1      34.558 -12.897 -23.056  0.00  0.00    +0.019 C 
ATOM     17  C   UNL     1      33.969 -14.743 -25.138  0.00  0.00    +0.016 C 
ATOM     18  C   UNL     1      34.073 -12.461 -24.294  0.00  0.00    +0.073 C 
ATOM     19  C   UNL     1      33.784 -13.367 -25.318  0.00  0.00    +0.005 C 
ATOM     20  H   UNL     1      35.467 -14.694 -20.969  0.00  0.00    +0.148 HD
ATOM     21  H   UNL     1      34.612 -17.315 -23.980  0.00  0.00    +0.148 HD
BRANCH  18  25
ATOM     22  F   UNL     1      33.067 -10.410 -23.587  0.00  0.00    -0.166 F 
ATOM     23  F   UNL     1      35.022 -10.277 -24.516  0.00  0.00    -0.166 F 
ATOM     24  F   UNL     1      33.277 -10.740 -25.726  0.00  0.00    -0.166 F 
ATOM     25  C   UNL     1      33.865 -11.001 -24.524  0.00  0.00    +0.419 C 
ENDBRANCH  18  25
ENDBRANCH   3  13
BRANCH   9  26
ATOM     26  O   UNL     1      33.527 -22.293 -18.214  0.00  0.00    -0.454 OA
BRANCH  26  30
ATOM     27  O   UNL     1      30.018 -24.344 -13.351  0.00  0.00    -0.275 OA
ATOM     28  N   UNL     1      32.219 -23.986 -13.899  0.00  0.00    -0.270 N 
ATOM     29  N   UNL     1      34.497 -23.562 -14.380  0.00  0.00    -0.229 NA
ATOM     30  C   UNL     1      33.824 -22.693 -16.946  0.00  0.00    +0.146 C 
ATOM     31  C   UNL     1      32.825 -23.112 -16.067  0.00  0.00    +0.045 C 
ATOM     32  C   UNL     1      31.395 -23.219 -16.499  0.00  0.00    +0.042 C 
ATOM     33  C   UNL     1      35.152 -22.692 -16.536  0.00  0.00    +0.058 C 
ATOM     34  C   UNL     1      33.207 -23.535 -14.794  0.00  0.00    +0.133 C 
ATOM     35  C   UNL     1      30.457 -23.041 -15.316  0.00  0.00    +0.090 C 
ATOM     36  C   UNL     1      30.861 -23.879 -14.119  0.00  0.00    +0.227 C 
ATOM     37  C   UNL     1      35.432 -23.135 -15.256  0.00  0.00    +0.103 C 
ATOM     38  H   UNL     1      32.517 -24.407 -13.060  0.00  0.00    +0.156 HD
ENDBRANCH  26  30
ENDBRANCH   9  26
TORSDOF 4
ENDMDL
MODEL 4
REMARK VINA RESULT:     -12.8      5.806     11.400
REMARK  Name = 89670174
REMARK  4 active torsions:
REMARK  status: ('A' for Active; 'I' for Inactive)
REMARK    1  A    between atoms: C_3  and  C_13
REMARK    2  A    between atoms: C_9  and  O_26
REMARK    3  A    between atoms: C_18  and  C_25
REMARK    4  A    between atoms: O_26  and  C_30
REMARK                            x       y       z     vdW  Elec       q    Type
REMARK                         _______ _______ _______ _____ _____    ______ ____
ROOT
ATOM      1  O   UNL     1      37.605 -19.072 -19.844  0.00  0.00    -0.479 OA
ATOM      2  C   UNL     1      35.593 -19.237 -21.223  0.00  0.00    +0.072 C 
ATOM      3  C   UNL     1      35.647 -17.761 -20.861  0.00  0.00    +0.085 C 
ATOM      4  C   UNL     1      36.934 -18.536 -21.045  0.00  0.00    +0.174 C 
ATOM      5  C   UNL     1      35.642 -20.272 -20.159  0.00  0.00    +0.018 C 
ATOM      6  C   UNL     1      36.820 -20.130 -19.413  0.00  0.00    +0.135 C 
ATOM      7  C   UNL     1      34.747 -21.279 -19.833  0.00  0.00    +0.036 C 
ATOM      8  C   UNL     1      37.138 -20.952 -18.350  0.00  0.00    +0.040 C 
ATOM      9  C   UNL     1      35.049 -22.127 -18.762  0.00  0.00    +0.145 C 
ATOM     10  C   UNL     1      36.235 -21.964 -18.026  0.00  0.00    +0.041 C 
ENDROOT
BRANCH   3  13
ATOM     11  N   UNL     1      35.250 -15.377 -21.658  0.00  0.00    -0.318 N 
ATOM     12  N   UNL     1      34.823 -17.016 -23.097  0.00  0.00    -0.318 N 
ATOM     13  C   UNL     1      35.237 -16.725 -21.885  0.00  0.00    +0.148 C 
ATOM     14  C   UNL     1      34.817 -14.756 -22.802  0.00  0.00    +0.059 C 
ATOM     15  C   UNL     1      34.557 -15.800 -23.685  0.00  0.00    +0.059 C 
ATOM     16  C   UNL     1      34.635 -13.411 -23.129  0.00  0.00    +0.019 C 
ATOM     17  C   UNL     1      34.088 -15.504 -24.976  0.00  0.00    +0.016 C 
ATOM     18  C   UNL     1      34.167 -13.135 -24.418  0.00  0.00    +0.073 C 
ATOM     19  C   UNL     1      33.898 -14.161 -25.326  0.00  0.00    +0.005 C 
ATOM     20  H   UNL     1      35.522 -14.931 -20.823  0.00  0.00    +0.148 HD
ATOM     21  H   UNL     1      34.726 -17.909 -23.499  0.00  0.00    +0.148 HD
BRANCH  18  25
ATOM     22  F   UNL     1      35.117 -11.010 -24.968  0.00  0.00    -0.166 F 
ATOM     23  F   UNL     1      33.312 -11.583 -26.025  0.00  0.00    -0.166 F 
ATOM     24  F   UNL     1      33.207 -11.017 -23.928  0.00  0.00    -0.166 F 
ATOM     25  C   UNL     1      33.956 -11.716 -24.829  0.00  0.00    +0.419 C 
ENDBRANCH  18  25
ENDBRANCH   3  13
BRANCH   9  26
ATOM     26  O   UNL     1      34.167 -23.137 -18.420  0.00  0.00    -0.454 OA
BRANCH  26  30
ATOM     27  O   UNL     1      34.752 -24.221 -12.202  0.00  0.00    -0.275 OA
ATOM     28  N   UNL     1      33.264 -23.305 -13.692  0.00  0.00    -0.270 N 
ATOM     29  N   UNL     1      31.658 -22.421 -15.187  0.00  0.00    -0.229 NA
ATOM     30  C   UNL     1      33.349 -22.929 -17.350  0.00  0.00    +0.146 C 
ATOM     31  C   UNL     1      33.750 -23.266 -16.056  0.00  0.00    +0.045 C 
ATOM     32  C   UNL     1      35.122 -23.795 -15.773  0.00  0.00    +0.042 C 
ATOM     33  C   UNL     1      32.100 -22.357 -17.562  0.00  0.00    +0.058 C 
ATOM     34  C   UNL     1      32.871 -22.997 -15.008  0.00  0.00    +0.133 C 
ATOM     35  C   UNL     1      35.119 -24.669 -14.529  0.00  0.00    +0.090 C 
ATOM     36  C   UNL     1      34.395 -24.025 -13.364  0.00  0.00    +0.227 C 
ATOM     37  C   UNL     1      31.302 -22.123 -16.456  0.00  0.00    +0.103 C 
ATOM     38  H   UNL     1      32.693 -22.986 -12.955  0.00  0.00    +0.156 HD
ENDBRANCH  26  30
ENDBRANCH   9  26
TORSDOF 4
ENDMDL
MODEL 5
REMARK VINA RESULT:     -12.7      6.081     11.687
REMARK  Name = 89670174
REMARK  4 active torsions:
REMARK  status: ('A' for Active; 'I' for Inactive)
REMARK    1  A    between atoms: C_3  and  C_13
REMARK    2  A    between atoms: C_9  and  O_26
REMARK    3  A    between atoms: C_18  and  C_25
REMARK    4  A    between atoms: O_26  and  C_30
REMARK                            x       y       z     vdW  Elec       q    Type
REMARK                         _______ _______ _______ _____ _____    ______ ____
ROOT
ATOM      1  O   UNL     1      33.676 -15.031 -25.628  0.00  0.00    -0.479 OA
ATOM      2  C   UNL     1      33.975 -14.057 -23.406  0.00  0.00    +0.072 C 
ATOM      3  C   UNL     1      34.610 -13.026 -24.326  0.00  0.00    +0.085 C 
ATOM      4  C   UNL     1      33.422 -13.830 -24.807  0.00  0.00    +0.174 C 
ATOM      5  C   UNL     1      34.399 -15.478 -23.467  0.00  0.00    +0.018 C 
ATOM      6  C   UNL     1      34.194 -15.979 -24.759  0.00  0.00    +0.135 C 
ATOM      7  C   UNL     1      34.928 -16.309 -22.491  0.00  0.00    +0.036 C 
ATOM      8  C   UNL     1      34.502 -17.277 -25.118  0.00  0.00    +0.040 C 
ATOM      9  C   UNL     1      35.245 -17.628 -22.830  0.00  0.00    +0.145 C 
ATOM     10  C   UNL     1      35.033 -18.108 -24.134  0.00  0.00    +0.041 C 
ENDROOT
BRANCH   3  13
ATOM     11  N   UNL     1      33.407 -11.026 -23.310  0.00  0.00    -0.318 N 
ATOM     12  N   UNL     1      35.299 -10.627 -24.408  0.00  0.00    -0.318 N 
ATOM     13  C   UNL     1      34.451 -11.552 -24.020  0.00  0.00    +0.148 C 
ATOM     14  C   UNL     1      33.596  -9.669 -23.234  0.00  0.00    +0.059 C 
ATOM     15  C   UNL     1      34.783  -9.445 -23.926  0.00  0.00    +0.059 C 
ATOM     16  C   UNL     1      32.852  -8.650 -22.637  0.00  0.00    +0.019 C 
ATOM     17  C   UNL     1      35.272  -8.133 -24.039  0.00  0.00    +0.016 C 
ATOM     18  C   UNL     1      33.354  -7.350 -22.760  0.00  0.00    +0.073 C 
ATOM     19  C   UNL     1      34.543  -7.095 -23.448  0.00  0.00    +0.005 C 
ATOM     20  H   UNL     1      32.656 -11.530 -22.923  0.00  0.00    +0.148 HD
ATOM     21  H   UNL     1      36.125 -10.751 -24.928  0.00  0.00    +0.148 HD
BRANCH  18  25
ATOM     22  F   UNL     1      31.264  -6.248 -22.394  0.00  0.00    -0.166 F 
ATOM     23  F   UNL     1      32.711  -6.171 -20.781  0.00  0.00    -0.166 F 
ATOM     24  F   UNL     1      33.036  -5.001 -22.585  0.00  0.00    -0.166 F 
ATOM     25  C   UNL     1      32.605  -6.217 -22.141  0.00  0.00    +0.419 C 
ENDBRANCH  18  25
ENDBRANCH   3  13
BRANCH   9  26
ATOM     26  O   UNL     1      35.776 -18.472 -21.870  0.00  0.00    -0.454 OA
BRANCH  26  30
ATOM     27  O   UNL     1      36.466 -22.519 -17.042  0.00  0.00    -0.275 OA
ATOM     28  N   UNL     1      34.823 -21.687 -18.413  0.00  0.00    -0.270 N 
ATOM     29  N   UNL     1      33.103 -20.926 -19.848  0.00  0.00    -0.229 NA
ATOM     30  C   UNL     1      34.918 -19.299 -21.209  0.00  0.00    +0.146 C 
ATOM     31  C   UNL     1      35.353 -20.096 -20.149  0.00  0.00    +0.045 C 
ATOM     32  C   UNL     1      36.760 -20.021 -19.638  0.00  0.00    +0.042 C 
ATOM     33  C   UNL     1      33.583 -19.330 -21.597  0.00  0.00    +0.058 C 
ATOM     34  C   UNL     1      34.412 -20.894 -19.501  0.00  0.00    +0.133 C 
ATOM     35  C   UNL     1      37.176 -21.339 -19.004  0.00  0.00    +0.090 C 
ATOM     36  C   UNL     1      36.138 -21.877 -18.039  0.00  0.00    +0.227 C 
ATOM     37  C   UNL     1      32.725 -20.151 -20.888  0.00  0.00    +0.103 C 
ATOM     38  H   UNL     1      34.126 -22.138 -17.883  0.00  0.00    +0.156 HD
ENDBRANCH  26  30
ENDBRANCH   9  26
TORSDOF 4
ENDMDL
MODEL 6
REMARK VINA RESULT:     -12.2      5.200      8.776
REMARK  Name = 89670174
REMARK  4 active torsions:
REMARK  status: ('A' for Active; 'I' for Inactive)
REMARK    1  A    between atoms: C_3  and  C_13
REMARK    2  A    between atoms: C_9  and  O_26
REMARK    3  A    between atoms: C_18  and  C_25
REMARK    4  A    between atoms: O_26  and  C_30
REMARK                            x       y       z     vdW  Elec       q    Type
REMARK                         _______ _______ _______ _____ _____    ______ ____
ROOT
ATOM      1  O   UNL     1      31.614 -10.251 -21.198  0.00  0.00    -0.479 OA
ATOM      2  C   UNL     1      33.121 -10.656 -23.080  0.00  0.00    +0.072 C 
ATOM      3  C   UNL     1      33.514 -11.733 -22.081  0.00  0.00    +0.085 C 
ATOM      4  C   UNL     1      32.075 -11.273 -22.159  0.00  0.00    +0.174 C 
ATOM      5  C   UNL     1      33.090  -9.229 -22.670  0.00  0.00    +0.018 C 
ATOM      6  C   UNL     1      32.204  -9.062 -21.598  0.00  0.00    +0.135 C 
ATOM      7  C   UNL     1      33.769  -8.129 -23.170  0.00  0.00    +0.036 C 
ATOM      8  C   UNL     1      31.971  -7.839 -21.001  0.00  0.00    +0.040 C 
ATOM      9  C   UNL     1      33.548  -6.878 -22.584  0.00  0.00    +0.145 C 
ATOM     10  C   UNL     1      32.656  -6.735 -21.507  0.00  0.00    +0.041 C 
ENDROOT
BRANCH   3  13
ATOM     11  N   UNL     1      34.547 -14.045 -21.821  0.00  0.00    -0.318 N 
ATOM     12  N   UNL     1      33.638 -13.550 -23.789  0.00  0.00    -0.318 N 
ATOM     13  C   UNL     1      33.895 -13.111 -22.578  0.00  0.00    +0.148 C 
ATOM     14  C   UNL     1      34.722 -15.163 -22.597  0.00  0.00    +0.059 C 
ATOM     15  C   UNL     1      34.147 -14.830 -23.820  0.00  0.00    +0.059 C 
ATOM     16  C   UNL     1      35.317 -16.399 -22.341  0.00  0.00    +0.019 C 
ATOM     17  C   UNL     1      34.155 -15.773 -24.861  0.00  0.00    +0.016 C 
ATOM     18  C   UNL     1      35.317 -17.326 -23.389  0.00  0.00    +0.073 C 
ATOM     19  C   UNL     1      34.747 -17.020 -24.626  0.00  0.00    +0.005 C 
ATOM     20  H   UNL     1      34.839 -13.935 -20.888  0.00  0.00    +0.148 HD
ATOM     21  H   UNL     1      33.181 -13.070 -24.517  0.00  0.00    +0.148 HD
BRANCH  18  25
ATOM     22  F   UNL     1      37.300 -18.635 -23.117  0.00  0.00    -0.166 F 
ATOM     23  F   UNL     1      35.543 -19.273 -22.018  0.00  0.00    -0.166 F 
ATOM     24  F   UNL     1      35.632 -19.548 -24.173  0.00  0.00    -0.166 F 
ATOM     25  C   UNL     1      35.936 -18.668 -23.176  0.00  0.00    +0.419 C 
ENDBRANCH  18  25
ENDBRANCH   3  13
BRANCH   9  26
ATOM     26  O   UNL     1      34.218  -5.768 -23.067  0.00  0.00    -0.454 OA
BRANCH  26  30
ATOM     27  O   UNL     1      35.528  -4.003 -29.012  0.00  0.00    -0.275 OA
ATOM     28  N   UNL     1      33.875  -3.769 -27.436  0.00  0.00    -0.270 N 
ATOM     29  N   UNL     1      32.176  -3.427 -25.825  0.00  0.00    -0.229 NA
ATOM     30  C   UNL     1      33.572  -4.986 -23.977  0.00  0.00    +0.146 C 
ATOM     31  C   UNL     1      34.102  -4.769 -25.250  0.00  0.00    +0.045 C 
ATOM     32  C   UNL     1      35.360  -5.447 -25.701  0.00  0.00    +0.042 C 
ATOM     33  C   UNL     1      32.357  -4.410 -23.626  0.00  0.00    +0.058 C 
ATOM     34  C   UNL     1      33.371  -3.981 -26.138  0.00  0.00    +0.133 C 
ATOM     35  C   UNL     1      36.071  -4.618 -26.759  0.00  0.00    +0.090 C 
ATOM     36  C   UNL     1      35.138  -4.138 -27.852  0.00  0.00    +0.227 C 
ATOM     37  C   UNL     1      31.704  -3.649 -24.579  0.00  0.00    +0.103 C 
ATOM     38  H   UNL     1      33.286  -3.327 -28.090  0.00  0.00    +0.156 HD
ENDBRANCH  26  30
ENDBRANCH   9  26
TORSDOF 4
ENDMDL
MODEL 7
REMARK VINA RESULT:     -12.1      6.648     12.291
REMARK  Name = 89670174
REMARK  4 active torsions:
REMARK  status: ('A' for Active; 'I' for Inactive)
REMARK    1  A    between atoms: C_3  and  C_13
REMARK    2  A    between atoms: C_9  and  O_26
REMARK    3  A    between atoms: C_18  and  C_25
REMARK    4  A    between atoms: O_26  and  C_30
REMARK                            x       y       z     vdW  Elec       q    Type
REMARK                         _______ _______ _______ _____ _____    ______ ____
ROOT
ATOM      1  O   UNL     1      31.140 -23.524 -16.044  0.00  0.00    -0.479 OA
ATOM      2  C   UNL     1      33.256 -22.298 -16.033  0.00  0.00    +0.072 C 
ATOM      3  C   UNL     1      33.125 -22.754 -17.478  0.00  0.00    +0.085 C 
ATOM      4  C   UNL     1      31.882 -22.418 -16.683  0.00  0.00    +0.174 C 
ATOM      5  C   UNL     1      33.161 -23.282 -14.925  0.00  0.00    +0.018 C 
ATOM      6  C   UNL     1      31.926 -23.941 -14.981  0.00  0.00    +0.135 C 
ATOM      7  C   UNL     1      34.062 -23.607 -13.923  0.00  0.00    +0.036 C 
ATOM      8  C   UNL     1      31.556 -24.918 -14.078  0.00  0.00    +0.040 C 
ATOM      9  C   UNL     1      33.708 -24.591 -12.994  0.00  0.00    +0.145 C 
ATOM     10  C   UNL     1      32.465 -25.242 -13.071  0.00  0.00    +0.041 C 
ENDROOT
BRANCH   3  13
ATOM     11  N   UNL     1      34.881 -21.495 -18.823  0.00  0.00    -0.318 N 
ATOM     12  N   UNL     1      32.762 -21.278 -19.459  0.00  0.00    -0.318 N 
ATOM     13  C   UNL     1      33.577 -21.838 -18.595  0.00  0.00    +0.148 C 
ATOM     14  C   UNL     1      34.908 -20.657 -19.909  0.00  0.00    +0.059 C 
ATOM     15  C   UNL     1      33.575 -20.537 -20.288  0.00  0.00    +0.059 C 
ATOM     16  C   UNL     1      35.955 -20.013 -20.571  0.00  0.00    +0.019 C 
ATOM     17  C   UNL     1      33.246 -19.731 -21.390  0.00  0.00    +0.016 C 
ATOM     18  C   UNL     1      35.609 -19.214 -21.667  0.00  0.00    +0.073 C 
ATOM     19  C   UNL     1      34.279 -19.075 -22.070  0.00  0.00    +0.005 C 
ATOM     20  H   UNL     1      35.660 -21.795 -18.302  0.00  0.00    +0.148 HD
ATOM     21  H   UNL     1      31.783 -21.368 -19.506  0.00  0.00    +0.148 HD
BRANCH  18  25
ATOM     22  F   UNL     1      36.434 -17.171 -22.596  0.00  0.00    -0.166 F 
ATOM     23  F   UNL     1      37.905 -18.557 -21.810  0.00  0.00    -0.166 F 
ATOM     24  F   UNL     1      36.872 -19.011 -23.669  0.00  0.00    -0.166 F 
ATOM     25  C   UNL     1      36.684 -18.502 -22.418  0.00  0.00    +0.419 C 
ENDBRANCH  18  25
ENDBRANCH   3  13
BRANCH   9  26
ATOM     26  O   UNL     1      34.595 -24.931 -11.987  0.00  0.00    -0.454 OA
BRANCH  26  30
ATOM     27  O   UNL     1      39.898 -26.360 -15.151  0.00  0.00    -0.275 OA
ATOM     28  N   UNL     1      39.099 -24.781 -13.687  0.00  0.00    -0.270 N 
ATOM     29  N   UNL     1      38.356 -23.173 -12.118  0.00  0.00    -0.229 NA
ATOM     30  C   UNL     1      35.840 -24.381 -12.027  0.00  0.00    +0.146 C 
ATOM     31  C   UNL     1      36.841 -24.912 -12.842  0.00  0.00    +0.045 C 
ATOM     32  C   UNL     1      36.571 -26.058 -13.768  0.00  0.00    +0.042 C 
ATOM     33  C   UNL     1      36.104 -23.260 -11.248  0.00  0.00    +0.058 C 
ATOM     34  C   UNL     1      38.082 -24.278 -12.853  0.00  0.00    +0.133 C 
ATOM     35  C   UNL     1      37.839 -26.856 -14.026  0.00  0.00    +0.090 C 
ATOM     36  C   UNL     1      39.023 -25.976 -14.375  0.00  0.00    +0.227 C 
ATOM     37  C   UNL     1      37.365 -22.698 -11.332  0.00  0.00    +0.103 C 
ATOM     38  H   UNL     1      39.919 -24.246 -13.786  0.00  0.00    +0.156 HD
ENDBRANCH  26  30
ENDBRANCH   9  26
TORSDOF 4
ENDMDL
MODEL 8
REMARK VINA RESULT:     -11.9      1.704      2.608
REMARK  Name = 89670174
REMARK  4 active torsions:
REMARK  status: ('A' for Active; 'I' for Inactive)
REMARK    1  A    between atoms: C_3  and  C_13
REMARK    2  A    between atoms: C_9  and  O_26
REMARK    3  A    between atoms: C_18  and  C_25
REMARK    4  A    between atoms: O_26  and  C_30
REMARK                            x       y       z     vdW  Elec       q    Type
REMARK                         _______ _______ _______ _____ _____    ______ ____
ROOT
ATOM      1  O   UNL     1      34.482 -17.159 -24.997  0.00  0.00    -0.479 OA
ATOM      2  C   UNL     1      35.211 -16.682 -22.712  0.00  0.00    +0.072 C 
ATOM      3  C   UNL     1      34.214 -17.816 -22.530  0.00  0.00    +0.085 C 
ATOM      4  C   UNL     1      35.065 -17.760 -23.780  0.00  0.00    +0.174 C 
ATOM      5  C   UNL     1      34.824 -15.456 -23.455  0.00  0.00    +0.018 C 
ATOM      6  C   UNL     1      34.427 -15.795 -24.756  0.00  0.00    +0.135 C 
ATOM      7  C   UNL     1      34.806 -14.127 -23.062  0.00  0.00    +0.036 C 
ATOM      8  C   UNL     1      34.007 -14.858 -25.680  0.00  0.00    +0.040 C 
ATOM      9  C   UNL     1      34.387 -13.159 -23.982  0.00  0.00    +0.145 C 
ATOM     10  C   UNL     1      33.991 -13.523 -25.281  0.00  0.00    +0.041 C 
ENDROOT
BRANCH   3  13
ATOM     11  N   UNL     1      33.492 -19.579 -20.842  0.00  0.00    -0.318 N 
ATOM     12  N   UNL     1      35.675 -19.241 -21.092  0.00  0.00    -0.318 N 
ATOM     13  C   UNL     1      34.475 -18.880 -21.487  0.00  0.00    +0.148 C 
ATOM     14  C   UNL     1      34.099 -20.449 -19.973  0.00  0.00    +0.059 C 
ATOM     15  C   UNL     1      35.460 -20.220 -20.148  0.00  0.00    +0.059 C 
ATOM     16  C   UNL     1      33.588 -21.389 -19.077  0.00  0.00    +0.019 C 
ATOM     17  C   UNL     1      36.382 -20.963 -19.392  0.00  0.00    +0.016 C 
ATOM     18  C   UNL     1      34.520 -22.120 -18.332  0.00  0.00    +0.073 C 
ATOM     19  C   UNL     1      35.893 -21.912 -18.486  0.00  0.00    +0.005 C 
ATOM     20  H   UNL     1      32.523 -19.475 -20.977  0.00  0.00    +0.148 HD
ATOM     21  H   UNL     1      36.540 -18.890 -21.403  0.00  0.00    +0.148 HD
BRANCH  18  25
ATOM     22  F   UNL     1      33.626 -24.304 -17.947  0.00  0.00    -0.166 F 
ATOM     23  F   UNL     1      34.979 -23.518 -16.446  0.00  0.00    -0.166 F 
ATOM     24  F   UNL     1      32.971 -22.705 -16.628  0.00  0.00    -0.166 F 
ATOM     25  C   UNL     1      34.036 -23.143 -17.359  0.00  0.00    +0.419 C 
ENDBRANCH  18  25
ENDBRANCH   3  13
BRANCH   9  26
ATOM     26  O   UNL     1      34.360 -11.827 -23.608  0.00  0.00    -0.454 OA
BRANCH  26  30
ATOM     27  O   UNL     1      31.702  -6.179 -22.509  0.00  0.00    -0.275 OA
ATOM     28  N   UNL     1      31.444  -8.384 -21.922  0.00  0.00    -0.270 N 
ATOM     29  N   UNL     1      31.180 -10.628 -21.220  0.00  0.00    -0.229 NA
ATOM     30  C   UNL     1      33.333 -11.412 -22.815  0.00  0.00    +0.146 C 
ATOM     31  C   UNL     1      32.946 -10.071 -22.774  0.00  0.00    +0.045 C 
ATOM     32  C   UNL     1      33.586  -9.044 -23.656  0.00  0.00    +0.042 C 
ATOM     33  C   UNL     1      32.656 -12.352 -22.047  0.00  0.00    +0.058 C 
ATOM     34  C   UNL     1      31.868  -9.726 -21.960  0.00  0.00    +0.133 C 
ATOM     35  C   UNL     1      33.513  -7.665 -23.020  0.00  0.00    +0.090 C 
ATOM     36  C   UNL     1      32.129  -7.333 -22.498  0.00  0.00    +0.227 C 
ATOM     37  C   UNL     1      31.594 -11.913 -21.277  0.00  0.00    +0.103 C 
ATOM     38  H   UNL     1      30.602  -8.181 -21.453  0.00  0.00    +0.156 HD
ENDBRANCH  26  30
ENDBRANCH   9  26
TORSDOF 4
ENDMDL
MODEL 9
REMARK VINA RESULT:     -11.9      2.180      3.569
REMARK  Name = 89670174
REMARK  4 active torsions:
REMARK  status: ('A' for Active; 'I' for Inactive)
REMARK    1  A    between atoms: C_3  and  C_13
REMARK    2  A    between atoms: C_9  and  O_26
REMARK    3  A    between atoms: C_18  and  C_25
REMARK    4  A    between atoms: O_26  and  C_30
REMARK                            x       y       z     vdW  Elec       q    Type
REMARK                         _______ _______ _______ _____ _____    ______ ____
ROOT
ATOM      1  O   UNL     1      35.254 -16.426 -25.013  0.00  0.00    -0.479 OA
ATOM      2  C   UNL     1      35.093 -16.104 -22.595  0.00  0.00    +0.072 C 
ATOM      3  C   UNL     1      34.452 -17.467 -22.808  0.00  0.00    +0.085 C 
ATOM      4  C   UNL     1      35.588 -17.024 -23.705  0.00  0.00    +0.174 C 
ATOM      5  C   UNL     1      34.617 -14.924 -23.361  0.00  0.00    +0.018 C 
ATOM      6  C   UNL     1      34.745 -15.167 -24.735  0.00  0.00    +0.135 C 
ATOM      7  C   UNL     1      34.105 -13.710 -22.929  0.00  0.00    +0.036 C 
ATOM      8  C   UNL     1      34.376 -14.248 -25.697  0.00  0.00    +0.040 C 
ATOM      9  C   UNL     1      33.727 -12.761 -23.885  0.00  0.00    +0.145 C 
ATOM     10  C   UNL     1      33.862 -13.028 -25.259  0.00  0.00    +0.041 C 
ENDROOT
BRANCH   3  13
ATOM     11  N   UNL     1      33.669 -19.251 -21.171  0.00  0.00    -0.318 N 
ATOM     12  N   UNL     1      35.862 -18.971 -21.401  0.00  0.00    -0.318 N 
ATOM     13  C   UNL     1      34.676 -18.565 -21.792  0.00  0.00    +0.148 C 
ATOM     14  C   UNL     1      34.246 -20.162 -20.323  0.00  0.00    +0.059 C 
ATOM     15  C   UNL     1      35.614 -19.968 -20.484  0.00  0.00    +0.059 C 
ATOM     16  C   UNL     1      33.702 -21.110 -19.454  0.00  0.00    +0.019 C 
ATOM     17  C   UNL     1      36.510 -20.758 -19.744  0.00  0.00    +0.016 C 
ATOM     18  C   UNL     1      34.609 -21.887 -18.725  0.00  0.00    +0.073 C 
ATOM     19  C   UNL     1      35.987 -21.716 -18.866  0.00  0.00    +0.005 C 
ATOM     20  H   UNL     1      32.704 -19.115 -21.308  0.00  0.00    +0.148 HD
ATOM     21  H   UNL     1      36.739 -18.637 -21.699  0.00  0.00    +0.148 HD
BRANCH  18  25
ATOM     22  F   UNL     1      34.966 -23.237 -16.783  0.00  0.00    -0.166 F 
ATOM     23  F   UNL     1      32.941 -22.550 -17.143  0.00  0.00    -0.166 F 
ATOM     24  F   UNL     1      33.800 -24.099 -18.404  0.00  0.00    -0.166 F 
ATOM     25  C   UNL     1      34.089 -22.920 -17.781  0.00  0.00    +0.419 C 
ENDBRANCH  18  25
ENDBRANCH   3  13
BRANCH   9  26
ATOM     26  O   UNL     1      33.213 -11.544 -23.474  0.00  0.00    -0.454 OA
BRANCH  26  30
ATOM     27  O   UNL     1      32.734  -5.485 -21.676  0.00  0.00    -0.275 OA
ATOM     28  N   UNL     1      34.102  -6.842 -22.926  0.00  0.00    -0.270 N 
ATOM     29  N   UNL     1      35.501  -8.175 -24.291  0.00  0.00    -0.229 NA
ATOM     30  C   UNL     1      33.939 -10.425 -23.748  0.00  0.00    +0.146 C 
ATOM     31  C   UNL     1      33.602  -9.189 -23.193  0.00  0.00    +0.045 C 
ATOM     32  C   UNL     1      32.478  -9.052 -22.211  0.00  0.00    +0.042 C 
ATOM     33  C   UNL     1      35.044 -10.529 -24.585  0.00  0.00    +0.058 C 
ATOM     34  C   UNL     1      34.409  -8.093 -23.495  0.00  0.00    +0.133 C 
ATOM     35  C   UNL     1      31.887  -7.651 -22.258  0.00  0.00    +0.090 C 
ATOM     36  C   UNL     1      32.947  -6.568 -22.222  0.00  0.00    +0.227 C 
ATOM     37  C   UNL     1      35.786  -9.385 -24.819  0.00  0.00    +0.103 C 
ATOM     38  H   UNL     1      34.755  -6.114 -23.038  0.00  0.00    +0.156 HD
ENDBRANCH  26  30
ENDBRANCH   9  26
TORSDOF 4
ENDMDL
