MODEL 1
REMARK VINA RESULT:     -12.2      0.000      0.000
REMARK  Name = 24882195
REMARK  2 active torsions:
REMARK  status: ('A' for Active; 'I' for Inactive)
REMARK    1  A    between atoms: C_5  and  N_15
REMARK    2  A    between atoms: N_15  and  C_21
REMARK                            x       y       z     vdW  Elec       q    Type
REMARK                         _______ _______ _______ _____ _____    ______ ____
ROOT
ATOM      1  C   UNL     1      35.304 -22.092 -17.615  0.00  0.00    +0.001 C 
ATOM      2  C   UNL     1      33.948 -22.115 -18.008  0.00  0.00    +0.000 C 
ATOM      3  C   UNL     1      35.833 -20.647 -19.521  0.00  0.00    +0.000 C 
ATOM      4  C   UNL     1      34.477 -20.669 -19.914  0.00  0.00    +0.000 C 
ATOM      5  C   UNL     1      34.770 -23.529 -15.724  0.00  0.00    +0.049 C 
ATOM      6  C   UNL     1      36.229 -21.359 -18.377  0.00  0.00    +0.000 C 
ATOM      7  C   UNL     1      35.699 -22.805 -16.471  0.00  0.00    +0.015 C 
ATOM      8  C   UNL     1      33.551 -21.403 -19.152  0.00  0.00    +0.000 C 
ATOM      9  C   UNL     1      33.024 -22.849 -17.245  0.00  0.00    +0.001 C 
ATOM     10  C   UNL     1      33.433 -23.551 -16.111  0.00  0.00    +0.015 C 
ATOM     11  C   UNL     1      36.756 -19.913 -20.284  0.00  0.00    +0.000 C 
ATOM     12  C   UNL     1      34.081 -19.957 -21.058  0.00  0.00    +0.000 C 
ATOM     13  C   UNL     1      36.348 -19.211 -21.417  0.00  0.00    +0.000 C 
ATOM     14  C   UNL     1      35.012 -19.233 -21.804  0.00  0.00    +0.000 C 
ENDROOT
BRANCH   5  15
ATOM     15  N   UNL     1      35.184 -24.238 -14.577  0.00  0.00    -0.299 N 
ATOM     16  H   UNL     1      34.471 -24.472 -13.939  0.00  0.00    +0.153 HD
BRANCH  15  21
ATOM     17  N   UNL     1      37.029 -24.021 -13.133  0.00  0.00    -0.106 N 
ATOM     18  N   UNL     1      39.042 -25.321 -13.340  0.00  0.00    -0.340 NA
ATOM     19  N   UNL     1      36.533 -23.049 -12.324  0.00  0.00    -0.139 NA
ATOM     20  N   UNL     1      38.628 -23.633 -11.648  0.00  0.00    -0.145 NA
ATOM     21  C   UNL     1      36.428 -24.639 -14.238  0.00  0.00    +0.138 C 
ATOM     22  C   UNL     1      37.119 -25.586 -14.891  0.00  0.00    +0.061 C 
ATOM     23  C   UNL     1      38.313 -24.364 -12.699  0.00  0.00    +0.174 C 
ATOM     24  C   UNL     1      38.484 -25.894 -14.365  0.00  0.00    +0.125 C 
ATOM     25  C   UNL     1      39.272 -26.955 -15.090  0.00  0.00    +0.068 C 
ATOM     26  C   UNL     1      37.527 -22.861 -11.462  0.00  0.00    +0.230 C 
ENDBRANCH  15  21
ENDBRANCH   5  15
TORSDOF 2
ENDMDL
MODEL 2
REMARK VINA RESULT:     -12.2      1.025      2.304
REMARK  Name = 24882195
REMARK  2 active torsions:
REMARK  status: ('A' for Active; 'I' for Inactive)
REMARK    1  A    between atoms: C_5  and  N_15
REMARK    2  A    between atoms: N_15  and  C_21
REMARK                            x       y       z     vdW  Elec       q    Type
REMARK                         _______ _______ _______ _____ _____    ______ ____
ROOT
ATOM      1  C   UNL     1      35.075 -21.974 -17.938  0.00  0.00    +0.001 C 
ATOM      2  C   UNL     1      33.748 -21.814 -18.392  0.00  0.00    +0.000 C 
ATOM      3  C   UNL     1      35.869 -20.528 -19.750  0.00  0.00    +0.000 C 
ATOM      4  C   UNL     1      34.541 -20.368 -20.204  0.00  0.00    +0.000 C 
ATOM      5  C   UNL     1      34.278 -23.409 -16.142  0.00  0.00    +0.049 C 
ATOM      6  C   UNL     1      36.118 -21.329 -18.624  0.00  0.00    +0.000 C 
ATOM      7  C   UNL     1      35.324 -22.776 -16.812  0.00  0.00    +0.015 C 
ATOM      8  C   UNL     1      33.497 -21.012 -19.519  0.00  0.00    +0.000 C 
ATOM      9  C   UNL     1      32.705 -22.458 -17.706  0.00  0.00    +0.001 C 
ATOM     10  C   UNL     1      32.969 -23.251 -16.588  0.00  0.00    +0.015 C 
ATOM     11  C   UNL     1      36.911 -19.884 -20.437  0.00  0.00    +0.000 C 
ATOM     12  C   UNL     1      34.291 -19.566 -21.330  0.00  0.00    +0.000 C 
ATOM     13  C   UNL     1      36.647 -19.091 -21.554  0.00  0.00    +0.000 C 
ATOM     14  C   UNL     1      35.339 -18.933 -22.000  0.00  0.00    +0.000 C 
ENDROOT
BRANCH   5  15
ATOM     15  N   UNL     1      34.545 -24.210 -15.012  0.00  0.00    -0.299 N 
ATOM     16  H   UNL     1      33.817 -24.810 -14.732  0.00  0.00    +0.153 HD
BRANCH  15  21
ATOM     17  N   UNL     1      36.586 -25.283 -14.539  0.00  0.00    -0.106 N 
ATOM     18  N   UNL     1      38.099 -24.565 -12.814  0.00  0.00    -0.340 NA
ATOM     19  N   UNL     1      36.517 -26.262 -15.479  0.00  0.00    -0.139 NA
ATOM     20  N   UNL     1      38.448 -26.459 -14.288  0.00  0.00    -0.145 NA
ATOM     21  C   UNL     1      35.668 -24.262 -14.262  0.00  0.00    +0.138 C 
ATOM     22  C   UNL     1      35.955 -23.399 -13.275  0.00  0.00    +0.061 C 
ATOM     23  C   UNL     1      37.778 -25.423 -13.823  0.00  0.00    +0.174 C 
ATOM     24  C   UNL     1      37.247 -23.617 -12.557  0.00  0.00    +0.125 C 
ATOM     25  C   UNL     1      37.581 -22.656 -11.445  0.00  0.00    +0.068 C 
ATOM     26  C   UNL     1      37.650 -26.927 -15.281  0.00  0.00    +0.230 C 
ENDBRANCH  15  21
ENDBRANCH   5  15
TORSDOF 2
ENDMDL
MODEL 3
REMARK VINA RESULT:     -12.0      2.803      4.824
REMARK  Name = 24882195
REMARK  2 active torsions:
REMARK  status: ('A' for Active; 'I' for Inactive)
REMARK    1  A    between atoms: C_5  and  N_15
REMARK    2  A    between atoms: N_15  and  C_21
REMARK                            x       y       z     vdW  Elec       q    Type
REMARK                         _______ _______ _______ _____ _____    ______ ____
ROOT
ATOM      1  C   UNL     1      34.476 -21.091 -19.675  0.00  0.00    +0.001 C 
ATOM      2  C   UNL     1      35.804 -20.910 -19.232  0.00  0.00    +0.000 C 
ATOM      3  C   UNL     1      34.861 -19.487 -21.486  0.00  0.00    +0.000 C 
ATOM      4  C   UNL     1      36.190 -19.306 -21.043  0.00  0.00    +0.000 C 
ATOM      5  C   UNL     1      34.102 -22.683 -17.872  0.00  0.00    +0.049 C 
ATOM      6  C   UNL     1      34.022 -20.376 -20.796  0.00  0.00    +0.000 C 
ATOM      7  C   UNL     1      33.636 -21.980 -18.984  0.00  0.00    +0.015 C 
ATOM      8  C   UNL     1      36.645 -20.020 -19.922  0.00  0.00    +0.000 C 
ATOM      9  C   UNL     1      36.258 -21.625 -18.111  0.00  0.00    +0.001 C 
ATOM     10  C   UNL     1      35.412 -22.506 -17.436  0.00  0.00    +0.015 C 
ATOM     11  C   UNL     1      34.409 -18.771 -22.606  0.00  0.00    +0.000 C 
ATOM     12  C   UNL     1      37.030 -18.416 -21.734  0.00  0.00    +0.000 C 
ATOM     13  C   UNL     1      35.254 -17.891 -23.281  0.00  0.00    +0.000 C 
ATOM     14  C   UNL     1      36.564 -17.714 -22.846  0.00  0.00    +0.000 C 
ENDROOT
BRANCH   5  15
ATOM     15  N   UNL     1      33.246 -23.572 -17.190  0.00  0.00    -0.299 N 
ATOM     16  H   UNL     1      33.203 -24.487 -17.553  0.00  0.00    +0.153 HD
BRANCH  15  21
ATOM     17  N   UNL     1      33.033 -23.586 -14.846  0.00  0.00    -0.106 N 
ATOM     18  N   UNL     1      31.039 -22.910 -13.686  0.00  0.00    -0.340 NA
ATOM     19  N   UNL     1      34.275 -24.045 -14.538  0.00  0.00    -0.139 NA
ATOM     20  N   UNL     1      33.081 -23.688 -12.633  0.00  0.00    -0.145 NA
ATOM     21  C   UNL     1      32.475 -23.336 -16.106  0.00  0.00    +0.138 C 
ATOM     22  C   UNL     1      31.214 -22.879 -16.164  0.00  0.00    +0.061 C 
ATOM     23  C   UNL     1      32.320 -23.373 -13.663  0.00  0.00    +0.174 C 
ATOM     24  C   UNL     1      30.520 -22.678 -14.856  0.00  0.00    +0.125 C 
ATOM     25  C   UNL     1      29.103 -22.166 -14.906  0.00  0.00    +0.068 C 
ATOM     26  C   UNL     1      34.243 -24.084 -13.210  0.00  0.00    +0.230 C 
ENDBRANCH  15  21
ENDBRANCH   5  15
TORSDOF 2
ENDMDL
MODEL 4
REMARK VINA RESULT:     -11.9      6.246     10.491
REMARK  Name = 24882195
REMARK  2 active torsions:
REMARK  status: ('A' for Active; 'I' for Inactive)
REMARK    1  A    between atoms: C_5  and  N_15
REMARK    2  A    between atoms: N_15  and  C_21
REMARK                            x       y       z     vdW  Elec       q    Type
REMARK                         _______ _______ _______ _____ _____    ______ ____
ROOT
ATOM      1  C   UNL     1      35.019 -19.504 -21.112  0.00  0.00    +0.001 C 
ATOM      2  C   UNL     1      36.305 -19.748 -20.585  0.00  0.00    +0.000 C 
ATOM      3  C   UNL     1      34.051 -21.028 -19.456  0.00  0.00    +0.000 C 
ATOM      4  C   UNL     1      35.337 -21.273 -18.928  0.00  0.00    +0.000 C 
ATOM      5  C   UNL     1      35.990 -17.992 -22.754  0.00  0.00    +0.049 C 
ATOM      6  C   UNL     1      33.908 -20.148 -20.541  0.00  0.00    +0.000 C 
ATOM      7  C   UNL     1      34.877 -18.624 -22.198  0.00  0.00    +0.015 C 
ATOM      8  C   UNL     1      36.449 -20.629 -19.499  0.00  0.00    +0.000 C 
ATOM      9  C   UNL     1      37.416 -19.105 -21.156  0.00  0.00    +0.001 C 
ATOM     10  C   UNL     1      37.258 -18.232 -22.234  0.00  0.00    +0.015 C 
ATOM     11  C   UNL     1      32.941 -21.672 -18.884  0.00  0.00    +0.000 C 
ATOM     12  C   UNL     1      35.480 -22.153 -17.843  0.00  0.00    +0.000 C 
ATOM     13  C   UNL     1      33.099 -22.544 -17.807  0.00  0.00    +0.000 C 
ATOM     14  C   UNL     1      34.366 -22.784 -17.287  0.00  0.00    +0.000 C 
ENDROOT
BRANCH   5  15
ATOM     15  N   UNL     1      35.829 -17.111 -23.843  0.00  0.00    -0.299 N 
ATOM     16  H   UNL     1      36.356 -17.324 -24.647  0.00  0.00    +0.153 HD
BRANCH  15  21
ATOM     17  N   UNL     1      34.798 -15.300 -22.749  0.00  0.00    -0.106 N 
ATOM     18  N   UNL     1      33.437 -13.667 -23.872  0.00  0.00    -0.340 NA
ATOM     19  N   UNL     1      35.234 -15.557 -21.488  0.00  0.00    -0.139 NA
ATOM     20  N   UNL     1      33.936 -13.687 -21.498  0.00  0.00    -0.145 NA
ATOM     21  C   UNL     1      35.049 -16.011 -23.930  0.00  0.00    +0.138 C 
ATOM     22  C   UNL     1      34.505 -15.562 -25.071  0.00  0.00    +0.061 C 
ATOM     23  C   UNL     1      34.005 -14.149 -22.731  0.00  0.00    +0.174 C 
ATOM     24  C   UNL     1      33.671 -14.326 -24.968  0.00  0.00    +0.125 C 
ATOM     25  C   UNL     1      33.052 -13.811 -26.242  0.00  0.00    +0.068 C 
ATOM     26  C   UNL     1      34.690 -14.565 -20.791  0.00  0.00    +0.230 C 
ENDBRANCH  15  21
ENDBRANCH   5  15
TORSDOF 2
ENDMDL
MODEL 5
REMARK VINA RESULT:     -11.8      2.860      4.493
REMARK  Name = 24882195
REMARK  2 active torsions:
REMARK  status: ('A' for Active; 'I' for Inactive)
REMARK    1  A    between atoms: C_5  and  N_15
REMARK    2  A    between atoms: N_15  and  C_21
REMARK                            x       y       z     vdW  Elec       q    Type
REMARK                         _______ _______ _______ _____ _____    ______ ____
ROOT
ATOM      1  C   UNL     1      34.367 -21.060 -19.490  0.00  0.00    +0.001 C 
ATOM      2  C   UNL     1      35.727 -21.019 -19.113  0.00  0.00    +0.000 C 
ATOM      3  C   UNL     1      34.839 -19.557 -21.366  0.00  0.00    +0.000 C 
ATOM      4  C   UNL     1      36.200 -19.515 -20.990  0.00  0.00    +0.000 C 
ATOM      5  C   UNL     1      33.907 -22.553 -17.623  0.00  0.00    +0.049 C 
ATOM      6  C   UNL     1      33.941 -20.329 -20.610  0.00  0.00    +0.000 C 
ATOM      7  C   UNL     1      33.469 -21.832 -18.734  0.00  0.00    +0.015 C 
ATOM      8  C   UNL     1      36.626 -20.247 -19.868  0.00  0.00    +0.000 C 
ATOM      9  C   UNL     1      36.153 -21.750 -17.992  0.00  0.00    +0.001 C 
ATOM     10  C   UNL     1      35.248 -22.513 -17.252  0.00  0.00    +0.015 C 
ATOM     11  C   UNL     1      34.414 -18.825 -22.486  0.00  0.00    +0.000 C 
ATOM     12  C   UNL     1      37.099 -18.744 -21.745  0.00  0.00    +0.000 C 
ATOM     13  C   UNL     1      35.319 -18.063 -23.226  0.00  0.00    +0.000 C 
ATOM     14  C   UNL     1      36.659 -18.023 -22.856  0.00  0.00    +0.000 C 
ENDROOT
BRANCH   5  15
ATOM     15  N   UNL     1      32.991 -23.323 -16.875  0.00  0.00    -0.299 N 
ATOM     16  H   UNL     1      32.213 -23.664 -17.373  0.00  0.00    +0.153 HD
BRANCH  15  21
ATOM     17  N   UNL     1      31.852 -24.087 -14.963  0.00  0.00    -0.106 N 
ATOM     18  N   UNL     1      32.904 -24.402 -12.824  0.00  0.00    -0.340 NA
ATOM     19  N   UNL     1      30.618 -24.231 -15.512  0.00  0.00    -0.139 NA
ATOM     20  N   UNL     1      30.565 -24.818 -13.313  0.00  0.00    -0.145 NA
ATOM     21  C   UNL     1      33.040 -23.654 -15.567  0.00  0.00    +0.138 C 
ATOM     22  C   UNL     1      34.150 -23.592 -14.815  0.00  0.00    +0.061 C 
ATOM     23  C   UNL     1      31.796 -24.454 -13.615  0.00  0.00    +0.174 C 
ATOM     24  C   UNL     1      34.007 -24.000 -13.384  0.00  0.00    +0.125 C 
ATOM     25  C   UNL     1      35.245 -23.934 -12.528  0.00  0.00    +0.068 C 
ATOM     26  C   UNL     1      29.898 -24.668 -14.485  0.00  0.00    +0.230 C 
ENDBRANCH  15  21
ENDBRANCH   5  15
TORSDOF 2
ENDMDL
MODEL 6
REMARK VINA RESULT:     -11.8      1.974      3.131
REMARK  Name = 24882195
REMARK  2 active torsions:
REMARK  status: ('A' for Active; 'I' for Inactive)
REMARK    1  A    between atoms: C_5  and  N_15
REMARK    2  A    between atoms: N_15  and  C_21
REMARK                            x       y       z     vdW  Elec       q    Type
REMARK                         _______ _______ _______ _____ _____    ______ ____
ROOT
ATOM      1  C   UNL     1      35.630 -21.066 -19.036  0.00  0.00    +0.001 C 
ATOM      2  C   UNL     1      34.287 -21.068 -19.471  0.00  0.00    +0.000 C 
ATOM      3  C   UNL     1      36.231 -19.594 -20.899  0.00  0.00    +0.000 C 
ATOM      4  C   UNL     1      34.887 -19.595 -21.335  0.00  0.00    +0.000 C 
ATOM      5  C   UNL     1      35.023 -22.530 -17.188  0.00  0.00    +0.049 C 
ATOM      6  C   UNL     1      36.585 -20.330 -19.757  0.00  0.00    +0.000 C 
ATOM      7  C   UNL     1      35.983 -21.803 -17.894  0.00  0.00    +0.015 C 
ATOM      8  C   UNL     1      33.932 -20.332 -20.614  0.00  0.00    +0.000 C 
ATOM      9  C   UNL     1      33.332 -21.805 -18.750  0.00  0.00    +0.001 C 
ATOM     10  C   UNL     1      33.699 -22.531 -17.616  0.00  0.00    +0.015 C 
ATOM     11  C   UNL     1      37.185 -18.857 -21.621  0.00  0.00    +0.000 C 
ATOM     12  C   UNL     1      34.534 -18.859 -22.477  0.00  0.00    +0.000 C 
ATOM     13  C   UNL     1      36.818 -18.131 -22.754  0.00  0.00    +0.000 C 
ATOM     14  C   UNL     1      35.494 -18.132 -23.182  0.00  0.00    +0.000 C 
ENDROOT
BRANCH   5  15
ATOM     15  N   UNL     1      35.395 -23.263 -16.042  0.00  0.00    -0.299 N 
ATOM     16  H   UNL     1      36.342 -23.527 -15.992  0.00  0.00    +0.153 HD
BRANCH  15  21
ATOM     17  N   UNL     1      35.191 -23.619 -13.725  0.00  0.00    -0.106 N 
ATOM     18  N   UNL     1      33.186 -24.431 -12.674  0.00  0.00    -0.340 NA
ATOM     19  N   UNL     1      36.441 -23.238 -13.355  0.00  0.00    -0.139 NA
ATOM     20  N   UNL     1      35.246 -23.870 -11.523  0.00  0.00    -0.145 NA
ATOM     21  C   UNL     1      34.623 -23.654 -15.005  0.00  0.00    +0.138 C 
ATOM     22  C   UNL     1      33.354 -24.072 -15.126  0.00  0.00    +0.061 C 
ATOM     23  C   UNL     1      34.476 -24.001 -12.585  0.00  0.00    +0.174 C 
ATOM     24  C   UNL     1      32.659 -24.464 -13.863  0.00  0.00    +0.125 C 
ATOM     25  C   UNL     1      31.233 -24.936 -13.985  0.00  0.00    +0.068 C 
ATOM     26  C   UNL     1      36.414 -23.409 -12.038  0.00  0.00    +0.230 C 
ENDBRANCH  15  21
ENDBRANCH   5  15
TORSDOF 2
ENDMDL
MODEL 7
REMARK VINA RESULT:     -11.6      1.418      3.007
REMARK  Name = 24882195
REMARK  2 active torsions:
REMARK  status: ('A' for Active; 'I' for Inactive)
REMARK    1  A    between atoms: C_5  and  N_15
REMARK    2  A    between atoms: N_15  and  C_21
REMARK                            x       y       z     vdW  Elec       q    Type
REMARK                         _______ _______ _______ _____ _____    ______ ____
ROOT
ATOM      1  C   UNL     1      35.260 -21.778 -18.029  0.00  0.00    +0.001 C 
ATOM      2  C   UNL     1      36.605 -21.356 -17.959  0.00  0.00    +0.000 C 
ATOM      3  C   UNL     1      34.965 -20.497 -20.097  0.00  0.00    +0.000 C 
ATOM      4  C   UNL     1      36.311 -20.074 -20.027  0.00  0.00    +0.000 C 
ATOM      5  C   UNL     1      35.562 -23.048 -15.975  0.00  0.00    +0.049 C 
ATOM      6  C   UNL     1      34.457 -21.343 -19.097  0.00  0.00    +0.000 C 
ATOM      7  C   UNL     1      34.752 -22.624 -17.029  0.00  0.00    +0.015 C 
ATOM      8  C   UNL     1      37.114 -20.510 -18.959  0.00  0.00    +0.000 C 
ATOM      9  C   UNL     1      37.408 -21.792 -16.892  0.00  0.00    +0.001 C 
ATOM     10  C   UNL     1      36.888 -22.632 -15.906  0.00  0.00    +0.015 C 
ATOM     11  C   UNL     1      34.164 -20.061 -21.164  0.00  0.00    +0.000 C 
ATOM     12  C   UNL     1      36.819 -19.229 -21.027  0.00  0.00    +0.000 C 
ATOM     13  C   UNL     1      34.683 -19.221 -22.150  0.00  0.00    +0.000 C 
ATOM     14  C   UNL     1      36.009 -18.806 -22.081  0.00  0.00    +0.000 C 
ENDROOT
BRANCH   5  15
ATOM     15  N   UNL     1      35.036 -23.898 -14.979  0.00  0.00    -0.299 N 
ATOM     16  H   UNL     1      34.096 -24.164 -15.097  0.00  0.00    +0.153 HD
BRANCH  15  21
ATOM     17  N   UNL     1      36.639 -25.367 -14.079  0.00  0.00    -0.106 N 
ATOM     18  N   UNL     1      37.079 -25.576 -11.724  0.00  0.00    -0.340 NA
ATOM     19  N   UNL     1      37.087 -25.908 -15.242  0.00  0.00    -0.139 NA
ATOM     20  N   UNL     1      38.199 -26.823 -13.479  0.00  0.00    -0.145 NA
ATOM     21  C   UNL     1      35.652 -24.393 -13.883  0.00  0.00    +0.138 C 
ATOM     22  C   UNL     1      35.376 -24.010 -12.627  0.00  0.00    +0.061 C 
ATOM     23  C   UNL     1      37.336 -25.943 -13.012  0.00  0.00    +0.174 C 
ATOM     24  C   UNL     1      36.163 -24.672 -11.543  0.00  0.00    +0.125 C 
ATOM     25  C   UNL     1      35.863 -24.252 -10.127  0.00  0.00    +0.068 C 
ATOM     26  C   UNL     1      38.011 -26.764 -14.821  0.00  0.00    +0.230 C 
ENDBRANCH  15  21
ENDBRANCH   5  15
TORSDOF 2
ENDMDL
MODEL 8
REMARK VINA RESULT:     -11.3     10.193     14.144
REMARK  Name = 24882195
REMARK  2 active torsions:
REMARK  status: ('A' for Active; 'I' for Inactive)
REMARK    1  A    between atoms: C_5  and  N_15
REMARK    2  A    between atoms: N_15  and  C_21
REMARK                            x       y       z     vdW  Elec       q    Type
REMARK                         _______ _______ _______ _____ _____    ______ ____
ROOT
ATOM      1  C   UNL     1      34.600 -14.373 -23.538  0.00  0.00    +0.001 C 
ATOM      2  C   UNL     1      34.120 -14.947 -24.735  0.00  0.00    +0.000 C 
ATOM      3  C   UNL     1      35.188 -16.601 -22.706  0.00  0.00    +0.000 C 
ATOM      4  C   UNL     1      34.708 -17.175 -23.903  0.00  0.00    +0.000 C 
ATOM      5  C   UNL     1      34.012 -12.164 -24.373  0.00  0.00    +0.049 C 
ATOM      6  C   UNL     1      35.127 -15.208 -22.538  0.00  0.00    +0.000 C 
ATOM      7  C   UNL     1      34.538 -12.980 -23.371  0.00  0.00    +0.015 C 
ATOM      8  C   UNL     1      34.181 -16.341 -24.903  0.00  0.00    +0.000 C 
ATOM      9  C   UNL     1      33.593 -14.112 -25.735  0.00  0.00    +0.001 C 
ATOM     10  C   UNL     1      33.540 -12.729 -25.554  0.00  0.00    +0.015 C 
ATOM     11  C   UNL     1      35.714 -17.436 -21.707  0.00  0.00    +0.000 C 
ATOM     12  C   UNL     1      34.769 -18.569 -24.070  0.00  0.00    +0.000 C 
ATOM     13  C   UNL     1      35.768 -18.818 -21.888  0.00  0.00    +0.000 C 
ATOM     14  C   UNL     1      35.296 -19.383 -23.068  0.00  0.00    +0.000 C 
ENDROOT
BRANCH   5  15
ATOM     15  N   UNL     1      33.958 -10.766 -24.190  0.00  0.00    -0.299 N 
ATOM     16  H   UNL     1      34.395 -10.226 -24.887  0.00  0.00    +0.153 HD
BRANCH  15  21
ATOM     17  N   UNL     1      33.760  -8.728 -23.030  0.00  0.00    -0.106 N 
ATOM     18  N   UNL     1      32.317  -8.410 -21.133  0.00  0.00    -0.340 NA
ATOM     19  N   UNL     1      34.636  -7.995 -23.766  0.00  0.00    -0.139 NA
ATOM     20  N   UNL     1      33.748  -6.712 -22.109  0.00  0.00    -0.145 NA
ATOM     21  C   UNL     1      33.388 -10.070 -23.182  0.00  0.00    +0.138 C 
ATOM     22  C   UNL     1      32.492 -10.583 -22.325  0.00  0.00    +0.061 C 
ATOM     23  C   UNL     1      33.227  -7.920 -22.021  0.00  0.00    +0.174 C 
ATOM     24  C   UNL     1      31.971  -9.656 -21.275  0.00  0.00    +0.125 C 
ATOM     25  C   UNL     1      30.966 -10.219 -20.304  0.00  0.00    +0.068 C 
ATOM     26  C   UNL     1      34.585  -6.808 -23.171  0.00  0.00    +0.230 C 
ENDBRANCH  15  21
ENDBRANCH   5  15
TORSDOF 2
ENDMDL
MODEL 9
REMARK VINA RESULT:     -11.1      1.508      2.825
REMARK  Name = 24882195
REMARK  2 active torsions:
REMARK  status: ('A' for Active; 'I' for Inactive)
REMARK    1  A    between atoms: C_5  and  N_15
REMARK    2  A    between atoms: N_15  and  C_21
REMARK                            x       y       z     vdW  Elec       q    Type
REMARK                         _______ _______ _______ _____ _____    ______ ____
ROOT
ATOM      1  C   UNL     1      36.445 -20.580 -19.229  0.00  0.00    +0.001 C 
ATOM      2  C   UNL     1      35.115 -21.017 -19.411  0.00  0.00    +0.000 C 
ATOM      3  C   UNL     1      36.269 -19.202 -21.247  0.00  0.00    +0.000 C 
ATOM      4  C   UNL     1      34.938 -19.639 -21.430  0.00  0.00    +0.000 C 
ATOM      5  C   UNL     1      36.611 -21.953 -17.226  0.00  0.00    +0.049 C 
ATOM      6  C   UNL     1      37.005 -19.679 -20.150  0.00  0.00    +0.000 C 
ATOM      7  C   UNL     1      37.181 -21.058 -18.132  0.00  0.00    +0.015 C 
ATOM      8  C   UNL     1      34.378 -20.541 -20.509  0.00  0.00    +0.000 C 
ATOM      9  C   UNL     1      34.556 -21.919 -18.490  0.00  0.00    +0.001 C 
ATOM     10  C   UNL     1      35.300 -22.383 -17.405  0.00  0.00    +0.015 C 
ATOM     11  C   UNL     1      36.827 -18.302 -22.169  0.00  0.00    +0.000 C 
ATOM     12  C   UNL     1      34.202 -19.163 -22.527  0.00  0.00    +0.000 C 
ATOM     13  C   UNL     1      36.084 -17.838 -23.253  0.00  0.00    +0.000 C 
ATOM     14  C   UNL     1      34.773 -18.267 -23.432  0.00  0.00    +0.000 C 
ENDROOT
BRANCH   5  15
ATOM     15  N   UNL     1      37.364 -22.421 -16.129  0.00  0.00    -0.299 N 
ATOM     16  H   UNL     1      38.311 -22.155 -16.115  0.00  0.00    +0.153 HD
BRANCH  15  21
ATOM     17  N   UNL     1      37.891 -24.070 -14.534  0.00  0.00    -0.106 N 
ATOM     18  N   UNL     1      36.325 -24.902 -12.911  0.00  0.00    -0.340 NA
ATOM     19  N   UNL     1      39.188 -24.276 -14.885  0.00  0.00    -0.139 NA
ATOM     20  N   UNL     1      38.629 -25.625 -13.138  0.00  0.00    -0.145 NA
ATOM     21  C   UNL     1      36.957 -23.189 -15.094  0.00  0.00    +0.138 C 
ATOM     22  C   UNL     1      35.720 -23.160 -14.575  0.00  0.00    +0.061 C 
ATOM     23  C   UNL     1      37.572 -24.907 -13.461  0.00  0.00    +0.174 C 
ATOM     24  C   UNL     1      35.458 -24.084 -13.431  0.00  0.00    +0.125 C 
ATOM     25  C   UNL     1      34.072 -24.062 -12.838  0.00  0.00    +0.068 C 
ATOM     26  C   UNL     1      39.572 -25.209 -14.020  0.00  0.00    +0.230 C 
ENDBRANCH  15  21
ENDBRANCH   5  15
TORSDOF 2
ENDMDL
