MODEL 1
REMARK VINA RESULT:     -11.3      0.000      0.000
REMARK  Name = 11979006
REMARK  7 active torsions:
REMARK  status: ('A' for Active; 'I' for Inactive)
REMARK    1  A    between atoms: C_1  and  N_2
REMARK    2  A    between atoms: C_1  and  C_22
REMARK    3  A    between atoms: C_3  and  N_9
REMARK    4  A    between atoms: C_4  and  O_18
REMARK    5  A    between atoms: C_10  and  C_14
REMARK    6  A    between atoms: N_21  and  C_25
REMARK    7  A    between atoms: C_28  and  N_32
REMARK                            x       y       z     vdW  Elec       q    Type
REMARK                         _______ _______ _______ _____ _____    ______ ____
ROOT
ATOM      1  C   UNL     1      34.433 -17.077 -24.381  0.00  0.00    +0.010 C 
ENDROOT
BRANCH   1   2
ATOM      2  N   UNL     1      35.263 -17.858 -23.477  0.00  0.00    +0.396 N 
ATOM      3  C   UNL     1      35.509 -19.430 -21.801  0.00  0.00    +0.076 C 
ATOM      4  C   UNL     1      36.113 -18.121 -21.288  0.00  0.00    +0.106 C 
ATOM      5  C   UNL     1      34.543 -18.989 -22.891  0.00  0.00    -0.054 C 
ATOM      6  C   UNL     1      35.748 -17.070 -22.337  0.00  0.00    -0.045 C 
ATOM      7  H   UNL     1      36.035 -18.175 -24.062  0.00  0.00    -0.079 HD
BRANCH   3   9
ATOM      8  O   UNL     1      36.798 -20.997 -19.842  0.00  0.00    -0.270 OA
ATOM      9  N   UNL     1      34.857 -20.180 -20.762  0.00  0.00    -0.302 N 
ATOM     10  C   UNL     1      35.567 -20.935 -19.825  0.00  0.00    +0.252 C 
ATOM     11  H   UNL     1      33.874 -20.161 -20.708  0.00  0.00    +0.150 HD
BRANCH  10  14
ATOM     12 CL   UNL     1      34.032 -23.578 -15.282  0.00  0.00    -0.075 Cl
ATOM     13  S   UNL     1      35.549 -22.179 -17.416  0.00  0.00    -0.071 S 
ATOM     14  C   UNL     1      34.761 -21.620 -18.805  0.00  0.00    +0.084 C 
ATOM     15  C   UNL     1      33.433 -21.868 -18.839  0.00  0.00    +0.012 C 
ATOM     16  C   UNL     1      33.021 -22.557 -17.661  0.00  0.00    +0.019 C 
ATOM     17  C   UNL     1      34.072 -22.789 -16.803  0.00  0.00    +0.087 C 
ENDBRANCH  10  14
ENDBRANCH   3   9
BRANCH   4  18
ATOM     18  O   UNL     1      37.524 -18.264 -21.185  0.00  0.00    -0.385 OA
ATOM     19  H   UNL     1      37.883 -17.542 -20.645  0.00  0.00    +0.210 HD
ENDBRANCH   4  18
ENDBRANCH   1   2
BRANCH   1  22
ATOM     20  O   UNL     1      36.028 -15.268 -24.462  0.00  0.00    -0.277 OA
ATOM     21  N   UNL     1      33.752 -14.800 -24.118  0.00  0.00    -0.284 N 
ATOM     22  C   UNL     1      34.860 -15.620 -24.327  0.00  0.00    +0.205 C 
ATOM     23  H   UNL     1      32.883 -15.257 -24.037  0.00  0.00    +0.155 HD
BRANCH  21  25
ATOM     24  F   UNL     1      32.999 -13.553 -21.754  0.00  0.00    -0.203 F 
ATOM     25  C   UNL     1      33.729 -13.390 -24.008  0.00  0.00    +0.078 C 
ATOM     26  C   UNL     1      33.348 -12.806 -22.812  0.00  0.00    +0.155 C 
ATOM     27  C   UNL     1      34.091 -12.623 -25.104  0.00  0.00    +0.018 C 
ATOM     28  C   UNL     1      33.686 -10.628 -23.801  0.00  0.00    +0.061 C 
ATOM     29  C   UNL     1      33.326 -11.415 -22.707  0.00  0.00    +0.046 C 
ATOM     30  C   UNL     1      34.068 -11.232 -25.000  0.00  0.00    +0.017 C 
BRANCH  28  32
ATOM     31  O   UNL     1      36.005  -8.904 -23.930  0.00  0.00    -0.269 OA
ATOM     32  N   UNL     1      33.663  -9.182 -23.692  0.00  0.00    -0.233 N 
ATOM     33  C   UNL     1      34.870  -8.445 -23.812  0.00  0.00    +0.257 C 
ATOM     34  C   UNL     1      32.464  -8.510 -23.447  0.00  0.00    +0.072 C 
ATOM     35  C   UNL     1      34.749  -6.956 -23.735  0.00  0.00    +0.059 C 
ATOM     36  C   UNL     1      32.388  -7.179 -23.349  0.00  0.00    +0.017 C 
ATOM     37  C   UNL     1      33.567  -6.380 -23.505  0.00  0.00    +0.006 C 
ENDBRANCH  28  32
ENDBRANCH  21  25
ENDBRANCH   1  22
TORSDOF 7
ENDMDL
MODEL 2
REMARK VINA RESULT:     -11.2      0.833      1.180
REMARK  Name = 11979006
REMARK  7 active torsions:
REMARK  status: ('A' for Active; 'I' for Inactive)
REMARK    1  A    between atoms: C_1  and  N_2
REMARK    2  A    between atoms: C_1  and  C_22
REMARK    3  A    between atoms: C_3  and  N_9
REMARK    4  A    between atoms: C_4  and  O_18
REMARK    5  A    between atoms: C_10  and  C_14
REMARK    6  A    between atoms: N_21  and  C_25
REMARK    7  A    between atoms: C_28  and  N_32
REMARK                            x       y       z     vdW  Elec       q    Type
REMARK                         _______ _______ _______ _____ _____    ______ ____
ROOT
ATOM      1  C   UNL     1      34.427 -17.043 -24.363  0.00  0.00    +0.010 C 
ENDROOT
BRANCH   1   2
ATOM      2  N   UNL     1      35.255 -17.838 -23.468  0.00  0.00    +0.396 N 
ATOM      3  C   UNL     1      35.494 -19.423 -21.802  0.00  0.00    +0.076 C 
ATOM      4  C   UNL     1      36.116 -18.123 -21.286  0.00  0.00    +0.106 C 
ATOM      5  C   UNL     1      34.526 -18.964 -22.884  0.00  0.00    -0.054 C 
ATOM      6  C   UNL     1      35.755 -17.062 -22.327  0.00  0.00    -0.045 C 
ATOM      7  H   UNL     1      36.020 -18.160 -24.060  0.00  0.00    -0.079 HD
BRANCH   3   9
ATOM      8  O   UNL     1      36.779 -21.005 -19.855  0.00  0.00    -0.270 OA
ATOM      9  N   UNL     1      34.841 -20.171 -20.764  0.00  0.00    -0.302 N 
ATOM     10  C   UNL     1      35.550 -20.934 -19.832  0.00  0.00    +0.252 C 
ATOM     11  H   UNL     1      33.859 -20.146 -20.706  0.00  0.00    +0.150 HD
BRANCH  10  14
ATOM     12 CL   UNL     1      34.012 -23.583 -15.293  0.00  0.00    -0.075 Cl
ATOM     13  S   UNL     1      35.532 -22.188 -17.428  0.00  0.00    -0.071 S 
ATOM     14  C   UNL     1      34.742 -21.618 -18.811  0.00  0.00    +0.084 C 
ATOM     15  C   UNL     1      33.412 -21.855 -18.841  0.00  0.00    +0.012 C 
ATOM     16  C   UNL     1      32.999 -22.546 -17.664  0.00  0.00    +0.019 C 
ATOM     17  C   UNL     1      34.053 -22.788 -16.811  0.00  0.00    +0.087 C 
ENDBRANCH  10  14
ENDBRANCH   3   9
BRANCH   4  18
ATOM     18  O   UNL     1      37.526 -18.281 -21.193  0.00  0.00    -0.385 OA
ATOM     19  H   UNL     1      37.914 -18.247 -22.081  0.00  0.00    +0.210 HD
ENDBRANCH   4  18
ENDBRANCH   1   2
BRANCH   1  22
ATOM     20  O   UNL     1      36.035 -15.244 -24.367  0.00  0.00    -0.277 OA
ATOM     21  N   UNL     1      33.748 -14.762 -24.141  0.00  0.00    -0.284 N 
ATOM     22  C   UNL     1      34.860 -15.589 -24.291  0.00  0.00    +0.205 C 
ATOM     23  H   UNL     1      32.873 -15.213 -24.102  0.00  0.00    +0.155 HD
BRANCH  21  25
ATOM     24  F   UNL     1      34.101 -13.149 -26.373  0.00  0.00    -0.203 F 
ATOM     25  C   UNL     1      33.728 -13.350 -24.036  0.00  0.00    +0.078 C 
ATOM     26  C   UNL     1      33.908 -12.581 -25.174  0.00  0.00    +0.155 C 
ATOM     27  C   UNL     1      33.529 -12.769 -22.795  0.00  0.00    +0.018 C 
ATOM     28  C   UNL     1      33.689 -10.589 -23.825  0.00  0.00    +0.061 C 
ATOM     29  C   UNL     1      33.888 -11.191 -25.067  0.00  0.00    +0.046 C 
ATOM     30  C   UNL     1      33.510 -11.379 -22.688  0.00  0.00    +0.017 C 
BRANCH  28  32
ATOM     31  O   UNL     1      36.013  -8.872 -23.947  0.00  0.00    -0.269 OA
ATOM     32  N   UNL     1      33.669  -9.143 -23.714  0.00  0.00    -0.233 N 
ATOM     33  C   UNL     1      34.879  -8.409 -23.831  0.00  0.00    +0.257 C 
ATOM     34  C   UNL     1      32.472  -8.468 -23.472  0.00  0.00    +0.072 C 
ATOM     35  C   UNL     1      34.762  -6.920 -23.752  0.00  0.00    +0.059 C 
ATOM     36  C   UNL     1      32.399  -7.137 -23.373  0.00  0.00    +0.017 C 
ATOM     37  C   UNL     1      33.581  -6.341 -23.526  0.00  0.00    +0.006 C 
ENDBRANCH  28  32
ENDBRANCH  21  25
ENDBRANCH   1  22
TORSDOF 7
ENDMDL
MODEL 3
REMARK VINA RESULT:     -11.1      4.464     11.221
REMARK  Name = 11979006
REMARK  7 active torsions:
REMARK  status: ('A' for Active; 'I' for Inactive)
REMARK    1  A    between atoms: C_1  and  N_2
REMARK    2  A    between atoms: C_1  and  C_22
REMARK    3  A    between atoms: C_3  and  N_9
REMARK    4  A    between atoms: C_4  and  O_18
REMARK    5  A    between atoms: C_10  and  C_14
REMARK    6  A    between atoms: N_21  and  C_25
REMARK    7  A    between atoms: C_28  and  N_32
REMARK                            x       y       z     vdW  Elec       q    Type
REMARK                         _______ _______ _______ _____ _____    ______ ____
ROOT
ATOM      1  C   UNL     1      36.758 -18.450 -22.773  0.00  0.00    +0.010 C 
ENDROOT
BRANCH   1   2
ATOM      2  N   UNL     1      36.070 -17.409 -23.522  0.00  0.00    +0.396 N 
ATOM      3  C   UNL     1      34.953 -15.387 -23.622  0.00  0.00    +0.076 C 
ATOM      4  C   UNL     1      34.005 -16.458 -24.165  0.00  0.00    +0.106 C 
ATOM      5  C   UNL     1      35.935 -16.167 -22.759  0.00  0.00    -0.054 C 
ATOM      6  C   UNL     1      34.702 -17.792 -23.891  0.00  0.00    -0.045 C 
ATOM      7  H   UNL     1      36.652 -17.273 -24.348  0.00  0.00    -0.079 HD
BRANCH   3   9
ATOM      8  O   UNL     1      33.803 -13.055 -24.712  0.00  0.00    -0.270 OA
ATOM      9  N   UNL     1      34.265 -14.366 -22.882  0.00  0.00    -0.302 N 
ATOM     10  C   UNL     1      33.720 -13.235 -23.496  0.00  0.00    +0.252 C 
ATOM     11  H   UNL     1      34.173 -14.466 -21.907  0.00  0.00    +0.150 HD
BRANCH  10  14
ATOM     12 CL   UNL     1      31.695  -8.652 -21.285  0.00  0.00    -0.075 Cl
ATOM     13  S   UNL     1      33.074 -10.649 -22.996  0.00  0.00    -0.071 S 
ATOM     14  C   UNL     1      33.017 -12.296 -22.609  0.00  0.00    +0.084 C 
ATOM     15  C   UNL     1      32.314 -12.591 -21.494  0.00  0.00    +0.012 C 
ATOM     16  C   UNL     1      31.782 -11.405 -20.908  0.00  0.00    +0.019 C 
ATOM     17  C   UNL     1      32.120 -10.278 -21.624  0.00  0.00    +0.087 C 
ENDBRANCH  10  14
ENDBRANCH   3   9
BRANCH   4  18
ATOM     18  O   UNL     1      33.823 -16.260 -25.561  0.00  0.00    -0.385 OA
ATOM     19  H   UNL     1      33.977 -17.096 -26.029  0.00  0.00    +0.210 HD
ENDBRANCH   4  18
ENDBRANCH   1   2
BRANCH   1  22
ATOM     20  O   UNL     1      35.714 -17.791 -20.700  0.00  0.00    -0.277 OA
ATOM     21  N   UNL     1      35.780 -20.060 -21.302  0.00  0.00    -0.284 N 
ATOM     22  C   UNL     1      36.026 -18.698 -21.466  0.00  0.00    +0.205 C 
ATOM     23  H   UNL     1      36.099 -20.649 -22.023  0.00  0.00    +0.155 HD
BRANCH  21  25
ATOM     24  F   UNL     1      33.015 -19.989 -21.053  0.00  0.00    -0.203 F 
ATOM     25  C   UNL     1      35.124 -20.695 -20.220  0.00  0.00    +0.078 C 
ATOM     26  C   UNL     1      33.743 -20.637 -20.132  0.00  0.00    +0.155 C 
ATOM     27  C   UNL     1      35.881 -21.363 -19.272  0.00  0.00    +0.018 C 
ATOM     28  C   UNL     1      33.848 -21.941 -18.101  0.00  0.00    +0.061 C 
ATOM     29  C   UNL     1      33.100 -21.265 -19.065  0.00  0.00    +0.046 C 
ATOM     30  C   UNL     1      35.238 -21.990 -18.204  0.00  0.00    +0.017 C 
BRANCH  28  32
ATOM     31  O   UNL     1      35.140 -23.582 -16.100  0.00  0.00    -0.269 OA
ATOM     32  N   UNL     1      33.179 -22.592 -16.992  0.00  0.00    -0.233 N 
ATOM     33  C   UNL     1      33.935 -23.341 -16.051  0.00  0.00    +0.257 C 
ATOM     34  C   UNL     1      31.792 -22.508 -16.852  0.00  0.00    +0.072 C 
ATOM     35  C   UNL     1      33.173 -23.940 -14.912  0.00  0.00    +0.059 C 
ATOM     36  C   UNL     1      31.131 -23.081 -15.842  0.00  0.00    +0.017 C 
ATOM     37  C   UNL     1      31.847 -23.812 -14.839  0.00  0.00    +0.006 C 
ENDBRANCH  28  32
ENDBRANCH  21  25
ENDBRANCH   1  22
TORSDOF 7
ENDMDL
MODEL 4
REMARK VINA RESULT:     -10.8      4.629     11.322
REMARK  Name = 11979006
REMARK  7 active torsions:
REMARK  status: ('A' for Active; 'I' for Inactive)
REMARK    1  A    between atoms: C_1  and  N_2
REMARK    2  A    between atoms: C_1  and  C_22
REMARK    3  A    between atoms: C_3  and  N_9
REMARK    4  A    between atoms: C_4  and  O_18
REMARK    5  A    between atoms: C_10  and  C_14
REMARK    6  A    between atoms: N_21  and  C_25
REMARK    7  A    between atoms: C_28  and  N_32
REMARK                            x       y       z     vdW  Elec       q    Type
REMARK                         _______ _______ _______ _____ _____    ______ ____
ROOT
ATOM      1  C   UNL     1      36.610 -18.676 -22.702  0.00  0.00    +0.010 C 
ENDROOT
BRANCH   1   2
ATOM      2  N   UNL     1      36.020 -17.565 -23.434  0.00  0.00    +0.396 N 
ATOM      3  C   UNL     1      35.010 -15.487 -23.493  0.00  0.00    +0.076 C 
ATOM      4  C   UNL     1      34.047 -16.479 -24.147  0.00  0.00    +0.106 C 
ATOM      5  C   UNL     1      35.898 -16.358 -22.616  0.00  0.00    -0.054 C 
ATOM      6  C   UNL     1      34.661 -17.859 -23.903  0.00  0.00    -0.045 C 
ATOM      7  H   UNL     1      36.658 -17.418 -24.215  0.00  0.00    -0.079 HD
BRANCH   3   9
ATOM      8  O   UNL     1      33.677 -13.252 -24.580  0.00  0.00    -0.270 OA
ATOM      9  N   UNL     1      34.327 -14.470 -22.742  0.00  0.00    -0.302 N 
ATOM     10  C   UNL     1      33.687 -13.389 -23.356  0.00  0.00    +0.252 C 
ATOM     11  H   UNL     1      34.308 -14.536 -21.761  0.00  0.00    +0.150 HD
BRANCH  10  14
ATOM     12 CL   UNL     1      31.701  -8.805 -21.113  0.00  0.00    -0.075 Cl
ATOM     13  S   UNL     1      33.043 -10.804 -22.850  0.00  0.00    -0.071 S 
ATOM     14  C   UNL     1      33.004 -12.448 -22.455  0.00  0.00    +0.084 C 
ATOM     15  C   UNL     1      32.333 -12.741 -21.319  0.00  0.00    +0.012 C 
ATOM     16  C   UNL     1      31.811 -11.555 -20.725  0.00  0.00    +0.019 C 
ATOM     17  C   UNL     1      32.124 -10.431 -21.456  0.00  0.00    +0.087 C 
ENDBRANCH  10  14
ENDBRANCH   3   9
BRANCH   4  18
ATOM     18  O   UNL     1      33.961 -16.203 -25.539  0.00  0.00    -0.385 OA
ATOM     19  H   UNL     1      33.934 -17.038 -26.033  0.00  0.00    +0.210 HD
ENDBRANCH   4  18
ENDBRANCH   1   2
BRANCH   1  22
ATOM     20  O   UNL     1      35.338 -17.982 -20.772  0.00  0.00    -0.277 OA
ATOM     21  N   UNL     1      35.777 -20.263 -21.120  0.00  0.00    -0.284 N 
ATOM     22  C   UNL     1      35.833 -18.902 -21.417  0.00  0.00    +0.205 C 
ATOM     23  H   UNL     1      36.230 -20.864 -21.755  0.00  0.00    +0.155 HD
BRANCH  21  25
ATOM     24  F   UNL     1      37.262 -21.499 -19.126  0.00  0.00    -0.203 F 
ATOM     25  C   UNL     1      35.148 -20.881 -20.013  0.00  0.00    +0.078 C 
ATOM     26  C   UNL     1      35.924 -21.487 -19.039  0.00  0.00    +0.155 C 
ATOM     27  C   UNL     1      33.765 -20.866 -19.929  0.00  0.00    +0.018 C 
ATOM     28  C   UNL     1      33.908 -22.090 -17.851  0.00  0.00    +0.061 C 
ATOM     29  C   UNL     1      35.300 -22.095 -17.950  0.00  0.00    +0.046 C 
ATOM     30  C   UNL     1      33.141 -21.475 -18.841  0.00  0.00    +0.017 C 
BRANCH  28  32
ATOM     31  O   UNL     1      31.073 -22.011 -17.288  0.00  0.00    -0.269 OA
ATOM     32  N   UNL     1      33.261 -22.723 -16.719  0.00  0.00    -0.233 N 
ATOM     33  C   UNL     1      31.851 -22.644 -16.576  0.00  0.00    +0.257 C 
ATOM     34  C   UNL     1      34.016 -23.393 -15.754  0.00  0.00    +0.072 C 
ATOM     35  C   UNL     1      31.259 -23.365 -15.407  0.00  0.00    +0.059 C 
ATOM     36  C   UNL     1      33.466 -24.002 -14.699  0.00  0.00    +0.017 C 
ATOM     37  C   UNL     1      32.043 -23.992 -14.527  0.00  0.00    +0.006 C 
ENDBRANCH  28  32
ENDBRANCH  21  25
ENDBRANCH   1  22
TORSDOF 7
ENDMDL
MODEL 5
REMARK VINA RESULT:     -10.6      4.791     11.633
REMARK  Name = 11979006
REMARK  7 active torsions:
REMARK  status: ('A' for Active; 'I' for Inactive)
REMARK    1  A    between atoms: C_1  and  N_2
REMARK    2  A    between atoms: C_1  and  C_22
REMARK    3  A    between atoms: C_3  and  N_9
REMARK    4  A    between atoms: C_4  and  O_18
REMARK    5  A    between atoms: C_10  and  C_14
REMARK    6  A    between atoms: N_21  and  C_25
REMARK    7  A    between atoms: C_28  and  N_32
REMARK                            x       y       z     vdW  Elec       q    Type
REMARK                         _______ _______ _______ _____ _____    ______ ____
ROOT
ATOM      1  C   UNL     1      35.332 -17.359 -23.940  0.00  0.00    +0.010 C 
ENDROOT
BRANCH   1   2
ATOM      2  N   UNL     1      34.618 -16.197 -23.433  0.00  0.00    +0.396 N 
ATOM      3  C   UNL     1      34.172 -13.929 -23.445  0.00  0.00    +0.076 C 
ATOM      4  C   UNL     1      34.663 -14.288 -22.041  0.00  0.00    +0.106 C 
ATOM      5  C   UNL     1      34.724 -15.042 -24.325  0.00  0.00    -0.054 C 
ATOM      6  C   UNL     1      35.135 -15.740 -22.138  0.00  0.00    -0.045 C 
ATOM      7  H   UNL     1      33.653 -16.515 -23.354  0.00  0.00    -0.079 HD
BRANCH   3   9
ATOM      8  O   UNL     1      32.956 -11.477 -22.767  0.00  0.00    -0.270 OA
ATOM      9  N   UNL     1      34.614 -12.628 -23.867  0.00  0.00    -0.302 N 
ATOM     10  C   UNL     1      33.955 -11.455 -23.487  0.00  0.00    +0.252 C 
ATOM     11  H   UNL     1      35.408 -12.560 -24.444  0.00  0.00    +0.150 HD
BRANCH  10  14
ATOM     12 CL   UNL     1      35.067  -6.145 -24.229  0.00  0.00    -0.075 Cl
ATOM     13  S   UNL     1      33.956  -8.748 -23.332  0.00  0.00    -0.071 S 
ATOM     14  C   UNL     1      34.546 -10.199 -23.972  0.00  0.00    +0.084 C 
ATOM     15  C   UNL     1      35.527 -10.054 -24.891  0.00  0.00    +0.012 C 
ATOM     16  C   UNL     1      35.825  -8.676 -25.094  0.00  0.00    +0.019 C 
ATOM     17  C   UNL     1      35.044  -7.857 -24.308  0.00  0.00    +0.087 C 
ENDBRANCH  10  14
ENDBRANCH   3   9
BRANCH   4  18
ATOM     18  O   UNL     1      33.585 -14.167 -21.122  0.00  0.00    -0.385 OA
ATOM     19  H   UNL     1      33.386 -13.229 -20.979  0.00  0.00    +0.210 HD
ENDBRANCH   4  18
ENDBRANCH   1   2
BRANCH   1  22
ATOM     20  O   UNL     1      36.996 -18.303 -22.469  0.00  0.00    -0.277 OA
ATOM     21  N   UNL     1      34.727 -18.811 -22.139  0.00  0.00    -0.284 N 
ATOM     22  C   UNL     1      35.811 -18.205 -22.773  0.00  0.00    +0.205 C 
ATOM     23  H   UNL     1      33.839 -18.617 -22.518  0.00  0.00    +0.155 HD
BRANCH  21  25
ATOM     24  F   UNL     1      32.383 -19.818 -21.044  0.00  0.00    -0.203 F 
ATOM     25  C   UNL     1      34.753 -19.672 -21.016  0.00  0.00    +0.078 C 
ATOM     26  C   UNL     1      33.562 -20.153 -20.500  0.00  0.00    +0.155 C 
ATOM     27  C   UNL     1      35.974 -20.014 -20.457  0.00  0.00    +0.018 C 
ATOM     28  C   UNL     1      34.812 -21.355 -18.817  0.00  0.00    +0.061 C 
ATOM     29  C   UNL     1      33.591 -21.001 -19.393  0.00  0.00    +0.046 C 
ATOM     30  C   UNL     1      36.003 -20.861 -19.350  0.00  0.00    +0.017 C 
BRANCH  28  32
ATOM     31  O   UNL     1      37.085 -21.751 -17.074  0.00  0.00    -0.269 OA
ATOM     32  N   UNL     1      34.841 -22.236 -17.666  0.00  0.00    -0.233 N 
ATOM     33  C   UNL     1      36.010 -22.312 -16.864  0.00  0.00    +0.257 C 
ATOM     34  C   UNL     1      33.735 -23.028 -17.352  0.00  0.00    +0.072 C 
ATOM     35  C   UNL     1      35.939 -23.209 -15.669  0.00  0.00    +0.059 C 
ATOM     36  C   UNL     1      33.709 -23.847 -16.296  0.00  0.00    +0.017 C 
ATOM     37  C   UNL     1      34.845 -23.933 -15.426  0.00  0.00    +0.006 C 
ENDBRANCH  28  32
ENDBRANCH  21  25
ENDBRANCH   1  22
TORSDOF 7
ENDMDL
MODEL 6
REMARK VINA RESULT:     -10.5      3.523      5.922
REMARK  Name = 11979006
REMARK  7 active torsions:
REMARK  status: ('A' for Active; 'I' for Inactive)
REMARK    1  A    between atoms: C_1  and  N_2
REMARK    2  A    between atoms: C_1  and  C_22
REMARK    3  A    between atoms: C_3  and  N_9
REMARK    4  A    between atoms: C_4  and  O_18
REMARK    5  A    between atoms: C_10  and  C_14
REMARK    6  A    between atoms: N_21  and  C_25
REMARK    7  A    between atoms: C_28  and  N_32
REMARK                            x       y       z     vdW  Elec       q    Type
REMARK                         _______ _______ _______ _____ _____    ______ ____
ROOT
ATOM      1  C   UNL     1      35.825 -20.893 -20.362  0.00  0.00    +0.010 C 
ENDROOT
BRANCH   1   2
ATOM      2  N   UNL     1      35.422 -21.179 -18.994  0.00  0.00    +0.396 N 
ATOM      3  C   UNL     1      35.859 -22.024 -16.887  0.00  0.00    +0.076 C 
ATOM      4  C   UNL     1      34.656 -22.789 -17.443  0.00  0.00    +0.106 C 
ATOM      5  C   UNL     1      36.560 -21.487 -18.127  0.00  0.00    -0.054 C 
ATOM      6  C   UNL     1      34.533 -22.343 -18.901  0.00  0.00    -0.045 C 
ATOM      7  H   UNL     1      34.949 -20.328 -18.693  0.00  0.00    -0.079 HD
BRANCH   3   9
ATOM      8  O   UNL     1      35.287 -22.974 -14.295  0.00  0.00    -0.270 OA
ATOM      9  N   UNL     1      36.718 -22.855 -16.089  0.00  0.00    -0.302 N 
ATOM     10  C   UNL     1      36.362 -23.286 -14.808  0.00  0.00    +0.252 C 
ATOM     11  H   UNL     1      37.589 -23.129 -16.456  0.00  0.00    +0.150 HD
BRANCH  10  14
ATOM     12 CL   UNL     1      40.816 -26.264 -13.672  0.00  0.00    -0.075 Cl
ATOM     13  S   UNL     1      38.775 -24.517 -14.938  0.00  0.00    -0.071 S 
ATOM     14  C   UNL     1      37.333 -24.157 -14.129  0.00  0.00    +0.084 C 
ATOM     15  C   UNL     1      37.214 -24.722 -12.907  0.00  0.00    +0.012 C 
ATOM     16  C   UNL     1      38.367 -25.501 -12.600  0.00  0.00    +0.019 C 
ATOM     17  C   UNL     1      39.294 -25.476 -13.617  0.00  0.00    +0.087 C 
ENDBRANCH  10  14
ENDBRANCH   3   9
BRANCH   4  18
ATOM     18  O   UNL     1      33.492 -22.434 -16.707  0.00  0.00    -0.385 OA
ATOM     19  H   UNL     1      33.732 -22.277 -15.780  0.00  0.00    +0.210 HD
ENDBRANCH   4  18
ENDBRANCH   1   2
BRANCH   1  22
ATOM     20  O   UNL     1      33.798 -19.635 -20.721  0.00  0.00    -0.277 OA
ATOM     21  N   UNL     1      35.833 -18.833 -21.574  0.00  0.00    -0.284 N 
ATOM     22  C   UNL     1      35.009 -19.729 -20.896  0.00  0.00    +0.205 C 
ATOM     23  H   UNL     1      36.789 -19.067 -21.614  0.00  0.00    +0.155 HD
BRANCH  21  25
ATOM     24  F   UNL     1      35.250 -18.763 -24.288  0.00  0.00    -0.203 F 
ATOM     25  C   UNL     1      35.458 -17.627 -22.213  0.00  0.00    +0.078 C 
ATOM     26  C   UNL     1      35.175 -17.634 -23.568  0.00  0.00    +0.155 C 
ATOM     27  C   UNL     1      35.383 -16.463 -21.465  0.00  0.00    +0.018 C 
ATOM     28  C   UNL     1      34.726 -15.262 -23.457  0.00  0.00    +0.061 C 
ATOM     29  C   UNL     1      34.806 -16.443 -24.195  0.00  0.00    +0.046 C 
ATOM     30  C   UNL     1      35.015 -15.273 -22.091  0.00  0.00    +0.017 C 
BRANCH  28  32
ATOM     31  O   UNL     1      33.521 -15.057 -26.078  0.00  0.00    -0.269 OA
ATOM     32  N   UNL     1      34.343 -14.025 -24.108  0.00  0.00    -0.233 N 
ATOM     33  C   UNL     1      33.721 -14.061 -25.384  0.00  0.00    +0.257 C 
ATOM     34  C   UNL     1      34.601 -12.795 -23.500  0.00  0.00    +0.072 C 
ATOM     35  C   UNL     1      33.316 -12.743 -25.963  0.00  0.00    +0.059 C 
ATOM     36  C   UNL     1      34.258 -11.628 -24.055  0.00  0.00    +0.017 C 
ATOM     37  C   UNL     1      33.589 -11.605 -25.321  0.00  0.00    +0.006 C 
ENDBRANCH  28  32
ENDBRANCH  21  25
ENDBRANCH   1  22
TORSDOF 7
ENDMDL
MODEL 7
REMARK VINA RESULT:     -10.5      5.066     12.853
REMARK  Name = 11979006
REMARK  7 active torsions:
REMARK  status: ('A' for Active; 'I' for Inactive)
REMARK    1  A    between atoms: C_1  and  N_2
REMARK    2  A    between atoms: C_1  and  C_22
REMARK    3  A    between atoms: C_3  and  N_9
REMARK    4  A    between atoms: C_4  and  O_18
REMARK    5  A    between atoms: C_10  and  C_14
REMARK    6  A    between atoms: N_21  and  C_25
REMARK    7  A    between atoms: C_28  and  N_32
REMARK                            x       y       z     vdW  Elec       q    Type
REMARK                         _______ _______ _______ _____ _____    ______ ____
ROOT
ATOM      1  C   UNL     1      34.426 -20.362 -20.462  0.00  0.00    +0.010 C 
ENDROOT
BRANCH   1   2
ATOM      2  N   UNL     1      35.343 -19.291 -20.822  0.00  0.00    +0.396 N 
ATOM      3  C   UNL     1      35.791 -17.259 -21.830  0.00  0.00    +0.076 C 
ATOM      4  C   UNL     1      36.689 -18.305 -22.495  0.00  0.00    +0.106 C 
ATOM      5  C   UNL     1      34.647 -18.075 -21.243  0.00  0.00    -0.054 C 
ATOM      6  C   UNL     1      36.216 -19.652 -21.946  0.00  0.00    -0.045 C 
ATOM      7  H   UNL     1      35.883 -19.132 -19.971  0.00  0.00    -0.079 HD
BRANCH   3   9
ATOM      8  O   UNL     1      34.852 -14.691 -21.143  0.00  0.00    -0.270 OA
ATOM      9  N   UNL     1      35.332 -16.258 -22.753  0.00  0.00    -0.302 N 
ATOM     10  C   UNL     1      34.881 -15.004 -22.334  0.00  0.00    +0.252 C 
ATOM     11  H   UNL     1      35.336 -16.463 -23.716  0.00  0.00    +0.150 HD
BRANCH  10  14
ATOM     12 CL   UNL     1      33.092 -12.968 -27.093  0.00  0.00    -0.075 Cl
ATOM     13  S   UNL     1      33.941 -14.737 -24.863  0.00  0.00    -0.071 S 
ATOM     14  C   UNL     1      34.475 -14.076 -23.400  0.00  0.00    +0.084 C 
ATOM     15  C   UNL     1      34.476 -12.726 -23.356  0.00  0.00    +0.012 C 
ATOM     16  C   UNL     1      34.013 -12.183 -24.590  0.00  0.00    +0.019 C 
ATOM     17  C   UNL     1      33.687 -13.167 -25.497  0.00  0.00    +0.087 C 
ENDBRANCH  10  14
ENDBRANCH   3   9
BRANCH   4  18
ATOM     18  O   UNL     1      38.042 -18.059 -22.137  0.00  0.00    -0.385 OA
ATOM     19  H   UNL     1      38.151 -18.187 -21.182  0.00  0.00    +0.210 HD
ENDBRANCH   4  18
ENDBRANCH   1   2
BRANCH   1  22
ATOM     20  O   UNL     1      35.958 -22.199 -20.148  0.00  0.00    -0.277 OA
ATOM     21  N   UNL     1      34.813 -21.309 -18.302  0.00  0.00    -0.284 N 
ATOM     22  C   UNL     1      35.166 -21.408 -19.646  0.00  0.00    +0.205 C 
ATOM     23  H   UNL     1      34.161 -20.607 -18.075  0.00  0.00    +0.155 HD
BRANCH  21  25
ATOM     24  F   UNL     1      33.110 -23.013 -16.921  0.00  0.00    -0.203 F 
ATOM     25  C   UNL     1      35.281 -22.099 -17.225  0.00  0.00    +0.078 C 
ATOM     26  C   UNL     1      34.400 -22.936 -16.562  0.00  0.00    +0.155 C 
ATOM     27  C   UNL     1      36.614 -22.016 -16.858  0.00  0.00    +0.018 C 
ATOM     28  C   UNL     1      36.204 -23.642 -15.118  0.00  0.00    +0.061 C 
ATOM     29  C   UNL     1      34.865 -23.714 -15.501  0.00  0.00    +0.046 C 
ATOM     30  C   UNL     1      37.079 -22.792 -15.796  0.00  0.00    +0.017 C 
BRANCH  28  32
ATOM     31  O   UNL     1      37.066 -26.395 -15.313  0.00  0.00    -0.269 OA
ATOM     32  N   UNL     1      36.687 -24.449 -14.014  0.00  0.00    -0.233 N 
ATOM     33  C   UNL     1      37.119 -25.780 -14.248  0.00  0.00    +0.257 C 
ATOM     34  C   UNL     1      36.708 -23.934 -12.716  0.00  0.00    +0.072 C 
ATOM     35  C   UNL     1      37.645 -26.526 -13.064  0.00  0.00    +0.059 C 
ATOM     36  C   UNL     1      37.154 -24.633 -11.668  0.00  0.00    +0.017 C 
ATOM     37  C   UNL     1      37.643 -25.968 -11.852  0.00  0.00    +0.006 C 
ENDBRANCH  28  32
ENDBRANCH  21  25
ENDBRANCH   1  22
TORSDOF 7
ENDMDL
MODEL 8
REMARK VINA RESULT:     -10.5      5.285      8.595
REMARK  Name = 11979006
REMARK  7 active torsions:
REMARK  status: ('A' for Active; 'I' for Inactive)
REMARK    1  A    between atoms: C_1  and  N_2
REMARK    2  A    between atoms: C_1  and  C_22
REMARK    3  A    between atoms: C_3  and  N_9
REMARK    4  A    between atoms: C_4  and  O_18
REMARK    5  A    between atoms: C_10  and  C_14
REMARK    6  A    between atoms: N_21  and  C_25
REMARK    7  A    between atoms: C_28  and  N_32
REMARK                            x       y       z     vdW  Elec       q    Type
REMARK                         _______ _______ _______ _____ _____    ______ ____
ROOT
ATOM      1  C   UNL     1      37.922 -22.243 -15.988  0.00  0.00    +0.010 C 
ENDROOT
BRANCH   1   2
ATOM      2  N   UNL     1      36.861 -23.237 -16.059  0.00  0.00    +0.396 N 
ATOM      3  C   UNL     1      34.637 -23.841 -15.889  0.00  0.00    +0.076 C 
ATOM      4  C   UNL     1      35.417 -24.690 -14.883  0.00  0.00    +0.106 C 
ATOM      5  C   UNL     1      35.531 -22.631 -16.122  0.00  0.00    -0.054 C 
ATOM      6  C   UNL     1      36.836 -24.117 -14.885  0.00  0.00    -0.045 C 
ATOM      7  H   UNL     1      37.070 -23.759 -16.909  0.00  0.00    -0.079 HD
BRANCH   3   9
ATOM      8  O   UNL     1      32.417 -23.167 -17.491  0.00  0.00    -0.270 OA
ATOM      9  N   UNL     1      33.334 -23.474 -15.406  0.00  0.00    -0.302 N 
ATOM     10  C   UNL     1      32.280 -23.153 -16.266  0.00  0.00    +0.252 C 
ATOM     11  H   UNL     1      33.177 -23.448 -14.435  0.00  0.00    +0.150 HD
BRANCH  10  14
ATOM     12 CL   UNL     1      26.965 -22.153 -15.411  0.00  0.00    -0.075 Cl
ATOM     13  S   UNL     1      29.613 -22.792 -16.592  0.00  0.00    -0.071 S 
ATOM     14  C   UNL     1      30.999 -22.829 -15.623  0.00  0.00    +0.084 C 
ATOM     15  C   UNL     1      30.784 -22.549 -14.318  0.00  0.00    +0.012 C 
ATOM     16  C   UNL     1      29.403 -22.286 -14.083  0.00  0.00    +0.019 C 
ATOM     17  C   UNL     1      28.654 -22.385 -15.234  0.00  0.00    +0.087 C 
ENDBRANCH  10  14
ENDBRANCH   3   9
BRANCH   4  18
ATOM     18  O   UNL     1      35.418 -26.045 -15.312  0.00  0.00    -0.385 OA
ATOM     19  H   UNL     1      34.699 -26.183 -15.948  0.00  0.00    +0.210 HD
ENDBRANCH   4  18
ENDBRANCH   1   2
BRANCH   1  22
ATOM     20  O   UNL     1      37.763 -19.904 -16.557  0.00  0.00    -0.277 OA
ATOM     21  N   UNL     1      37.049 -21.528 -18.095  0.00  0.00    -0.284 N 
ATOM     22  C   UNL     1      37.577 -21.071 -16.889  0.00  0.00    +0.205 C 
ATOM     23  H   UNL     1      36.975 -22.506 -18.193  0.00  0.00    +0.155 HD
BRANCH  21  25
ATOM     24  F   UNL     1      34.424 -21.665 -18.988  0.00  0.00    -0.203 F 
ATOM     25  C   UNL     1      36.608 -20.754 -19.195  0.00  0.00    +0.078 C 
ATOM     26  C   UNL     1      35.290 -20.851 -19.609  0.00  0.00    +0.155 C 
ATOM     27  C   UNL     1      37.506 -19.916 -19.833  0.00  0.00    +0.018 C 
ATOM     28  C   UNL     1      35.750 -19.237 -21.348  0.00  0.00    +0.061 C 
ATOM     29  C   UNL     1      34.858 -20.087 -20.693  0.00  0.00    +0.046 C 
ATOM     30  C   UNL     1      37.075 -19.152 -20.917  0.00  0.00    +0.017 C 
BRANCH  28  32
ATOM     31  O   UNL     1      35.538 -16.353 -21.383  0.00  0.00    -0.269 OA
ATOM     32  N   UNL     1      35.301 -18.444 -22.475  0.00  0.00    -0.233 N 
ATOM     33  C   UNL     1      35.280 -17.028 -22.379  0.00  0.00    +0.257 C 
ATOM     34  C   UNL     1      34.867 -19.064 -23.649  0.00  0.00    +0.072 C 
ATOM     35  C   UNL     1      34.848 -16.285 -23.604  0.00  0.00    +0.059 C 
ATOM     36  C   UNL     1      34.454 -18.377 -24.719  0.00  0.00    +0.017 C 
ATOM     37  C   UNL     1      34.453 -16.944 -24.695  0.00  0.00    +0.006 C 
ENDBRANCH  28  32
ENDBRANCH  21  25
ENDBRANCH   1  22
TORSDOF 7
ENDMDL
MODEL 9
REMARK VINA RESULT:     -10.4      4.891     12.192
REMARK  Name = 11979006
REMARK  7 active torsions:
REMARK  status: ('A' for Active; 'I' for Inactive)
REMARK    1  A    between atoms: C_1  and  N_2
REMARK    2  A    between atoms: C_1  and  C_22
REMARK    3  A    between atoms: C_3  and  N_9
REMARK    4  A    between atoms: C_4  and  O_18
REMARK    5  A    between atoms: C_10  and  C_14
REMARK    6  A    between atoms: N_21  and  C_25
REMARK    7  A    between atoms: C_28  and  N_32
REMARK                            x       y       z     vdW  Elec       q    Type
REMARK                         _______ _______ _______ _____ _____    ______ ____
ROOT
ATOM      1  C   UNL     1      35.056 -19.842 -21.609  0.00  0.00    +0.010 C 
ENDROOT
BRANCH   1   2
ATOM      2  N   UNL     1      35.443 -18.531 -22.108  0.00  0.00    +0.396 N 
ATOM      3  C   UNL     1      35.252 -16.227 -22.110  0.00  0.00    +0.076 C 
ATOM      4  C   UNL     1      34.927 -16.712 -23.525  0.00  0.00    +0.106 C 
ATOM      5  C   UNL     1      34.995 -17.445 -21.234  0.00  0.00    -0.054 C 
ATOM      6  C   UNL     1      34.866 -18.237 -23.425  0.00  0.00    -0.045 C 
ATOM      7  H   UNL     1      36.461 -18.574 -22.151  0.00  0.00    -0.079 HD
BRANCH   3   9
ATOM      8  O   UNL     1      34.768 -13.936 -23.680  0.00  0.00    -0.270 OA
ATOM      9  N   UNL     1      34.458 -15.095 -21.720  0.00  0.00    -0.302 N 
ATOM     10  C   UNL     1      34.264 -13.993 -22.557  0.00  0.00    +0.252 C 
ATOM     11  H   UNL     1      34.036 -15.094 -20.832  0.00  0.00    +0.150 HD
BRANCH  10  14
ATOM     12 CL   UNL     1      31.586  -9.255 -21.946  0.00  0.00    -0.075 Cl
ATOM     13  S   UNL     1      33.298 -11.483 -22.907  0.00  0.00    -0.071 S 
ATOM     14  C   UNL     1      33.400 -12.927 -22.030  0.00  0.00    +0.084 C 
ATOM     15  C   UNL     1      32.658 -12.956 -20.900  0.00  0.00    +0.012 C 
ATOM     16  C   UNL     1      31.957 -11.727 -20.729  0.00  0.00    +0.019 C 
ATOM     17  C   UNL     1      32.214 -10.838 -21.749  0.00  0.00    +0.087 C 
ENDBRANCH  10  14
ENDBRANCH   3   9
BRANCH   4  18
ATOM     18  O   UNL     1      35.962 -16.305 -24.411  0.00  0.00    -0.385 OA
ATOM     19  H   UNL     1      36.410 -17.088 -24.766  0.00  0.00    +0.210 HD
ENDBRANCH   4  18
ENDBRANCH   1   2
BRANCH   1  22
ATOM     20  O   UNL     1      36.892 -19.588 -20.063  0.00  0.00    -0.277 OA
ATOM     21  N   UNL     1      35.179 -21.125 -19.596  0.00  0.00    -0.284 N 
ATOM     22  C   UNL     1      35.837 -20.151 -20.344  0.00  0.00    +0.205 C 
ATOM     23  H   UNL     1      34.335 -21.465 -19.973  0.00  0.00    +0.155 HD
BRANCH  21  25
ATOM     24  F   UNL     1      33.370 -22.460 -17.966  0.00  0.00    -0.203 F 
ATOM     25  C   UNL     1      35.580 -21.683 -18.358  0.00  0.00    +0.078 C 
ATOM     26  C   UNL     1      34.647 -22.341 -17.575  0.00  0.00    +0.155 C 
ATOM     27  C   UNL     1      36.900 -21.557 -17.958  0.00  0.00    +0.018 C 
ATOM     28  C   UNL     1      36.371 -22.771 -15.937  0.00  0.00    +0.061 C 
ATOM     29  C   UNL     1      35.046 -22.890 -16.355  0.00  0.00    +0.046 C 
ATOM     30  C   UNL     1      37.298 -22.104 -16.739  0.00  0.00    +0.017 C 
BRANCH  28  32
ATOM     31  O   UNL     1      36.688 -25.595 -15.397  0.00  0.00    -0.269 OA
ATOM     32  N   UNL     1      36.785 -23.341 -14.670  0.00  0.00    -0.233 N 
ATOM     33  C   UNL     1      36.942 -24.746 -14.543  0.00  0.00    +0.257 C 
ATOM     34  C   UNL     1      37.009 -22.519 -13.563  0.00  0.00    +0.072 C 
ATOM     35  C   UNL     1      37.416 -25.245 -13.216  0.00  0.00    +0.059 C 
ATOM     36  C   UNL     1      37.401 -22.993 -12.377  0.00  0.00    +0.017 C 
ATOM     37  C   UNL     1      37.618 -24.399 -12.203  0.00  0.00    +0.006 C 
ENDBRANCH  28  32
ENDBRANCH  21  25
ENDBRANCH   1  22
TORSDOF 7
ENDMDL
