MODEL 1
REMARK VINA RESULT:     -11.7      0.000      0.000
REMARK  Name = 46892373
REMARK  3 active torsions:
REMARK  status: ('A' for Active; 'I' for Inactive)
REMARK    1  A    between atoms: C_7  and  C_20
REMARK    2  A    between atoms: C_20  and  C_22
REMARK    3  A    between atoms: C_20  and  O_28
REMARK                            x       y       z     vdW  Elec       q    Type
REMARK                         _______ _______ _______ _____ _____    ______ ____
ROOT
ATOM      1  N   UNL     1      34.299 -23.567 -16.999  0.00  0.00    -0.326 NA
ATOM      2  N   UNL     1      34.845 -24.301 -14.831  0.00  0.00    -0.271 N 
ATOM      3  N   UNL     1      32.138 -22.607 -17.464  0.00  0.00    -0.345 NA
ATOM      4  N   UNL     1      38.279 -23.957 -15.203  0.00  0.00    -0.239 N 
ATOM      5  N   UNL     1      37.051 -23.674 -15.667  0.00  0.00    -0.166 NA
ATOM      6  C   UNL     1      32.655 -23.343 -15.240  0.00  0.00    +0.072 C 
ATOM      7  C   UNL     1      33.379 -23.012 -17.803  0.00  0.00    +0.146 C 
ATOM      8  C   UNL     1      33.907 -23.719 -15.720  0.00  0.00    +0.199 C 
ATOM      9  C   UNL     1      31.779 -22.774 -16.179  0.00  0.00    +0.129 C 
ATOM     10  C   UNL     1      32.268 -23.512 -13.901  0.00  0.00    +0.006 C 
ATOM     11  C   UNL     1      30.516 -22.383 -15.737  0.00  0.00    +0.086 C 
ATOM     12  C   UNL     1      36.248 -24.290 -14.795  0.00  0.00    +0.152 C 
ATOM     13  C   UNL     1      31.002 -23.114 -13.485  0.00  0.00    -0.004 C 
ATOM     14  C   UNL     1      30.125 -22.549 -14.405  0.00  0.00    -0.019 C 
ATOM     15  C   UNL     1      36.959 -24.961 -13.782  0.00  0.00    +0.048 C 
ATOM     16  C   UNL     1      38.280 -24.725 -14.076  0.00  0.00    +0.046 C 
ATOM     17  C   UNL     1      39.525 -25.145 -13.413  0.00  0.00    +0.049 C 
ATOM     18  H   UNL     1      34.433 -24.812 -14.097  0.00  0.00    +0.156 HD
ATOM     19  H   UNL     1      39.104 -23.639 -15.637  0.00  0.00    +0.174 HD
ENDROOT
BRANCH   7  20
ATOM     20  C   UNL     1      33.770 -22.824 -19.231  0.00  0.00    +0.243 C 
BRANCH  20  22
ATOM     21  F   UNL     1      37.695 -18.831 -20.012  0.00  0.00    -0.204 F 
ATOM     22  C   UNL     1      34.828 -21.747 -19.442  0.00  0.00    +0.021 C 
ATOM     23  C   UNL     1      34.634 -20.758 -20.406  0.00  0.00    +0.001 C 
ATOM     24  C   UNL     1      35.990 -21.751 -18.671  0.00  0.00    +0.001 C 
ATOM     25  C   UNL     1      35.602 -19.772 -20.598  0.00  0.00    +0.029 C 
ATOM     26  C   UNL     1      36.960 -20.766 -18.864  0.00  0.00    +0.029 C 
ATOM     27  C   UNL     1      36.765 -19.777 -19.828  0.00  0.00    +0.140 C 
ENDBRANCH  20  22
BRANCH  20  28
ATOM     28  O   UNL     1      34.213 -24.050 -19.841  0.00  0.00    -0.366 OA
ATOM     29  H   UNL     1      34.789 -23.848 -20.594  0.00  0.00    +0.212 HD
ENDBRANCH  20  28
ENDBRANCH   7  20
TORSDOF 3
ENDMDL
MODEL 2
REMARK VINA RESULT:     -11.5      2.857      6.955
REMARK  Name = 46892373
REMARK  3 active torsions:
REMARK  status: ('A' for Active; 'I' for Inactive)
REMARK    1  A    between atoms: C_7  and  C_20
REMARK    2  A    between atoms: C_20  and  C_22
REMARK    3  A    between atoms: C_20  and  O_28
REMARK                            x       y       z     vdW  Elec       q    Type
REMARK                         _______ _______ _______ _____ _____    ______ ____
ROOT
ATOM      1  N   UNL     1      33.835 -23.237 -15.724  0.00  0.00    -0.326 NA
ATOM      2  N   UNL     1      32.024 -22.623 -17.096  0.00  0.00    -0.271 N 
ATOM      3  N   UNL     1      36.100 -22.746 -16.384  0.00  0.00    -0.345 NA
ATOM      4  N   UNL     1      29.684 -22.475 -14.536  0.00  0.00    -0.239 N 
ATOM      5  N   UNL     1      30.978 -22.525 -14.893  0.00  0.00    -0.166 NA
ATOM      6  C   UNL     1      34.282 -22.103 -17.811  0.00  0.00    +0.072 C 
ATOM      7  C   UNL     1      35.166 -23.246 -15.550  0.00  0.00    +0.146 C 
ATOM      8  C   UNL     1      33.423 -22.657 -16.867  0.00  0.00    +0.199 C 
ATOM      9  C   UNL     1      35.654 -22.174 -17.517  0.00  0.00    +0.129 C 
ATOM     10  C   UNL     1      33.828 -21.503 -18.998  0.00  0.00    +0.006 C 
ATOM     11  C   UNL     1      36.546 -21.629 -18.438  0.00  0.00    +0.086 C 
ATOM     12  C   UNL     1      30.923 -22.565 -16.227  0.00  0.00    +0.152 C 
ATOM     13  C   UNL     1      34.740 -20.967 -19.901  0.00  0.00    -0.004 C 
ATOM     14  C   UNL     1      36.100 -21.031 -19.620  0.00  0.00    -0.019 C 
ATOM     15  C   UNL     1      29.604 -22.541 -16.718  0.00  0.00    +0.048 C 
ATOM     16  C   UNL     1      28.820 -22.482 -15.591  0.00  0.00    +0.046 C 
ATOM     17  C   UNL     1      27.360 -22.434 -15.411  0.00  0.00    +0.049 C 
ATOM     18  H   UNL     1      31.777 -22.646 -18.048  0.00  0.00    +0.156 HD
ATOM     19  H   UNL     1      29.386 -22.436 -13.598  0.00  0.00    +0.174 HD
ENDROOT
BRANCH   7  20
ATOM     20  C   UNL     1      35.669 -23.879 -14.296  0.00  0.00    +0.243 C 
BRANCH  20  22
ATOM     21  F   UNL     1      40.245 -27.111 -15.050  0.00  0.00    -0.204 F 
ATOM     22  C   UNL     1      36.903 -24.750 -14.500  0.00  0.00    +0.021 C 
ATOM     23  C   UNL     1      36.768 -26.040 -15.014  0.00  0.00    +0.001 C 
ATOM     24  C   UNL     1      38.166 -24.259 -14.170  0.00  0.00    +0.001 C 
ATOM     25  C   UNL     1      37.898 -26.837 -15.201  0.00  0.00    +0.029 C 
ATOM     26  C   UNL     1      39.295 -25.057 -14.356  0.00  0.00    +0.029 C 
ATOM     27  C   UNL     1      39.161 -26.346 -14.871  0.00  0.00    +0.140 C 
ENDBRANCH  20  22
BRANCH  20  28
ATOM     28  O   UNL     1      35.937 -22.910 -13.266  0.00  0.00    -0.366 OA
ATOM     29  H   UNL     1      35.835 -23.326 -12.396  0.00  0.00    +0.212 HD
ENDBRANCH  20  28
ENDBRANCH   7  20
TORSDOF 3
ENDMDL
MODEL 3
REMARK VINA RESULT:     -11.0      3.043      6.697
REMARK  Name = 46892373
REMARK  3 active torsions:
REMARK  status: ('A' for Active; 'I' for Inactive)
REMARK    1  A    between atoms: C_7  and  C_20
REMARK    2  A    between atoms: C_20  and  C_22
REMARK    3  A    between atoms: C_20  and  O_28
REMARK                            x       y       z     vdW  Elec       q    Type
REMARK                         _______ _______ _______ _____ _____    ______ ____
ROOT
ATOM      1  N   UNL     1      35.667 -22.982 -16.085  0.00  0.00    -0.326 NA
ATOM      2  N   UNL     1      33.443 -23.153 -16.832  0.00  0.00    -0.271 N 
ATOM      3  N   UNL     1      37.293 -21.723 -17.342  0.00  0.00    -0.345 NA
ATOM      4  N   UNL     1      32.069 -23.746 -13.700  0.00  0.00    -0.239 N 
ATOM      5  N   UNL     1      33.126 -23.333 -14.419  0.00  0.00    -0.166 NA
ATOM      6  C   UNL     1      35.035 -21.873 -18.138  0.00  0.00    +0.072 C 
ATOM      7  C   UNL     1      36.896 -22.488 -16.306  0.00  0.00    +0.146 C 
ATOM      8  C   UNL     1      34.757 -22.655 -17.021  0.00  0.00    +0.199 C 
ATOM      9  C   UNL     1      36.358 -21.416 -18.259  0.00  0.00    +0.129 C 
ATOM     10  C   UNL     1      34.067 -21.546 -19.103  0.00  0.00    +0.006 C 
ATOM     11  C   UNL     1      36.676 -20.629 -19.364  0.00  0.00    +0.086 C 
ATOM     12  C   UNL     1      32.703 -23.461 -15.679  0.00  0.00    +0.152 C 
ATOM     13  C   UNL     1      34.412 -20.759 -20.197  0.00  0.00    -0.004 C 
ATOM     14  C   UNL     1      35.718 -20.300 -20.327  0.00  0.00    -0.019 C 
ATOM     15  C   UNL     1      31.387 -23.951 -15.764  0.00  0.00    +0.048 C 
ATOM     16  C   UNL     1      31.002 -24.128 -14.458  0.00  0.00    +0.046 C 
ATOM     17  C   UNL     1      29.748 -24.613 -13.859  0.00  0.00    +0.049 C 
ATOM     18  H   UNL     1      32.955 -23.315 -17.672  0.00  0.00    +0.156 HD
ATOM     19  H   UNL     1      32.066 -23.772 -12.715  0.00  0.00    +0.174 HD
ENDROOT
BRANCH   7  20
ATOM     20  C   UNL     1      37.939 -22.824 -15.293  0.00  0.00    +0.243 C 
BRANCH  20  22
ATOM     21  F   UNL     1      35.894 -25.352 -10.669  0.00  0.00    -0.204 F 
ATOM     22  C   UNL     1      37.389 -23.506 -14.046  0.00  0.00    +0.021 C 
ATOM     23  C   UNL     1      37.590 -24.872 -13.852  0.00  0.00    +0.001 C 
ATOM     24  C   UNL     1      36.682 -22.764 -13.100  0.00  0.00    +0.001 C 
ATOM     25  C   UNL     1      37.086 -25.496 -12.710  0.00  0.00    +0.029 C 
ATOM     26  C   UNL     1      36.177 -23.387 -11.958  0.00  0.00    +0.029 C 
ATOM     27  C   UNL     1      36.379 -24.754 -11.764  0.00  0.00    +0.140 C 
ENDBRANCH  20  22
BRANCH  20  28
ATOM     28  O   UNL     1      38.996 -23.629 -15.846  0.00  0.00    -0.366 OA
ATOM     29  H   UNL     1      39.851 -23.321 -15.505  0.00  0.00    +0.212 HD
ENDBRANCH  20  28
ENDBRANCH   7  20
TORSDOF 3
ENDMDL
MODEL 4
REMARK VINA RESULT:     -10.9      2.964      7.126
REMARK  Name = 46892373
REMARK  3 active torsions:
REMARK  status: ('A' for Active; 'I' for Inactive)
REMARK    1  A    between atoms: C_7  and  C_20
REMARK    2  A    between atoms: C_20  and  C_22
REMARK    3  A    between atoms: C_20  and  O_28
REMARK                            x       y       z     vdW  Elec       q    Type
REMARK                         _______ _______ _______ _____ _____    ______ ____
ROOT
ATOM      1  N   UNL     1      32.738 -23.472 -15.511  0.00  0.00    -0.326 NA
ATOM      2  N   UNL     1      31.086 -22.642 -16.966  0.00  0.00    -0.271 N 
ATOM      3  N   UNL     1      35.078 -23.197 -16.022  0.00  0.00    -0.345 NA
ATOM      4  N   UNL     1      28.620 -22.320 -14.544  0.00  0.00    -0.239 N 
ATOM      5  N   UNL     1      29.922 -22.493 -14.826  0.00  0.00    -0.166 NA
ATOM      6  C   UNL     1      33.424 -22.337 -17.532  0.00  0.00    +0.072 C 
ATOM      7  C   UNL     1      34.049 -23.620 -15.260  0.00  0.00    +0.146 C 
ATOM      8  C   UNL     1      32.457 -22.824 -16.657  0.00  0.00    +0.199 C 
ATOM      9  C   UNL     1      34.761 -22.554 -17.161  0.00  0.00    +0.129 C 
ATOM     10  C   UNL     1      33.105 -21.665 -18.724  0.00  0.00    +0.006 C 
ATOM     11  C   UNL     1      35.757 -22.081 -18.011  0.00  0.00    +0.086 C 
ATOM     12  C   UNL     1      29.945 -22.494 -16.161  0.00  0.00    +0.152 C 
ATOM     13  C   UNL     1      34.120 -21.202 -19.556  0.00  0.00    -0.004 C 
ATOM     14  C   UNL     1      35.448 -21.411 -19.198  0.00  0.00    -0.019 C 
ATOM     15  C   UNL     1      28.668 -22.324 -16.727  0.00  0.00    +0.048 C 
ATOM     16  C   UNL     1      27.826 -22.213 -15.647  0.00  0.00    +0.046 C 
ATOM     17  C   UNL     1      26.370 -22.021 -15.551  0.00  0.00    +0.049 C 
ATOM     18  H   UNL     1      30.896 -22.616 -17.932  0.00  0.00    +0.156 HD
ATOM     19  H   UNL     1      28.271 -22.275 -13.624  0.00  0.00    +0.174 HD
ENDROOT
BRANCH   7  20
ATOM     20  C   UNL     1      34.408 -24.332 -13.999  0.00  0.00    +0.243 C 
BRANCH  20  22
ATOM     21  F   UNL     1      39.939 -25.374 -13.464  0.00  0.00    -0.204 F 
ATOM     22  C   UNL     1      35.900 -24.613 -13.855  0.00  0.00    +0.021 C 
ATOM     23  C   UNL     1      36.495 -25.621 -14.612  0.00  0.00    +0.001 C 
ATOM     24  C   UNL     1      36.668 -23.862 -12.966  0.00  0.00    +0.001 C 
ATOM     25  C   UNL     1      37.860 -25.878 -14.481  0.00  0.00    +0.029 C 
ATOM     26  C   UNL     1      38.033 -24.119 -12.833  0.00  0.00    +0.029 C 
ATOM     27  C   UNL     1      38.629 -25.127 -13.592  0.00  0.00    +0.140 C 
ENDBRANCH  20  22
BRANCH  20  28
ATOM     28  O   UNL     1      33.941 -23.637 -12.828  0.00  0.00    -0.366 OA
ATOM     29  H   UNL     1      33.898 -22.685 -13.012  0.00  0.00    +0.212 HD
ENDBRANCH  20  28
ENDBRANCH   7  20
TORSDOF 3
ENDMDL
MODEL 5
REMARK VINA RESULT:     -10.9      2.913      5.804
REMARK  Name = 46892373
REMARK  3 active torsions:
REMARK  status: ('A' for Active; 'I' for Inactive)
REMARK    1  A    between atoms: C_7  and  C_20
REMARK    2  A    between atoms: C_20  and  C_22
REMARK    3  A    between atoms: C_20  and  O_28
REMARK                            x       y       z     vdW  Elec       q    Type
REMARK                         _______ _______ _______ _____ _____    ______ ____
ROOT
ATOM      1  N   UNL     1      33.641 -22.899 -16.579  0.00  0.00    -0.326 NA
ATOM      2  N   UNL     1      35.955 -22.914 -16.153  0.00  0.00    -0.271 N 
ATOM      3  N   UNL     1      32.758 -21.799 -18.533  0.00  0.00    -0.345 NA
ATOM      4  N   UNL     1      35.935 -25.806 -14.231  0.00  0.00    -0.239 N 
ATOM      5  N   UNL     1      35.286 -25.012 -15.098  0.00  0.00    -0.166 NA
ATOM      6  C   UNL     1      35.124 -21.792 -18.134  0.00  0.00    +0.072 C 
ATOM      7  C   UNL     1      32.647 -22.509 -17.392  0.00  0.00    +0.146 C 
ATOM      8  C   UNL     1      34.871 -22.525 -16.978  0.00  0.00    +0.199 C 
ATOM      9  C   UNL     1      34.001 -21.441 -18.902  0.00  0.00    +0.129 C 
ATOM     10  C   UNL     1      36.417 -21.412 -18.530  0.00  0.00    +0.006 C 
ATOM     11  C   UNL     1      34.213 -20.707 -20.067  0.00  0.00    +0.086 C 
ATOM     12  C   UNL     1      36.154 -24.019 -15.309  0.00  0.00    +0.152 C 
ATOM     13  C   UNL     1      36.601 -20.679 -19.698  0.00  0.00    -0.004 C 
ATOM     14  C   UNL     1      35.497 -20.327 -20.467  0.00  0.00    -0.019 C 
ATOM     15  C   UNL     1      37.348 -24.177 -14.581  0.00  0.00    +0.048 C 
ATOM     16  C   UNL     1      37.174 -25.351 -13.888  0.00  0.00    +0.046 C 
ATOM     17  C   UNL     1      38.044 -26.076 -12.949  0.00  0.00    +0.049 C 
ATOM     18  H   UNL     1      36.715 -22.289 -16.174  0.00  0.00    +0.156 HD
ATOM     19  H   UNL     1      35.551 -26.639 -13.874  0.00  0.00    +0.174 HD
ENDROOT
BRANCH   7  20
ATOM     20  C   UNL     1      31.265 -22.902 -16.988  0.00  0.00    +0.243 C 
BRANCH  20  22
ATOM     21  F   UNL     1      30.949 -25.128 -11.801  0.00  0.00    -0.204 F 
ATOM     22  C   UNL     1      31.180 -23.502 -15.590  0.00  0.00    +0.021 C 
ATOM     23  C   UNL     1      30.638 -24.775 -15.409  0.00  0.00    +0.001 C 
ATOM     24  C   UNL     1      31.643 -22.779 -14.491  0.00  0.00    +0.001 C 
ATOM     25  C   UNL     1      30.560 -25.324 -14.129  0.00  0.00    +0.029 C 
ATOM     26  C   UNL     1      31.565 -23.328 -13.210  0.00  0.00    +0.029 C 
ATOM     27  C   UNL     1      31.023 -24.601 -13.030  0.00  0.00    +0.140 C 
ENDBRANCH  20  22
BRANCH  20  28
ATOM     28  O   UNL     1      30.335 -21.808 -17.092  0.00  0.00    -0.366 OA
ATOM     29  H   UNL     1      30.229 -21.560 -18.024  0.00  0.00    +0.212 HD
ENDBRANCH  20  28
ENDBRANCH   7  20
TORSDOF 3
ENDMDL
MODEL 6
REMARK VINA RESULT:     -10.7      2.990      5.684
REMARK  Name = 46892373
REMARK  3 active torsions:
REMARK  status: ('A' for Active; 'I' for Inactive)
REMARK    1  A    between atoms: C_7  and  C_20
REMARK    2  A    between atoms: C_20  and  C_22
REMARK    3  A    between atoms: C_20  and  O_28
REMARK                            x       y       z     vdW  Elec       q    Type
REMARK                         _______ _______ _______ _____ _____    ______ ____
ROOT
ATOM      1  N   UNL     1      34.621 -23.649 -15.143  0.00  0.00    -0.326 NA
ATOM      2  N   UNL     1      36.870 -23.310 -15.745  0.00  0.00    -0.271 N 
ATOM      3  N   UNL     1      32.837 -22.854 -16.555  0.00  0.00    -0.345 NA
ATOM      4  N   UNL     1      38.122 -25.999 -13.940  0.00  0.00    -0.239 N 
ATOM      5  N   UNL     1      37.050 -25.380 -14.464  0.00  0.00    -0.166 NA
ATOM      6  C   UNL     1      35.117 -22.488 -17.205  0.00  0.00    +0.072 C 
ATOM      7  C   UNL     1      33.329 -23.470 -15.461  0.00  0.00    +0.146 C 
ATOM      8  C   UNL     1      35.493 -23.146 -16.037  0.00  0.00    +0.199 C 
ATOM      9  C   UNL     1      33.736 -22.363 -17.427  0.00  0.00    +0.129 C 
ATOM     10  C   UNL     1      36.046 -21.971 -18.123  0.00  0.00    +0.006 C 
ATOM     11  C   UNL     1      33.320 -21.711 -18.585  0.00  0.00    +0.086 C 
ATOM     12  C   UNL     1      37.579 -24.300 -15.045  0.00  0.00    +0.152 C 
ATOM     13  C   UNL     1      35.604 -21.324 -19.272  0.00  0.00    -0.004 C 
ATOM     14  C   UNL     1      34.239 -21.194 -19.503  0.00  0.00    -0.019 C 
ATOM     15  C   UNL     1      38.976 -24.230 -14.893  0.00  0.00    +0.048 C 
ATOM     16  C   UNL     1      39.299 -25.351 -14.169  0.00  0.00    +0.046 C 
ATOM     17  C   UNL     1      40.587 -25.867 -13.677  0.00  0.00    +0.049 C 
ATOM     18  H   UNL     1      37.440 -22.592 -16.102  0.00  0.00    +0.156 HD
ATOM     19  H   UNL     1      38.061 -26.844 -13.437  0.00  0.00    +0.174 HD
ENDROOT
BRANCH   7  20
ATOM     20  C   UNL     1      32.326 -24.012 -14.498  0.00  0.00    +0.243 C 
BRANCH  20  22
ATOM     21  F   UNL     1      26.982 -22.715 -15.808  0.00  0.00    -0.204 F 
ATOM     22  C   UNL     1      30.885 -23.663 -14.851  0.00  0.00    +0.021 C 
ATOM     23  C   UNL     1      30.081 -24.596 -15.505  0.00  0.00    +0.001 C 
ATOM     24  C   UNL     1      30.370 -22.409 -14.521  0.00  0.00    +0.001 C 
ATOM     25  C   UNL     1      28.762 -24.277 -15.828  0.00  0.00    +0.029 C 
ATOM     26  C   UNL     1      29.051 -22.088 -14.845  0.00  0.00    +0.029 C 
ATOM     27  C   UNL     1      28.247 -23.023 -15.498  0.00  0.00    +0.140 C 
ENDBRANCH  20  22
BRANCH  20  28
ATOM     28  O   UNL     1      32.443 -25.437 -14.334  0.00  0.00    -0.366 OA
ATOM     29  H   UNL     1      31.767 -25.748 -13.711  0.00  0.00    +0.212 HD
ENDBRANCH  20  28
ENDBRANCH   7  20
TORSDOF 3
ENDMDL
MODEL 7
REMARK VINA RESULT:     -10.6      2.910      5.879
REMARK  Name = 46892373
REMARK  3 active torsions:
REMARK  status: ('A' for Active; 'I' for Inactive)
REMARK    1  A    between atoms: C_7  and  C_20
REMARK    2  A    between atoms: C_20  and  C_22
REMARK    3  A    between atoms: C_20  and  O_28
REMARK                            x       y       z     vdW  Elec       q    Type
REMARK                         _______ _______ _______ _____ _____    ______ ____
ROOT
ATOM      1  N   UNL     1      34.083 -23.136 -15.023  0.00  0.00    -0.326 NA
ATOM      2  N   UNL     1      32.903 -22.357 -16.904  0.00  0.00    -0.271 N 
ATOM      3  N   UNL     1      33.011 -24.560 -13.401  0.00  0.00    -0.345 NA
ATOM      4  N   UNL     1      35.704 -21.879 -18.898  0.00  0.00    -0.239 N 
ATOM      5  N   UNL     1      35.176 -22.427 -17.791  0.00  0.00    -0.166 NA
ATOM      6  C   UNL     1      31.772 -23.788 -15.305  0.00  0.00    +0.072 C 
ATOM      7  C   UNL     1      34.055 -23.867 -13.897  0.00  0.00    +0.146 C 
ATOM      8  C   UNL     1      32.924 -23.116 -15.706  0.00  0.00    +0.199 C 
ATOM      9  C   UNL     1      31.868 -24.519 -14.109  0.00  0.00    +0.129 C 
ATOM     10  C   UNL     1      30.573 -23.752 -16.036  0.00  0.00    +0.006 C 
ATOM     11  C   UNL     1      30.736 -25.205 -13.675  0.00  0.00    +0.086 C 
ATOM     12  C   UNL     1      33.898 -22.041 -17.842  0.00  0.00    +0.152 C 
ATOM     13  C   UNL     1      29.458 -24.446 -15.579  0.00  0.00    -0.004 C 
ATOM     14  C   UNL     1      29.540 -25.174 -14.397  0.00  0.00    -0.019 C 
ATOM     15  C   UNL     1      33.613 -21.252 -18.972  0.00  0.00    +0.048 C 
ATOM     16  C   UNL     1      34.811 -21.165 -19.640  0.00  0.00    +0.046 C 
ATOM     17  C   UNL     1      35.194 -20.485 -20.888  0.00  0.00    +0.049 C 
ATOM     18  H   UNL     1      32.020 -21.978 -17.118  0.00  0.00    +0.156 HD
ATOM     19  H   UNL     1      36.651 -21.983 -19.149  0.00  0.00    +0.174 HD
ENDROOT
BRANCH   7  20
ATOM     20  C   UNL     1      35.320 -23.918 -13.106  0.00  0.00    +0.243 C 
BRANCH  20  22
ATOM     21  F   UNL     1      39.230 -27.377 -15.274  0.00  0.00    -0.204 F 
ATOM     22  C   UNL     1      36.374 -24.850 -13.691  0.00  0.00    +0.021 C 
ATOM     23  C   UNL     1      36.048 -25.692 -14.754  0.00  0.00    +0.001 C 
ATOM     24  C   UNL     1      37.665 -24.862 -13.163  0.00  0.00    +0.001 C 
ATOM     25  C   UNL     1      37.013 -26.546 -15.289  0.00  0.00    +0.029 C 
ATOM     26  C   UNL     1      38.630 -25.716 -13.697  0.00  0.00    +0.029 C 
ATOM     27  C   UNL     1      38.303 -26.557 -14.761  0.00  0.00    +0.140 C 
ENDBRANCH  20  22
BRANCH  20  28
ATOM     28  O   UNL     1      35.894 -22.613 -12.913  0.00  0.00    -0.366 OA
ATOM     29  H   UNL     1      36.164 -22.511 -11.987  0.00  0.00    +0.212 HD
ENDBRANCH  20  28
ENDBRANCH   7  20
TORSDOF 3
ENDMDL
MODEL 8
REMARK VINA RESULT:     -10.4      1.997      5.340
REMARK  Name = 46892373
REMARK  3 active torsions:
REMARK  status: ('A' for Active; 'I' for Inactive)
REMARK    1  A    between atoms: C_7  and  C_20
REMARK    2  A    between atoms: C_20  and  C_22
REMARK    3  A    between atoms: C_20  and  O_28
REMARK                            x       y       z     vdW  Elec       q    Type
REMARK                         _______ _______ _______ _____ _____    ______ ____
ROOT
ATOM      1  N   UNL     1      35.724 -22.421 -15.559  0.00  0.00    -0.326 NA
ATOM      2  N   UNL     1      34.070 -23.108 -14.033  0.00  0.00    -0.271 N 
ATOM      3  N   UNL     1      37.997 -23.192 -15.338  0.00  0.00    -0.345 NA
ATOM      4  N   UNL     1      31.392 -22.648 -16.195  0.00  0.00    -0.239 N 
ATOM      5  N   UNL     1      32.722 -22.759 -16.038  0.00  0.00    -0.166 NA
ATOM      6  C   UNL     1      36.340 -23.916 -13.761  0.00  0.00    +0.072 C 
ATOM      7  C   UNL     1      37.012 -22.490 -15.932  0.00  0.00    +0.146 C 
ATOM      8  C   UNL     1      35.419 -23.147 -14.467  0.00  0.00    +0.199 C 
ATOM      9  C   UNL     1      37.657 -23.906 -14.249  0.00  0.00    +0.129 C 
ATOM     10  C   UNL     1      35.996 -24.665 -12.623  0.00  0.00    +0.006 C 
ATOM     11  C   UNL     1      38.608 -24.664 -13.570  0.00  0.00    +0.086 C 
ATOM     12  C   UNL     1      32.858 -22.935 -14.721  0.00  0.00    +0.152 C 
ATOM     13  C   UNL     1      36.966 -25.413 -11.963  0.00  0.00    -0.004 C 
ATOM     14  C   UNL     1      38.273 -25.412 -12.437  0.00  0.00    -0.019 C 
ATOM     15  C   UNL     1      31.625 -22.935 -14.042  0.00  0.00    +0.048 C 
ATOM     16  C   UNL     1      30.690 -22.746 -15.030  0.00  0.00    +0.046 C 
ATOM     17  C   UNL     1      29.222 -22.648 -14.989  0.00  0.00    +0.049 C 
ATOM     18  H   UNL     1      33.961 -23.223 -13.062  0.00  0.00    +0.156 HD
ATOM     19  H   UNL     1      30.964 -22.507 -17.071  0.00  0.00    +0.174 HD
ENDROOT
BRANCH   7  20
ATOM     20  C   UNL     1      37.397 -21.700 -17.139  0.00  0.00    +0.243 C 
BRANCH  20  22
ATOM     21  F   UNL     1      33.133 -20.821 -20.744  0.00  0.00    -0.204 F 
ATOM     22  C   UNL     1      36.248 -21.463 -18.111  0.00  0.00    +0.021 C 
ATOM     23  C   UNL     1      36.431 -20.635 -19.219  0.00  0.00    +0.001 C 
ATOM     24  C   UNL     1      35.012 -22.073 -17.893  0.00  0.00    +0.001 C 
ATOM     25  C   UNL     1      35.379 -20.419 -20.109  0.00  0.00    +0.029 C 
ATOM     26  C   UNL     1      33.959 -21.856 -18.782  0.00  0.00    +0.029 C 
ATOM     27  C   UNL     1      34.143 -21.029 -19.891  0.00  0.00    +0.140 C 
ENDBRANCH  20  22
BRANCH  20  28
ATOM     28  O   UNL     1      37.996 -20.438 -16.795  0.00  0.00    -0.366 OA
ATOM     29  H   UNL     1      38.837 -20.592 -16.336  0.00  0.00    +0.212 HD
ENDBRANCH  20  28
ENDBRANCH   7  20
TORSDOF 3
ENDMDL
MODEL 9
REMARK VINA RESULT:     -10.1      3.397      7.304
REMARK  Name = 46892373
REMARK  3 active torsions:
REMARK  status: ('A' for Active; 'I' for Inactive)
REMARK    1  A    between atoms: C_7  and  C_20
REMARK    2  A    between atoms: C_20  and  C_22
REMARK    3  A    between atoms: C_20  and  O_28
REMARK                            x       y       z     vdW  Elec       q    Type
REMARK                         _______ _______ _______ _____ _____    ______ ____
ROOT
ATOM      1  N   UNL     1      33.795 -22.174 -18.141  0.00  0.00    -0.326 NA
ATOM      2  N   UNL     1      35.613 -21.315 -19.362  0.00  0.00    -0.271 N 
ATOM      3  N   UNL     1      34.106 -23.022 -15.907  0.00  0.00    -0.345 NA
ATOM      4  N   UNL     1      33.712 -19.257 -21.413  0.00  0.00    -0.239 N 
ATOM      5  N   UNL     1      33.778 -20.007 -20.301  0.00  0.00    -0.166 NA
ATOM      6  C   UNL     1      35.986 -22.155 -17.119  0.00  0.00    +0.072 C 
ATOM      7  C   UNL     1      33.367 -22.725 -16.995  0.00  0.00    +0.146 C 
ATOM      8  C   UNL     1      35.112 -21.899 -18.172  0.00  0.00    +0.199 C 
ATOM      9  C   UNL     1      35.418 -22.735 -15.972  0.00  0.00    +0.129 C 
ATOM     10  C   UNL     1      37.358 -21.860 -17.175  0.00  0.00    +0.006 C 
ATOM     11  C   UNL     1      36.260 -23.006 -14.896  0.00  0.00    +0.086 C 
ATOM     12  C   UNL     1      35.030 -20.471 -20.322  0.00  0.00    +0.152 C 
ATOM     13  C   UNL     1      38.177 -22.141 -16.087  0.00  0.00    -0.004 C 
ATOM     14  C   UNL     1      37.627 -22.715 -14.946  0.00  0.00    -0.019 C 
ATOM     15  C   UNL     1      35.759 -20.020 -21.438  0.00  0.00    +0.048 C 
ATOM     16  C   UNL     1      34.872 -19.231 -22.130  0.00  0.00    +0.046 C 
ATOM     17  C   UNL     1      35.004 -18.468 -23.381  0.00  0.00    +0.049 C 
ATOM     18  H   UNL     1      36.550 -21.546 -19.555  0.00  0.00    +0.156 HD
ATOM     19  H   UNL     1      32.900 -18.770 -21.686  0.00  0.00    +0.174 HD
ENDROOT
BRANCH   7  20
ATOM     20  C   UNL     1      31.911 -23.047 -16.914  0.00  0.00    +0.243 C 
BRANCH  20  22
ATOM     21  F   UNL     1      30.237 -24.763 -11.794  0.00  0.00    -0.204 F 
ATOM     22  C   UNL     1      31.460 -23.509 -15.534  0.00  0.00    +0.021 C 
ATOM     23  C   UNL     1      31.725 -22.722 -14.413  0.00  0.00    +0.001 C 
ATOM     24  C   UNL     1      30.782 -24.720 -15.390  0.00  0.00    +0.001 C 
ATOM     25  C   UNL     1      31.311 -23.145 -13.150  0.00  0.00    +0.029 C 
ATOM     26  C   UNL     1      30.369 -25.144 -14.127  0.00  0.00    +0.029 C 
ATOM     27  C   UNL     1      30.634 -24.356 -13.007  0.00  0.00    +0.140 C 
ENDBRANCH  20  22
BRANCH  20  28
ATOM     28  O   UNL     1      31.086 -21.948 -17.341  0.00  0.00    -0.366 OA
ATOM     29  H   UNL     1      31.193 -21.814 -18.295  0.00  0.00    +0.212 HD
ENDBRANCH  20  28
ENDBRANCH   7  20
TORSDOF 3
ENDMDL
