MODEL 1
REMARK VINA RESULT:     -11.9      0.000      0.000
REMARK  Name = 3822
REMARK  5 active torsions:
REMARK  status: ('A' for Active; 'I' for Inactive)
REMARK    1  A    between atoms: N_1  and  C_17
REMARK    2  A    between atoms: C_2  and  C_9
REMARK    3  A    between atoms: C_9  and  C_11
REMARK    4  A    between atoms: C_17  and  C_18
REMARK    5  A    between atoms: C_18  and  N_21
REMARK                            x       y       z     vdW  Elec       q    Type
REMARK                         _______ _______ _______ _____ _____    ______ ____
ROOT
ATOM      1  N   UNL     1      35.099 -23.045 -13.515  0.00  0.00    +0.388 N 
ATOM      2  C   UNL     1      37.317 -24.040 -11.868  0.00  0.00    +0.058 C 
ATOM      3  C   UNL     1      37.542 -23.232 -13.145  0.00  0.00    -0.015 C 
ATOM      4  C   UNL     1      35.908 -23.833 -11.315  0.00  0.00    -0.015 C 
ATOM      5  C   UNL     1      36.389 -23.361 -14.144  0.00  0.00    -0.077 C 
ATOM      6  C   UNL     1      34.828 -23.951 -12.393  0.00  0.00    -0.077 C 
ATOM      7  H   UNL     1      35.149 -22.093 -13.151  0.00  0.00    -0.080 HD
ENDROOT
BRANCH   2   9
ATOM      8  O   UNL     1      37.101 -26.351 -11.347  0.00  0.00    -0.291 OA
ATOM      9  C   UNL     1      37.576 -25.501 -12.096  0.00  0.00    +0.172 C 
BRANCH   9  11
ATOM     10  F   UNL     1      40.748 -27.051 -16.423  0.00  0.00    -0.204 F 
ATOM     11  C   UNL     1      38.423 -25.914 -13.251  0.00  0.00    +0.035 C 
ATOM     12  C   UNL     1      39.760 -25.587 -13.242  0.00  0.00    +0.005 C 
ATOM     13  C   UNL     1      37.836 -26.611 -14.285  0.00  0.00    +0.005 C 
ATOM     14  C   UNL     1      40.553 -25.974 -14.323  0.00  0.00    +0.030 C 
ATOM     15  C   UNL     1      38.629 -26.998 -15.366  0.00  0.00    +0.030 C 
ATOM     16  C   UNL     1      39.987 -26.679 -15.385  0.00  0.00    +0.140 C 
ENDBRANCH   9  11
ENDBRANCH   2   9
BRANCH   1  17
ATOM     17  C   UNL     1      34.020 -23.114 -14.501  0.00  0.00    -0.052 C 
BRANCH  17  18
ATOM     18  C   UNL     1      34.532 -23.708 -15.805  0.00  0.00    +0.091 C 
BRANCH  18  21
ATOM     19  O   UNL     1      36.422 -22.430 -17.379  0.00  0.00    -0.267 OA
ATOM     20  O   UNL     1      31.883 -23.258 -16.623  0.00  0.00    -0.246 OA
ATOM     21  N   UNL     1      34.173 -22.886 -16.928  0.00  0.00    -0.251 N 
ATOM     22  N   UNL     1      32.523 -21.919 -18.348  0.00  0.00    -0.306 N 
ATOM     23  C   UNL     1      35.232 -22.285 -17.653  0.00  0.00    +0.265 A 
ATOM     24  C   UNL     1      32.799 -22.725 -17.255  0.00  0.00    +0.330 A 
ATOM     25  C   UNL     1      34.851 -21.442 -18.803  0.00  0.00    +0.072 A 
ATOM     26  C   UNL     1      33.504 -21.285 -19.115  0.00  0.00    +0.065 A 
ATOM     27  C   UNL     1      35.827 -20.804 -19.574  0.00  0.00    +0.006 C 
ATOM     28  C   UNL     1      33.123 -20.490 -20.199  0.00  0.00    +0.017 C 
ATOM     29  C   UNL     1      35.446 -20.010 -20.657  0.00  0.00    +0.000 C 
ATOM     30  C   UNL     1      34.096 -19.854 -20.969  0.00  0.00    +0.001 C 
ATOM     31  H   UNL     1      31.580 -21.786 -18.600  0.00  0.00    +0.170 HD
ENDBRANCH  18  21
ENDBRANCH  17  18
ENDBRANCH   1  17
TORSDOF 5
ENDMDL
MODEL 2
REMARK VINA RESULT:     -11.7      5.085     10.411
REMARK  Name = 3822
REMARK  5 active torsions:
REMARK  status: ('A' for Active; 'I' for Inactive)
REMARK    1  A    between atoms: N_1  and  C_17
REMARK    2  A    between atoms: C_2  and  C_9
REMARK    3  A    between atoms: C_9  and  C_11
REMARK    4  A    between atoms: C_17  and  C_18
REMARK    5  A    between atoms: C_18  and  N_21
REMARK                            x       y       z     vdW  Elec       q    Type
REMARK                         _______ _______ _______ _____ _____    ______ ____
ROOT
ATOM      1  N   UNL     1      36.119 -20.046 -20.601  0.00  0.00    +0.388 N 
ATOM      2  C   UNL     1      35.875 -17.947 -22.641  0.00  0.00    +0.058 C 
ATOM      3  C   UNL     1      37.220 -18.358 -22.043  0.00  0.00    -0.015 C 
ATOM      4  C   UNL     1      34.820 -19.036 -22.449  0.00  0.00    -0.015 C 
ATOM      5  C   UNL     1      37.093 -18.947 -20.635  0.00  0.00    -0.077 C 
ATOM      6  C   UNL     1      34.790 -19.582 -21.019  0.00  0.00    -0.077 C 
ATOM      7  H   UNL     1      36.426 -20.763 -21.259  0.00  0.00    -0.080 HD
ENDROOT
BRANCH   2   9
ATOM      8  O   UNL     1      35.411 -16.459 -20.845  0.00  0.00    -0.291 OA
ATOM      9  C   UNL     1      35.395 -16.650 -22.059  0.00  0.00    +0.172 C 
BRANCH   9  11
ATOM     10  F   UNL     1      33.518 -12.664 -25.490  0.00  0.00    -0.204 F 
ATOM     11  C   UNL     1      34.894 -15.586 -22.975  0.00  0.00    +0.035 C 
ATOM     12  C   UNL     1      34.555 -15.929 -24.265  0.00  0.00    +0.005 C 
ATOM     13  C   UNL     1      34.788 -14.299 -22.497  0.00  0.00    +0.005 C 
ATOM     14  C   UNL     1      34.087 -14.933 -25.122  0.00  0.00    +0.030 C 
ATOM     15  C   UNL     1      34.319 -13.303 -23.354  0.00  0.00    +0.030 C 
ATOM     16  C   UNL     1      33.969 -13.620 -24.667  0.00  0.00    +0.140 C 
ENDBRANCH   9  11
ENDBRANCH   2   9
BRANCH   1  17
ATOM     17  C   UNL     1      36.058 -20.634 -19.262  0.00  0.00    -0.052 C 
BRANCH  17  18
ATOM     18  C   UNL     1      35.508 -22.051 -19.332  0.00  0.00    +0.091 C 
BRANCH  18  21
ATOM     19  O   UNL     1      36.008 -22.828 -16.719  0.00  0.00    -0.267 OA
ATOM     20  O   UNL     1      32.783 -21.677 -19.902  0.00  0.00    -0.246 OA
ATOM     21  N   UNL     1      34.458 -22.250 -18.371  0.00  0.00    -0.251 N 
ATOM     22  N   UNL     1      32.147 -22.243 -17.791  0.00  0.00    -0.306 N 
ATOM     23  C   UNL     1      34.843 -22.649 -17.067  0.00  0.00    +0.265 A 
ATOM     24  C   UNL     1      33.109 -22.032 -18.766  0.00  0.00    +0.330 A 
ATOM     25  C   UNL     1      33.755 -22.852 -16.090  0.00  0.00    +0.072 A 
ATOM     26  C   UNL     1      32.437 -22.642 -16.484  0.00  0.00    +0.065 A 
ATOM     27  C   UNL     1      34.039 -23.251 -14.780  0.00  0.00    +0.006 C 
ATOM     28  C   UNL     1      31.394 -22.829 -15.574  0.00  0.00    +0.017 C 
ATOM     29  C   UNL     1      32.996 -23.438 -13.871  0.00  0.00    +0.000 C 
ATOM     30  C   UNL     1      31.676 -23.227 -14.267  0.00  0.00    +0.001 C 
ATOM     31  H   UNL     1      31.203 -22.102 -18.035  0.00  0.00    +0.170 HD
ENDBRANCH  18  21
ENDBRANCH  17  18
ENDBRANCH   1  17
TORSDOF 5
ENDMDL
MODEL 3
REMARK VINA RESULT:     -11.7      5.075     10.418
REMARK  Name = 3822
REMARK  5 active torsions:
REMARK  status: ('A' for Active; 'I' for Inactive)
REMARK    1  A    between atoms: N_1  and  C_17
REMARK    2  A    between atoms: C_2  and  C_9
REMARK    3  A    between atoms: C_9  and  C_11
REMARK    4  A    between atoms: C_17  and  C_18
REMARK    5  A    between atoms: C_18  and  N_21
REMARK                            x       y       z     vdW  Elec       q    Type
REMARK                         _______ _______ _______ _____ _____    ______ ____
ROOT
ATOM      1  N   UNL     1      36.281 -20.132 -20.603  0.00  0.00    +0.388 N 
ATOM      2  C   UNL     1      35.952 -18.024 -22.621  0.00  0.00    +0.058 C 
ATOM      3  C   UNL     1      37.314 -18.391 -22.032  0.00  0.00    -0.015 C 
ATOM      4  C   UNL     1      34.939 -19.152 -22.435  0.00  0.00    -0.015 C 
ATOM      5  C   UNL     1      37.214 -18.997 -20.630  0.00  0.00    -0.077 C 
ATOM      6  C   UNL     1      34.935 -19.713 -21.010  0.00  0.00    -0.077 C 
ATOM      7  H   UNL     1      36.612 -20.830 -21.269  0.00  0.00    -0.080 HD
ENDROOT
BRANCH   2   9
ATOM      8  O   UNL     1      35.411 -16.584 -20.807  0.00  0.00    -0.291 OA
ATOM      9  C   UNL     1      35.427 -16.750 -22.024  0.00  0.00    +0.172 C 
BRANCH   9  11
ATOM     10  F   UNL     1      33.537 -12.742 -25.421  0.00  0.00    -0.204 F 
ATOM     11  C   UNL     1      34.922 -15.680 -22.930  0.00  0.00    +0.035 C 
ATOM     12  C   UNL     1      34.839 -14.392 -22.452  0.00  0.00    +0.005 C 
ATOM     13  C   UNL     1      34.559 -16.020 -24.215  0.00  0.00    +0.005 C 
ATOM     14  C   UNL     1      34.367 -13.391 -23.300  0.00  0.00    +0.030 C 
ATOM     15  C   UNL     1      34.087 -15.018 -25.064  0.00  0.00    +0.030 C 
ATOM     16  C   UNL     1      33.990 -13.704 -24.607  0.00  0.00    +0.140 C 
ENDBRANCH   9  11
ENDBRANCH   2   9
BRANCH   1  17
ATOM     17  C   UNL     1      36.248 -20.734 -19.270  0.00  0.00    -0.052 C 
BRANCH  17  18
ATOM     18  C   UNL     1      35.473 -22.043 -19.301  0.00  0.00    +0.091 C 
BRANCH  18  21
ATOM     19  O   UNL     1      32.715 -22.177 -19.054  0.00  0.00    -0.267 OA
ATOM     20  O   UNL     1      36.849 -22.458 -16.888  0.00  0.00    -0.246 OA
ATOM     21  N   UNL     1      34.821 -22.293 -18.045  0.00  0.00    -0.251 N 
ATOM     22  N   UNL     1      34.924 -22.723 -15.703  0.00  0.00    -0.306 N 
ATOM     23  C   UNL     1      33.405 -22.335 -18.049  0.00  0.00    +0.265 A 
ATOM     24  C   UNL     1      35.615 -22.489 -16.881  0.00  0.00    +0.330 A 
ATOM     25  C   UNL     1      32.747 -22.591 -16.752  0.00  0.00    +0.072 A 
ATOM     26  C   UNL     1      33.530 -22.777 -15.617  0.00  0.00    +0.065 A 
ATOM     27  C   UNL     1      31.354 -22.646 -16.658  0.00  0.00    +0.006 C 
ATOM     28  C   UNL     1      32.927 -23.019 -14.380  0.00  0.00    +0.017 C 
ATOM     29  C   UNL     1      30.750 -22.887 -15.422  0.00  0.00    +0.000 C 
ATOM     30  C   UNL     1      31.536 -23.074 -14.285  0.00  0.00    +0.001 C 
ATOM     31  H   UNL     1      35.446 -22.862 -14.880  0.00  0.00    +0.170 HD
ENDBRANCH  18  21
ENDBRANCH  17  18
ENDBRANCH   1  17
TORSDOF 5
ENDMDL
MODEL 4
REMARK VINA RESULT:     -11.1     10.901     15.856
REMARK  Name = 3822
REMARK  5 active torsions:
REMARK  status: ('A' for Active; 'I' for Inactive)
REMARK    1  A    between atoms: N_1  and  C_17
REMARK    2  A    between atoms: C_2  and  C_9
REMARK    3  A    between atoms: C_9  and  C_11
REMARK    4  A    between atoms: C_17  and  C_18
REMARK    5  A    between atoms: C_18  and  N_21
REMARK                            x       y       z     vdW  Elec       q    Type
REMARK                         _______ _______ _______ _____ _____    ______ ____
ROOT
ATOM      1  N   UNL     1      32.001 -11.320 -21.453  0.00  0.00    +0.388 N 
ATOM      2  C   UNL     1      31.658  -8.415 -21.188  0.00  0.00    +0.058 C 
ATOM      3  C   UNL     1      31.614  -9.127 -22.540  0.00  0.00    -0.015 C 
ATOM      4  C   UNL     1      31.398  -9.384 -20.036  0.00  0.00    -0.015 C 
ATOM      5  C   UNL     1      32.410 -10.436 -22.552  0.00  0.00    -0.077 C 
ATOM      6  C   UNL     1      32.216 -10.674 -20.153  0.00  0.00    -0.077 C 
ATOM      7  H   UNL     1      31.004 -11.510 -21.552  0.00  0.00    -0.080 HD
ENDROOT
BRANCH   2   9
ATOM      8  O   UNL     1      33.515  -7.694 -19.888  0.00  0.00    -0.291 OA
ATOM      9  C   UNL     1      32.969  -7.710 -20.988  0.00  0.00    +0.172 C 
BRANCH   9  11
ATOM     10  F   UNL     1      35.353  -5.141 -25.335  0.00  0.00    -0.204 F 
ATOM     11  C   UNL     1      33.606  -7.024 -22.148  0.00  0.00    +0.035 C 
ATOM     12  C   UNL     1      34.753  -7.562 -22.687  0.00  0.00    +0.005 C 
ATOM     13  C   UNL     1      33.021  -5.878 -22.640  0.00  0.00    +0.005 C 
ATOM     14  C   UNL     1      35.348  -6.920 -23.772  0.00  0.00    +0.030 C 
ATOM     15  C   UNL     1      33.617  -5.236 -23.726  0.00  0.00    +0.030 C 
ATOM     16  C   UNL     1      34.780  -5.756 -24.292  0.00  0.00    +0.140 C 
ENDBRANCH   9  11
ENDBRANCH   2   9
BRANCH   1  17
ATOM     17  C   UNL     1      32.729 -12.588 -21.520  0.00  0.00    -0.052 C 
BRANCH  17  18
ATOM     18  C   UNL     1      33.750 -12.552 -22.647  0.00  0.00    +0.091 C 
BRANCH  18  21
ATOM     19  O   UNL     1      34.927 -14.388 -20.935  0.00  0.00    -0.267 OA
ATOM     20  O   UNL     1      33.319 -13.538 -25.242  0.00  0.00    -0.246 OA
ATOM     21  N   UNL     1      34.109 -13.879 -23.066  0.00  0.00    -0.251 N 
ATOM     22  N   UNL     1      34.219 -15.568 -24.744  0.00  0.00    -0.306 N 
ATOM     23  C   UNL     1      34.707 -14.723 -22.097  0.00  0.00    +0.265 A 
ATOM     24  C   UNL     1      33.847 -14.277 -24.406  0.00  0.00    +0.330 A 
ATOM     25  C   UNL     1      35.073 -16.083 -22.540  0.00  0.00    +0.072 A 
ATOM     26  C   UNL     1      34.817 -16.463 -23.854  0.00  0.00    +0.065 A 
ATOM     27  C   UNL     1      35.672 -16.984 -21.654  0.00  0.00    +0.006 C 
ATOM     28  C   UNL     1      35.158 -17.746 -24.292  0.00  0.00    +0.017 C 
ATOM     29  C   UNL     1      36.012 -18.265 -22.092  0.00  0.00    +0.000 C 
ATOM     30  C   UNL     1      35.754 -18.645 -23.409  0.00  0.00    +0.001 C 
ATOM     31  H   UNL     1      34.052 -15.872 -25.665  0.00  0.00    +0.170 HD
ENDBRANCH  18  21
ENDBRANCH  17  18
ENDBRANCH   1  17
TORSDOF 5
ENDMDL
MODEL 5
REMARK VINA RESULT:     -10.9      4.604      6.908
REMARK  Name = 3822
REMARK  5 active torsions:
REMARK  status: ('A' for Active; 'I' for Inactive)
REMARK    1  A    between atoms: N_1  and  C_17
REMARK    2  A    between atoms: C_2  and  C_9
REMARK    3  A    between atoms: C_9  and  C_11
REMARK    4  A    between atoms: C_17  and  C_18
REMARK    5  A    between atoms: C_18  and  N_21
REMARK                            x       y       z     vdW  Elec       q    Type
REMARK                         _______ _______ _______ _____ _____    ______ ____
ROOT
ATOM      1  N   UNL     1      33.325 -23.107 -14.175  0.00  0.00    +0.388 N 
ATOM      2  C   UNL     1      30.684 -24.219 -13.535  0.00  0.00    +0.058 C 
ATOM      3  C   UNL     1      31.978 -25.005 -13.327  0.00  0.00    -0.015 C 
ATOM      4  C   UNL     1      30.948 -22.716 -13.614  0.00  0.00    -0.015 C 
ATOM      5  C   UNL     1      33.106 -24.557 -14.260  0.00  0.00    -0.077 C 
ATOM      6  C   UNL     1      32.112 -22.370 -14.547  0.00  0.00    -0.077 C 
ATOM      7  H   UNL     1      33.552 -22.876 -13.207  0.00  0.00    -0.080 HD
ENDROOT
BRANCH   2   9
ATOM      8  O   UNL     1      30.171 -25.796 -15.239  0.00  0.00    -0.291 OA
ATOM      9  C   UNL     1      29.957 -24.685 -14.763  0.00  0.00    +0.172 C 
BRANCH   9  11
ATOM     10  F   UNL     1      26.234 -21.283 -17.162  0.00  0.00    -0.204 F 
ATOM     11  C   UNL     1      28.964 -23.777 -15.404  0.00  0.00    +0.035 C 
ATOM     12  C   UNL     1      28.781 -23.851 -16.767  0.00  0.00    +0.005 C 
ATOM     13  C   UNL     1      28.263 -22.897 -14.608  0.00  0.00    +0.005 C 
ATOM     14  C   UNL     1      27.852 -23.001 -17.366  0.00  0.00    +0.030 C 
ATOM     15  C   UNL     1      27.333 -22.047 -15.207  0.00  0.00    +0.030 C 
ATOM     16  C   UNL     1      27.127 -22.099 -16.586  0.00  0.00    +0.140 C 
ENDBRANCH   9  11
ENDBRANCH   2   9
BRANCH   1  17
ATOM     17  C   UNL     1      34.447 -22.709 -15.027  0.00  0.00    -0.052 C 
BRANCH  17  18
ATOM     18  C   UNL     1      34.418 -23.485 -16.335  0.00  0.00    +0.091 C 
BRANCH  18  21
ATOM     19  O   UNL     1      36.570 -22.254 -17.575  0.00  0.00    -0.267 OA
ATOM     20  O   UNL     1      31.935 -22.864 -17.492  0.00  0.00    -0.246 OA
ATOM     21  N   UNL     1      34.261 -22.605 -17.460  0.00  0.00    -0.251 N 
ATOM     22  N   UNL     1      32.875 -21.498 -19.052  0.00  0.00    -0.306 N 
ATOM     23  C   UNL     1      35.439 -22.035 -18.004  0.00  0.00    +0.265 A 
ATOM     24  C   UNL     1      32.956 -22.358 -17.968  0.00  0.00    +0.330 A 
ATOM     25  C   UNL     1      35.265 -21.131 -19.158  0.00  0.00    +0.072 A 
ATOM     26  C   UNL     1      33.984 -20.890 -19.646  0.00  0.00    +0.065 A 
ATOM     27  C   UNL     1      36.369 -20.520 -19.758  0.00  0.00    +0.006 C 
ATOM     28  C   UNL     1      33.798 -20.037 -20.737  0.00  0.00    +0.017 C 
ATOM     29  C   UNL     1      36.183 -19.667 -20.847  0.00  0.00    +0.000 C 
ATOM     30  C   UNL     1      34.900 -19.427 -21.336  0.00  0.00    +0.001 C 
ATOM     31  H   UNL     1      31.985 -21.306 -19.425  0.00  0.00    +0.170 HD
ENDBRANCH  18  21
ENDBRANCH  17  18
ENDBRANCH   1  17
TORSDOF 5
ENDMDL
MODEL 6
REMARK VINA RESULT:     -10.8      8.504     12.366
REMARK  Name = 3822
REMARK  5 active torsions:
REMARK  status: ('A' for Active; 'I' for Inactive)
REMARK    1  A    between atoms: N_1  and  C_17
REMARK    2  A    between atoms: C_2  and  C_9
REMARK    3  A    between atoms: C_9  and  C_11
REMARK    4  A    between atoms: C_17  and  C_18
REMARK    5  A    between atoms: C_18  and  N_21
REMARK                            x       y       z     vdW  Elec       q    Type
REMARK                         _______ _______ _______ _____ _____    ______ ____
ROOT
ATOM      1  N   UNL     1      34.738 -14.734 -22.463  0.00  0.00    +0.388 N 
ATOM      2  C   UNL     1      35.691 -17.425 -23.156  0.00  0.00    +0.058 C 
ATOM      3  C   UNL     1      35.309 -16.391 -24.215  0.00  0.00    -0.015 C 
ATOM      4  C   UNL     1      35.993 -16.764 -21.812  0.00  0.00    -0.015 C 
ATOM      5  C   UNL     1      34.288 -15.367 -23.710  0.00  0.00    -0.077 C 
ATOM      6  C   UNL     1      34.933 -15.735 -21.408  0.00  0.00    -0.077 C 
ATOM      7  H   UNL     1      35.635 -14.282 -22.642  0.00  0.00    -0.080 HD
ENDROOT
BRANCH   2   9
ATOM      8  O   UNL     1      33.738 -18.595 -23.845  0.00  0.00    -0.291 OA
ATOM      9  C   UNL     1      34.616 -18.460 -22.996  0.00  0.00    +0.172 C 
BRANCH   9  11
ATOM     10  F   UNL     1      34.651 -21.727 -18.467  0.00  0.00    -0.204 F 
ATOM     11  C   UNL     1      34.625 -19.332 -21.787  0.00  0.00    +0.035 C 
ATOM     12  C   UNL     1      33.424 -19.661 -21.199  0.00  0.00    +0.005 C 
ATOM     13  C   UNL     1      35.835 -19.778 -21.303  0.00  0.00    +0.005 C 
ATOM     14  C   UNL     1      33.433 -20.477 -20.068  0.00  0.00    +0.030 C 
ATOM     15  C   UNL     1      35.844 -20.594 -20.172  0.00  0.00    +0.030 C 
ATOM     16  C   UNL     1      34.643 -20.943 -19.554  0.00  0.00    +0.140 C 
ENDBRANCH   9  11
ENDBRANCH   2   9
BRANCH   1  17
ATOM     17  C   UNL     1      33.778 -13.717 -22.032  0.00  0.00    -0.052 C 
BRANCH  17  18
ATOM     18  C   UNL     1      33.203 -12.989 -23.237  0.00  0.00    +0.091 C 
BRANCH  18  21
ATOM     19  O   UNL     1      35.019 -11.381 -24.579  0.00  0.00    -0.267 OA
ATOM     20  O   UNL     1      31.482 -11.572 -21.528  0.00  0.00    -0.246 OA
ATOM     21  N   UNL     1      33.254 -11.563 -23.057  0.00  0.00    -0.251 N 
ATOM     22  N   UNL     1      32.438  -9.570 -22.037  0.00  0.00    -0.306 N 
ATOM     23  C   UNL     1      34.229 -10.853 -23.800  0.00  0.00    +0.265 A 
ATOM     24  C   UNL     1      32.334 -10.946 -22.165  0.00  0.00    +0.330 A 
ATOM     25  C   UNL     1      34.272  -9.390 -23.605  0.00  0.00    +0.072 A 
ATOM     26  C   UNL     1      33.373  -8.793 -22.727  0.00  0.00    +0.065 A 
ATOM     27  C   UNL     1      35.205  -8.607 -24.292  0.00  0.00    +0.006 C 
ATOM     28  C   UNL     1      33.398  -7.410 -22.528  0.00  0.00    +0.017 C 
ATOM     29  C   UNL     1      35.230  -7.225 -24.093  0.00  0.00    +0.000 C 
ATOM     30  C   UNL     1      34.327  -6.628 -23.213  0.00  0.00    +0.001 C 
ATOM     31  H   UNL     1      31.816  -9.114 -21.426  0.00  0.00    +0.170 HD
ENDBRANCH  18  21
ENDBRANCH  17  18
ENDBRANCH   1  17
TORSDOF 5
ENDMDL
MODEL 7
REMARK VINA RESULT:     -10.7      8.271     12.169
REMARK  Name = 3822
REMARK  5 active torsions:
REMARK  status: ('A' for Active; 'I' for Inactive)
REMARK    1  A    between atoms: N_1  and  C_17
REMARK    2  A    between atoms: C_2  and  C_9
REMARK    3  A    between atoms: C_9  and  C_11
REMARK    4  A    between atoms: C_17  and  C_18
REMARK    5  A    between atoms: C_18  and  N_21
REMARK                            x       y       z     vdW  Elec       q    Type
REMARK                         _______ _______ _______ _____ _____    ______ ____
ROOT
ATOM      1  N   UNL     1      34.939 -14.907 -22.130  0.00  0.00    +0.388 N 
ATOM      2  C   UNL     1      35.763 -17.614 -22.919  0.00  0.00    +0.058 C 
ATOM      3  C   UNL     1      35.443 -16.523 -23.940  0.00  0.00    -0.015 C 
ATOM      4  C   UNL     1      36.087 -17.021 -21.549  0.00  0.00    -0.015 C 
ATOM      5  C   UNL     1      34.470 -15.469 -23.403  0.00  0.00    -0.077 C 
ATOM      6  C   UNL     1      35.076 -15.956 -21.113  0.00  0.00    -0.077 C 
ATOM      7  H   UNL     1      35.859 -14.495 -22.285  0.00  0.00    -0.080 HD
ENDROOT
BRANCH   2   9
ATOM      8  O   UNL     1      33.786 -18.689 -23.687  0.00  0.00    -0.291 OA
ATOM      9  C   UNL     1      34.637 -18.600 -22.806  0.00  0.00    +0.172 C 
BRANCH   9  11
ATOM     10  F   UNL     1      34.358 -21.891 -18.304  0.00  0.00    -0.204 F 
ATOM     11  C   UNL     1      34.562 -19.478 -21.604  0.00  0.00    +0.035 C 
ATOM     12  C   UNL     1      33.327 -19.758 -21.065  0.00  0.00    +0.005 C 
ATOM     13  C   UNL     1      35.733 -19.978 -21.077  0.00  0.00    +0.005 C 
ATOM     14  C   UNL     1      33.257 -20.580 -19.940  0.00  0.00    +0.030 C 
ATOM     15  C   UNL     1      35.663 -20.800 -19.953  0.00  0.00    +0.030 C 
ATOM     16  C   UNL     1      34.425 -21.101 -19.384  0.00  0.00    +0.140 C 
ENDBRANCH   9  11
ENDBRANCH   2   9
BRANCH   1  17
ATOM     17  C   UNL     1      34.028 -13.861 -21.666  0.00  0.00    -0.052 C 
BRANCH  17  18
ATOM     18  C   UNL     1      33.145 -13.384 -22.810  0.00  0.00    +0.091 C 
BRANCH  18  21
ATOM     19  O   UNL     1      31.746 -11.644 -21.166  0.00  0.00    -0.267 OA
ATOM     20  O   UNL     1      34.704 -12.095 -24.758  0.00  0.00    -0.246 OA
ATOM     21  N   UNL     1      33.214 -11.956 -22.959  0.00  0.00    -0.251 N 
ATOM     22  N   UNL     1      34.056 -10.024 -24.072  0.00  0.00    -0.306 N 
ATOM     23  C   UNL     1      32.450 -11.174 -22.057  0.00  0.00    +0.265 A 
ATOM     24  C   UNL     1      34.036 -11.407 -23.982  0.00  0.00    +0.330 A 
ATOM     25  C   UNL     1      32.527  -9.709 -22.223  0.00  0.00    +0.072 A 
ATOM     26  C   UNL     1      33.330  -9.179 -23.228  0.00  0.00    +0.065 A 
ATOM     27  C   UNL     1      31.805  -8.857 -21.382  0.00  0.00    +0.006 C 
ATOM     28  C   UNL     1      33.416  -7.795 -23.402  0.00  0.00    +0.017 C 
ATOM     29  C   UNL     1      31.890  -7.475 -21.555  0.00  0.00    +0.000 C 
ATOM     30  C   UNL     1      32.696  -6.945 -22.563  0.00  0.00    +0.001 C 
ATOM     31  H   UNL     1      34.614  -9.614 -24.771  0.00  0.00    +0.170 HD
ENDBRANCH  18  21
ENDBRANCH  17  18
ENDBRANCH   1  17
TORSDOF 5
ENDMDL
MODEL 8
REMARK VINA RESULT:     -10.7      6.801     10.679
REMARK  Name = 3822
REMARK  5 active torsions:
REMARK  status: ('A' for Active; 'I' for Inactive)
REMARK    1  A    between atoms: N_1  and  C_17
REMARK    2  A    between atoms: C_2  and  C_9
REMARK    3  A    between atoms: C_9  and  C_11
REMARK    4  A    between atoms: C_17  and  C_18
REMARK    5  A    between atoms: C_18  and  N_21
REMARK                            x       y       z     vdW  Elec       q    Type
REMARK                         _______ _______ _______ _____ _____    ______ ____
ROOT
ATOM      1  N   UNL     1      35.122 -16.859 -23.841  0.00  0.00    +0.388 N 
ATOM      2  C   UNL     1      35.578 -19.437 -22.511  0.00  0.00    +0.058 C 
ATOM      3  C   UNL     1      34.982 -19.332 -23.914  0.00  0.00    -0.015 C 
ATOM      4  C   UNL     1      36.334 -18.166 -22.126  0.00  0.00    -0.015 C 
ATOM      5  C   UNL     1      34.258 -18.005 -24.158  0.00  0.00    -0.077 C 
ATOM      6  C   UNL     1      35.543 -16.892 -22.436  0.00  0.00    -0.077 C 
ATOM      7  H   UNL     1      35.957 -16.920 -24.424  0.00  0.00    -0.080 HD
ENDROOT
BRANCH   2   9
ATOM      8  O   UNL     1      33.361 -19.362 -21.654  0.00  0.00    -0.291 OA
ATOM      9  C   UNL     1      34.518 -19.740 -21.491  0.00  0.00    +0.172 C 
BRANCH   9  11
ATOM     10  F   UNL     1      35.900 -22.623 -16.914  0.00  0.00    -0.204 F 
ATOM     11  C   UNL     1      34.888 -20.510 -20.270  0.00  0.00    +0.035 C 
ATOM     12  C   UNL     1      36.209 -20.544 -19.883  0.00  0.00    +0.005 C 
ATOM     13  C   UNL     1      33.893 -21.157 -19.571  0.00  0.00    +0.005 C 
ATOM     14  C   UNL     1      36.554 -21.264 -18.740  0.00  0.00    +0.030 C 
ATOM     15  C   UNL     1      34.238 -21.878 -18.428  0.00  0.00    +0.030 C 
ATOM     16  C   UNL     1      35.568 -21.932 -18.012  0.00  0.00    +0.140 C 
ENDBRANCH   9  11
ENDBRANCH   2   9
BRANCH   1  17
ATOM     17  C   UNL     1      34.433 -15.603 -24.139  0.00  0.00    -0.052 C 
BRANCH  17  18
ATOM     18  C   UNL     1      35.218 -14.425 -23.582  0.00  0.00    +0.091 C 
BRANCH  18  21
ATOM     19  O   UNL     1      34.145 -14.271 -21.030  0.00  0.00    -0.267 OA
ATOM     20  O   UNL     1      34.448 -12.312 -25.265  0.00  0.00    -0.246 OA
ATOM     21  N   UNL     1      34.342 -13.361 -23.175  0.00  0.00    -0.251 N 
ATOM     22  N   UNL     1      33.165 -11.344 -23.653  0.00  0.00    -0.306 N 
ATOM     23  C   UNL     1      33.857 -13.395 -21.844  0.00  0.00    +0.265 A 
ATOM     24  C   UNL     1      34.015 -12.339 -24.109  0.00  0.00    +0.330 A 
ATOM     25  C   UNL     1      32.957 -12.298 -21.439  0.00  0.00    +0.072 A 
ATOM     26  C   UNL     1      32.638 -11.304 -22.359  0.00  0.00    +0.065 A 
ATOM     27  C   UNL     1      32.427 -12.251 -20.146  0.00  0.00    +0.006 C 
ATOM     28  C   UNL     1      31.787 -10.257 -21.995  0.00  0.00    +0.017 C 
ATOM     29  C   UNL     1      31.576 -11.205 -19.783  0.00  0.00    +0.000 C 
ATOM     30  C   UNL     1      31.258 -10.210 -20.706  0.00  0.00    +0.001 C 
ATOM     31  H   UNL     1      32.919 -10.623 -24.277  0.00  0.00    +0.170 HD
ENDBRANCH  18  21
ENDBRANCH  17  18
ENDBRANCH   1  17
TORSDOF 5
ENDMDL
MODEL 9
REMARK VINA RESULT:     -10.6      7.394     11.225
REMARK  Name = 3822
REMARK  5 active torsions:
REMARK  status: ('A' for Active; 'I' for Inactive)
REMARK    1  A    between atoms: N_1  and  C_17
REMARK    2  A    between atoms: C_2  and  C_9
REMARK    3  A    between atoms: C_9  and  C_11
REMARK    4  A    between atoms: C_17  and  C_18
REMARK    5  A    between atoms: C_18  and  N_21
REMARK                            x       y       z     vdW  Elec       q    Type
REMARK                         _______ _______ _______ _____ _____    ______ ____
ROOT
ATOM      1  N   UNL     1      34.980 -16.270 -23.745  0.00  0.00    +0.388 N 
ATOM      2  C   UNL     1      35.592 -18.979 -22.790  0.00  0.00    +0.058 C 
ATOM      3  C   UNL     1      35.008 -18.709 -24.177  0.00  0.00    -0.015 C 
ATOM      4  C   UNL     1      36.256 -17.731 -22.210  0.00  0.00    -0.015 C 
ATOM      5  C   UNL     1      34.200 -17.410 -24.242  0.00  0.00    -0.077 C 
ATOM      6  C   UNL     1      35.385 -16.480 -22.350  0.00  0.00    -0.077 C 
ATOM      7  H   UNL     1      35.825 -16.191 -24.312  0.00  0.00    -0.080 HD
ENDROOT
BRANCH   2   9
ATOM      8  O   UNL     1      33.349 -19.303 -22.070  0.00  0.00    -0.291 OA
ATOM      9  C   UNL     1      34.542 -19.495 -21.849  0.00  0.00    +0.172 C 
BRANCH   9  11
ATOM     10  F   UNL     1      36.131 -22.317 -17.301  0.00  0.00    -0.204 F 
ATOM     11  C   UNL     1      34.966 -20.248 -20.635  0.00  0.00    +0.035 C 
ATOM     12  C   UNL     1      34.007 -20.899 -19.893  0.00  0.00    +0.005 C 
ATOM     13  C   UNL     1      36.302 -20.265 -20.301  0.00  0.00    +0.005 C 
ATOM     14  C   UNL     1      34.404 -21.605 -18.756  0.00  0.00    +0.030 C 
ATOM     15  C   UNL     1      36.699 -20.970 -19.165  0.00  0.00    +0.030 C 
ATOM     16  C   UNL     1      35.750 -21.640 -18.392  0.00  0.00    +0.140 C 
ENDBRANCH   9  11
ENDBRANCH   2   9
BRANCH   1  17
ATOM     17  C   UNL     1      34.212 -15.030 -23.873  0.00  0.00    -0.052 C 
BRANCH  17  18
ATOM     18  C   UNL     1      34.970 -13.872 -23.242  0.00  0.00    +0.091 C 
BRANCH  18  21
ATOM     19  O   UNL     1      34.822 -11.466 -24.611  0.00  0.00    -0.267 OA
ATOM     20  O   UNL     1      33.209 -14.045 -21.061  0.00  0.00    -0.246 OA
ATOM     21  N   UNL     1      34.076 -12.816 -22.853  0.00  0.00    -0.251 N 
ATOM     22  N   UNL     1      32.390 -11.950 -21.409  0.00  0.00    -0.306 N 
ATOM     23  C   UNL     1      34.096 -11.632 -23.633  0.00  0.00    +0.265 A 
ATOM     24  C   UNL     1      33.225 -13.008 -21.730  0.00  0.00    +0.330 A 
ATOM     25  C   UNL     1      33.174 -10.554 -23.223  0.00  0.00    +0.072 A 
ATOM     26  C   UNL     1      32.348 -10.748 -22.120  0.00  0.00    +0.065 A 
ATOM     27  C   UNL     1      33.127  -9.349 -23.930  0.00  0.00    +0.006 C 
ATOM     28  C   UNL     1      31.470  -9.739 -21.715  0.00  0.00    +0.017 C 
ATOM     29  C   UNL     1      32.250  -8.341 -23.525  0.00  0.00    +0.000 C 
ATOM     30  C   UNL     1      31.422  -8.537 -22.420  0.00  0.00    +0.001 C 
ATOM     31  H   UNL     1      31.790 -12.053 -20.635  0.00  0.00    +0.170 HD
ENDBRANCH  18  21
ENDBRANCH  17  18
ENDBRANCH   1  17
TORSDOF 5
ENDMDL
