MODEL 1
REMARK VINA RESULT:     -11.6      0.000      0.000
REMARK  Name = 6420159
REMARK  9 active torsions:
REMARK  status: ('A' for Active; 'I' for Inactive)
REMARK    1  A    between atoms: C_1  and  N_3
REMARK    2  A    between atoms: C_1  and  C_15
REMARK    3  A    between atoms: C_1  and  C_29
REMARK    4  A    between atoms: N_14  and  C_17
REMARK    5  A    between atoms: C_17  and  C_18
REMARK    6  A    between atoms: C_18  and  N_19
REMARK    7  A    between atoms: N_19  and  C_21
REMARK    8  A    between atoms: C_26  and  O_27
REMARK    9  A    between atoms: C_29  and  C_30
REMARK                            x       y       z     vdW  Elec       q    Type
REMARK                         _______ _______ _______ _____ _____    ______ ____
ROOT
ATOM      1  C   UNL     1      33.387 -23.162 -16.947  0.00  0.00    +0.151 C 
ENDROOT
BRANCH   1   3
ATOM      2  O   UNL     1      35.931 -22.915 -14.318  0.00  0.00    -0.414 OA
ATOM      3  N   UNL     1      34.269 -22.713 -15.890  0.00  0.00    -0.271 N 
ATOM      4  N   UNL     1      35.461 -24.771 -15.532  0.00  0.00    -0.356 NA
ATOM      5  C   UNL     1      35.209 -23.525 -15.281  0.00  0.00    +0.345 C 
ATOM      6  C   UNL     1      36.761 -23.914 -13.896  0.00  0.00    +0.175 C 
ATOM      7  C   UNL     1      36.470 -25.048 -14.640  0.00  0.00    +0.152 C 
ATOM      8  C   UNL     1      37.731 -23.846 -12.904  0.00  0.00    +0.040 C 
ATOM      9  C   UNL     1      37.194 -26.224 -14.395  0.00  0.00    +0.088 C 
ATOM     10  C   UNL     1      38.444 -25.027 -12.671  0.00  0.00    -0.001 C 
ATOM     11  C   UNL     1      38.182 -26.194 -13.400  0.00  0.00    -0.018 C 
ATOM     12  H   UNL     1      34.194 -21.779 -15.587  0.00  0.00    +0.153 HD
ENDBRANCH   1   3
BRANCH   1  15
ATOM     13  O   UNL     1      33.930 -23.682 -19.249  0.00  0.00    -0.273 OA
ATOM     14  N   UNL     1      34.887 -21.808 -18.275  0.00  0.00    -0.301 N 
ATOM     15  C   UNL     1      34.078 -22.934 -18.285  0.00  0.00    +0.240 C 
ATOM     16  H   UNL     1      34.943 -21.267 -17.455  0.00  0.00    +0.150 HD
BRANCH  14  17
ATOM     17  C   UNL     1      35.650 -21.402 -19.431  0.00  0.00    +0.111 C 
BRANCH  17  18
ATOM     18  C   UNL     1      34.867 -20.464 -20.337  0.00  0.00    +0.109 C 
BRANCH  18  19
ATOM     19  N   UNL     1      35.693 -19.352 -20.745  0.00  0.00    -0.331 N 
ATOM     20  H   UNL     1      36.493 -19.146 -20.209  0.00  0.00    +0.147 HD
BRANCH  19  21
ATOM     21  C   UNL     1      35.424 -18.559 -21.849  0.00  0.00    +0.045 C 
ATOM     22  C   UNL     1      34.903 -19.118 -23.031  0.00  0.00    +0.017 C 
ATOM     23  C   UNL     1      35.666 -17.173 -21.819  0.00  0.00    +0.017 C 
ATOM     24  C   UNL     1      34.634 -18.320 -24.143  0.00  0.00    +0.038 C 
ATOM     25  C   UNL     1      35.397 -16.375 -22.931  0.00  0.00    +0.038 C 
ATOM     26  C   UNL     1      34.881 -16.948 -24.092  0.00  0.00    +0.139 C 
BRANCH  26  27
ATOM     27  O   UNL     1      34.617 -16.168 -25.176  0.00  0.00    -0.471 OA
ATOM     28  C   UNL     1      33.835 -14.995 -24.958  0.00  0.00    +0.252 C 
ENDBRANCH  26  27
ENDBRANCH  19  21
ENDBRANCH  18  19
ENDBRANCH  17  18
ENDBRANCH  14  17
ENDBRANCH   1  15
BRANCH   1  29
ATOM     29  C   UNL     1      32.065 -22.393 -16.900  0.00  0.00    +0.029 C 
BRANCH  29  30
ATOM     30  C   UNL     1      31.132 -22.902 -15.804  0.00  0.00    +0.002 C 
ATOM     31  C   UNL     1      31.543 -24.308 -15.350  0.00  0.00    +0.000 C 
ATOM     32  C   UNL     1      29.674 -22.888 -16.284  0.00  0.00    +0.000 C 
ATOM     33  C   UNL     1      30.592 -24.860 -14.291  0.00  0.00    +0.000 C 
ATOM     34  C   UNL     1      28.726 -23.443 -15.224  0.00  0.00    +0.000 C 
ATOM     35  C   UNL     1      29.144 -24.837 -14.769  0.00  0.00    +0.000 C 
ENDBRANCH  29  30
ENDBRANCH   1  29
TORSDOF 9
ENDMDL
MODEL 2
REMARK VINA RESULT:     -10.8      1.432      5.060
REMARK  Name = 6420159
REMARK  9 active torsions:
REMARK  status: ('A' for Active; 'I' for Inactive)
REMARK    1  A    between atoms: C_1  and  N_3
REMARK    2  A    between atoms: C_1  and  C_15
REMARK    3  A    between atoms: C_1  and  C_29
REMARK    4  A    between atoms: N_14  and  C_17
REMARK    5  A    between atoms: C_17  and  C_18
REMARK    6  A    between atoms: C_18  and  N_19
REMARK    7  A    between atoms: N_19  and  C_21
REMARK    8  A    between atoms: C_26  and  O_27
REMARK    9  A    between atoms: C_29  and  C_30
REMARK                            x       y       z     vdW  Elec       q    Type
REMARK                         _______ _______ _______ _____ _____    ______ ____
ROOT
ATOM      1  C   UNL     1      35.859 -22.417 -15.894  0.00  0.00    +0.151 C 
ENDROOT
BRANCH   1   3
ATOM      2  O   UNL     1      32.357 -23.357 -16.440  0.00  0.00    -0.414 OA
ATOM      3  N   UNL     1      34.543 -22.654 -16.451  0.00  0.00    -0.271 N 
ATOM      4  N   UNL     1      33.511 -23.625 -14.507  0.00  0.00    -0.356 NA
ATOM      5  C   UNL     1      33.502 -23.221 -15.738  0.00  0.00    +0.345 C 
ATOM      6  C   UNL     1      31.518 -23.926 -15.525  0.00  0.00    +0.175 C 
ATOM      7  C   UNL     1      32.227 -24.088 -14.343  0.00  0.00    +0.152 C 
ATOM      8  C   UNL     1      30.190 -24.291 -15.706  0.00  0.00    +0.040 C 
ATOM      9  C   UNL     1      31.581 -24.659 -13.238  0.00  0.00    +0.088 C 
ATOM     10  C   UNL     1      29.559 -24.858 -14.594  0.00  0.00    -0.001 C 
ATOM     11  C   UNL     1      30.239 -25.039 -13.383  0.00  0.00    -0.018 C 
ATOM     12  H   UNL     1      34.382 -22.398 -17.387  0.00  0.00    +0.153 HD
ENDBRANCH   1   3
BRANCH   1  15
ATOM     13  O   UNL     1      37.729 -21.067 -16.632  0.00  0.00    -0.273 OA
ATOM     14  N   UNL     1      36.138 -21.711 -18.190  0.00  0.00    -0.301 N 
ATOM     15  C   UNL     1      36.692 -21.660 -16.920  0.00  0.00    +0.240 C 
ATOM     16  H   UNL     1      35.301 -22.212 -18.326  0.00  0.00    +0.150 HD
BRANCH  14  17
ATOM     17  C   UNL     1      36.749 -21.054 -19.320  0.00  0.00    +0.111 C 
BRANCH  17  18
ATOM     18  C   UNL     1      35.719 -20.451 -20.262  0.00  0.00    +0.109 C 
BRANCH  18  19
ATOM     19  N   UNL     1      36.093 -19.104 -20.621  0.00  0.00    -0.331 N 
ATOM     20  H   UNL     1      36.693 -18.611 -20.016  0.00  0.00    +0.147 HD
BRANCH  19  21
ATOM     21  C   UNL     1      35.654 -18.464 -21.770  0.00  0.00    +0.045 C 
ATOM     22  C   UNL     1      35.704 -17.062 -21.879  0.00  0.00    +0.017 C 
ATOM     23  C   UNL     1      35.146 -19.199 -22.857  0.00  0.00    +0.017 C 
ATOM     24  C   UNL     1      35.262 -16.418 -23.035  0.00  0.00    +0.038 C 
ATOM     25  C   UNL     1      34.703 -18.555 -24.012  0.00  0.00    +0.038 C 
ATOM     26  C   UNL     1      34.761 -17.164 -24.101  0.00  0.00    +0.139 C 
BRANCH  26  27
ATOM     27  O   UNL     1      34.330 -16.537 -25.229  0.00  0.00    -0.471 OA
ATOM     28  C   UNL     1      33.779 -15.230 -25.076  0.00  0.00    +0.252 C 
ENDBRANCH  26  27
ENDBRANCH  19  21
ENDBRANCH  18  19
ENDBRANCH  17  18
ENDBRANCH  14  17
ENDBRANCH   1  15
BRANCH   1  29
ATOM     29  C   UNL     1      36.535 -23.743 -15.544  0.00  0.00    +0.029 C 
BRANCH  29  30
ATOM     30  C   UNL     1      37.440 -23.633 -14.318  0.00  0.00    +0.002 C 
ATOM     31  C   UNL     1      38.028 -25.002 -13.953  0.00  0.00    +0.000 C 
ATOM     32  C   UNL     1      36.674 -23.034 -13.131  0.00  0.00    +0.000 C 
ATOM     33  C   UNL     1      38.895 -24.926 -12.698  0.00  0.00    +0.000 C 
ATOM     34  C   UNL     1      37.542 -22.962 -11.878  0.00  0.00    +0.000 C 
ATOM     35  C   UNL     1      38.132 -24.323 -11.523  0.00  0.00    +0.000 C 
ENDBRANCH  29  30
ENDBRANCH   1  29
TORSDOF 9
ENDMDL
MODEL 3
REMARK VINA RESULT:     -10.3      1.205      5.185
REMARK  Name = 6420159
REMARK  9 active torsions:
REMARK  status: ('A' for Active; 'I' for Inactive)
REMARK    1  A    between atoms: C_1  and  N_3
REMARK    2  A    between atoms: C_1  and  C_15
REMARK    3  A    between atoms: C_1  and  C_29
REMARK    4  A    between atoms: N_14  and  C_17
REMARK    5  A    between atoms: C_17  and  C_18
REMARK    6  A    between atoms: C_18  and  N_19
REMARK    7  A    between atoms: N_19  and  C_21
REMARK    8  A    between atoms: C_26  and  O_27
REMARK    9  A    between atoms: C_29  and  C_30
REMARK                            x       y       z     vdW  Elec       q    Type
REMARK                         _______ _______ _______ _____ _____    ______ ____
ROOT
ATOM      1  C   UNL     1      35.352 -22.314 -15.954  0.00  0.00    +0.151 C 
ENDROOT
BRANCH   1   3
ATOM      2  O   UNL     1      32.719 -24.621 -14.866  0.00  0.00    -0.414 OA
ATOM      3  N   UNL     1      34.604 -23.441 -15.439  0.00  0.00    -0.271 N 
ATOM      4  N   UNL     1      32.386 -22.563 -15.756  0.00  0.00    -0.356 NA
ATOM      5  C   UNL     1      33.222 -23.480 -15.381  0.00  0.00    +0.345 C 
ATOM      6  C   UNL     1      31.372 -24.400 -14.923  0.00  0.00    +0.175 C 
ATOM      7  C   UNL     1      31.173 -23.140 -15.468  0.00  0.00    +0.152 C 
ATOM      8  C   UNL     1      30.356 -25.257 -14.518  0.00  0.00    +0.040 C 
ATOM      9  C   UNL     1      29.861 -22.673 -15.633  0.00  0.00    +0.088 C 
ATOM     10  C   UNL     1      29.054 -24.776 -14.689  0.00  0.00    -0.001 C 
ATOM     11  C   UNL     1      28.809 -23.510 -15.236  0.00  0.00    -0.018 C 
ATOM     12  H   UNL     1      35.106 -24.222 -15.112  0.00  0.00    +0.153 HD
ENDBRANCH   1   3
BRANCH   1  15
ATOM     13  O   UNL     1      34.570 -23.092 -18.111  0.00  0.00    -0.273 OA
ATOM     14  N   UNL     1      36.317 -21.570 -18.043  0.00  0.00    -0.301 N 
ATOM     15  C   UNL     1      35.347 -22.382 -17.475  0.00  0.00    +0.240 C 
ATOM     16  H   UNL     1      36.896 -21.034 -17.453  0.00  0.00    +0.150 HD
BRANCH  14  17
ATOM     17  C   UNL     1      36.505 -21.483 -19.471  0.00  0.00    +0.111 C 
BRANCH  17  18
ATOM     18  C   UNL     1      36.569 -20.044 -19.957  0.00  0.00    +0.109 C 
BRANCH  18  19
ATOM     19  N   UNL     1      35.317 -19.660 -20.564  0.00  0.00    -0.331 N 
ATOM     20  H   UNL     1      34.484 -20.005 -20.167  0.00  0.00    +0.147 HD
BRANCH  19  21
ATOM     21  C   UNL     1      35.220 -18.835 -21.673  0.00  0.00    +0.045 C 
ATOM     22  C   UNL     1      34.698 -19.318 -22.888  0.00  0.00    +0.017 C 
ATOM     23  C   UNL     1      35.643 -17.495 -21.616  0.00  0.00    +0.017 C 
ATOM     24  C   UNL     1      34.601 -18.488 -24.005  0.00  0.00    +0.038 C 
ATOM     25  C   UNL     1      35.547 -16.665 -22.733  0.00  0.00    +0.038 C 
ATOM     26  C   UNL     1      35.026 -17.162 -23.927  0.00  0.00    +0.139 C 
BRANCH  26  27
ATOM     27  O   UNL     1      34.931 -16.351 -25.017  0.00  0.00    -0.471 OA
ATOM     28  C   UNL     1      34.037 -15.243 -24.927  0.00  0.00    +0.252 C 
ENDBRANCH  26  27
ENDBRANCH  19  21
ENDBRANCH  18  19
ENDBRANCH  17  18
ENDBRANCH  14  17
ENDBRANCH   1  15
BRANCH   1  29
ATOM     29  C   UNL     1      36.789 -22.345 -15.432  0.00  0.00    +0.029 C 
BRANCH  29  30
ATOM     30  C   UNL     1      37.024 -23.477 -14.434  0.00  0.00    +0.002 C 
ATOM     31  C   UNL     1      37.113 -22.930 -13.004  0.00  0.00    +0.000 C 
ATOM     32  C   UNL     1      38.290 -24.266 -14.796  0.00  0.00    +0.000 C 
ATOM     33  C   UNL     1      37.400 -24.038 -11.993  0.00  0.00    +0.000 C 
ATOM     34  C   UNL     1      38.576 -25.370 -13.782  0.00  0.00    +0.000 C 
ATOM     35  C   UNL     1      38.655 -24.823 -12.360  0.00  0.00    +0.000 C 
ENDBRANCH  29  30
ENDBRANCH   1  29
TORSDOF 9
ENDMDL
MODEL 4
REMARK VINA RESULT:     -10.2      4.739      9.317
REMARK  Name = 6420159
REMARK  9 active torsions:
REMARK  status: ('A' for Active; 'I' for Inactive)
REMARK    1  A    between atoms: C_1  and  N_3
REMARK    2  A    between atoms: C_1  and  C_15
REMARK    3  A    between atoms: C_1  and  C_29
REMARK    4  A    between atoms: N_14  and  C_17
REMARK    5  A    between atoms: C_17  and  C_18
REMARK    6  A    between atoms: C_18  and  N_19
REMARK    7  A    between atoms: N_19  and  C_21
REMARK    8  A    between atoms: C_26  and  O_27
REMARK    9  A    between atoms: C_29  and  C_30
REMARK                            x       y       z     vdW  Elec       q    Type
REMARK                         _______ _______ _______ _____ _____    ______ ____
ROOT
ATOM      1  C   UNL     1      34.401 -24.379 -13.531  0.00  0.00    +0.151 C 
ENDROOT
BRANCH   1   3
ATOM      2  O   UNL     1      31.501 -22.265 -14.279  0.00  0.00    -0.414 OA
ATOM      3  N   UNL     1      33.476 -23.276 -13.688  0.00  0.00    -0.271 N 
ATOM      4  N   UNL     1      31.639 -24.497 -14.651  0.00  0.00    -0.356 NA
ATOM      5  C   UNL     1      32.205 -23.414 -14.219  0.00  0.00    +0.345 C 
ATOM      6  C   UNL     1      30.318 -22.674 -14.826  0.00  0.00    +0.175 C 
ATOM      7  C   UNL     1      30.407 -24.040 -15.052  0.00  0.00    +0.152 C 
ATOM      8  C   UNL     1      29.206 -21.895 -15.119  0.00  0.00    +0.040 C 
ATOM      9  C   UNL     1      29.309 -24.707 -15.615  0.00  0.00    +0.088 C 
ATOM     10  C   UNL     1      28.120 -22.574 -15.679  0.00  0.00    -0.001 C 
ATOM     11  C   UNL     1      28.168 -23.953 -15.923  0.00  0.00    -0.018 C 
ATOM     12  H   UNL     1      33.767 -22.381 -13.402  0.00  0.00    +0.153 HD
ENDBRANCH   1   3
BRANCH   1  15
ATOM     13  O   UNL     1      35.053 -24.703 -11.221  0.00  0.00    -0.273 OA
ATOM     14  N   UNL     1      36.239 -23.184 -12.509  0.00  0.00    -0.301 N 
ATOM     15  C   UNL     1      35.248 -24.129 -12.291  0.00  0.00    +0.240 C 
ATOM     16  H   UNL     1      36.320 -22.776 -13.402  0.00  0.00    +0.150 HD
BRANCH  14  17
ATOM     17  C   UNL     1      37.155 -22.779 -11.471  0.00  0.00    +0.111 C 
BRANCH  17  18
ATOM     18  C   UNL     1      38.474 -23.533 -11.541  0.00  0.00    +0.109 C 
BRANCH  18  19
ATOM     19  N   UNL     1      38.253 -24.897 -11.957  0.00  0.00    -0.331 N 
ATOM     20  H   UNL     1      37.649 -25.456 -11.415  0.00  0.00    +0.147 HD
BRANCH  19  21
ATOM     21  C   UNL     1      38.844 -25.467 -13.074  0.00  0.00    +0.045 C 
ATOM     22  C   UNL     1      40.166 -25.147 -13.433  0.00  0.00    +0.017 C 
ATOM     23  C   UNL     1      38.136 -26.378 -13.879  0.00  0.00    +0.017 C 
ATOM     24  C   UNL     1      40.760 -25.719 -14.558  0.00  0.00    +0.038 C 
ATOM     25  C   UNL     1      38.730 -26.950 -15.004  0.00  0.00    +0.038 C 
ATOM     26  C   UNL     1      40.042 -26.620 -15.344  0.00  0.00    +0.139 C 
BRANCH  26  27
ATOM     27  O   UNL     1      40.621 -27.180 -16.441  0.00  0.00    -0.471 OA
ATOM     28  C   UNL     1      40.537 -28.598 -16.569  0.00  0.00    +0.252 C 
ENDBRANCH  26  27
ENDBRANCH  19  21
ENDBRANCH  18  19
ENDBRANCH  17  18
ENDBRANCH  14  17
ENDBRANCH   1  15
BRANCH   1  29
ATOM     29  C   UNL     1      35.299 -24.500 -14.764  0.00  0.00    +0.029 C 
BRANCH  29  30
ATOM     30  C   UNL     1      35.350 -23.209 -15.579  0.00  0.00    +0.002 C 
ATOM     31  C   UNL     1      34.576 -23.367 -16.894  0.00  0.00    +0.000 C 
ATOM     32  C   UNL     1      36.803 -22.794 -15.847  0.00  0.00    +0.000 C 
ATOM     33  C   UNL     1      34.657 -22.106 -17.751  0.00  0.00    +0.000 C 
ATOM     34  C   UNL     1      36.881 -21.535 -16.706  0.00  0.00    +0.000 C 
ATOM     35  C   UNL     1      36.103 -21.692 -18.008  0.00  0.00    +0.000 C 
ENDBRANCH  29  30
ENDBRANCH   1  29
TORSDOF 9
ENDMDL
MODEL 5
REMARK VINA RESULT:     -10.1      8.551     12.360
REMARK  Name = 6420159
REMARK  9 active torsions:
REMARK  status: ('A' for Active; 'I' for Inactive)
REMARK    1  A    between atoms: C_1  and  N_3
REMARK    2  A    between atoms: C_1  and  C_15
REMARK    3  A    between atoms: C_1  and  C_29
REMARK    4  A    between atoms: N_14  and  C_17
REMARK    5  A    between atoms: C_17  and  C_18
REMARK    6  A    between atoms: C_18  and  N_19
REMARK    7  A    between atoms: N_19  and  C_21
REMARK    8  A    between atoms: C_26  and  O_27
REMARK    9  A    between atoms: C_29  and  C_30
REMARK                            x       y       z     vdW  Elec       q    Type
REMARK                         _______ _______ _______ _____ _____    ______ ____
ROOT
ATOM      1  C   UNL     1      33.237 -13.186 -24.929  0.00  0.00    +0.151 C 
ENDROOT
BRANCH   1   3
ATOM      2  O   UNL     1      33.695 -16.805 -25.300  0.00  0.00    -0.414 OA
ATOM      3  N   UNL     1      33.186 -14.566 -25.364  0.00  0.00    -0.271 N 
ATOM      4  N   UNL     1      34.656 -15.508 -23.708  0.00  0.00    -0.356 NA
ATOM      5  C   UNL     1      33.877 -15.590 -24.741  0.00  0.00    +0.345 C 
ATOM      6  C   UNL     1      34.467 -17.610 -24.512  0.00  0.00    +0.175 C 
ATOM      7  C   UNL     1      35.054 -16.813 -23.539  0.00  0.00    +0.152 C 
ATOM      8  C   UNL     1      34.657 -18.981 -24.632  0.00  0.00    +0.040 C 
ATOM      9  C   UNL     1      35.902 -17.409 -22.596  0.00  0.00    +0.088 C 
ATOM     10  C   UNL     1      35.506 -19.560 -23.683  0.00  0.00    -0.001 C 
ATOM     11  C   UNL     1      36.118 -18.792 -22.685  0.00  0.00    -0.018 C 
ATOM     12  H   UNL     1      32.630 -14.788 -26.145  0.00  0.00    +0.153 HD
ENDBRANCH   1   3
BRANCH   1  15
ATOM     13  O   UNL     1      34.144 -12.677 -27.117  0.00  0.00    -0.273 OA
ATOM     14  N   UNL     1      34.758 -11.347 -25.320  0.00  0.00    -0.301 N 
ATOM     15  C   UNL     1      34.079 -12.395 -25.922  0.00  0.00    +0.240 C 
ATOM     16  H   UNL     1      34.643 -11.196 -24.354  0.00  0.00    +0.150 HD
BRANCH  14  17
ATOM     17  C   UNL     1      35.627 -10.468 -26.066  0.00  0.00    +0.111 C 
BRANCH  17  18
ATOM     18  C   UNL     1      36.134  -9.309 -25.222  0.00  0.00    +0.109 C 
BRANCH  18  19
ATOM     19  N   UNL     1      35.356  -9.188 -24.011  0.00  0.00    -0.331 N 
ATOM     20  H   UNL     1      35.319  -9.962 -23.404  0.00  0.00    +0.147 HD
BRANCH  19  21
ATOM     21  C   UNL     1      34.659  -8.045 -23.656  0.00  0.00    +0.045 C 
ATOM     22  C   UNL     1      35.051  -6.781 -24.136  0.00  0.00    +0.017 C 
ATOM     23  C   UNL     1      33.541  -8.116 -22.804  0.00  0.00    +0.017 C 
ATOM     24  C   UNL     1      34.350  -5.630 -23.776  0.00  0.00    +0.038 C 
ATOM     25  C   UNL     1      32.840  -6.965 -22.445  0.00  0.00    +0.038 C 
ATOM     26  C   UNL     1      33.244  -5.722 -22.931  0.00  0.00    +0.139 C 
BRANCH  26  27
ATOM     27  O   UNL     1      32.559  -4.599 -22.581  0.00  0.00    -0.471 OA
ATOM     28  C   UNL     1      31.385  -4.774 -21.790  0.00  0.00    +0.252 C 
ENDBRANCH  26  27
ENDBRANCH  19  21
ENDBRANCH  18  19
ENDBRANCH  17  18
ENDBRANCH  14  17
ENDBRANCH   1  15
BRANCH   1  29
ATOM     29  C   UNL     1      33.849 -13.091 -23.530  0.00  0.00    +0.029 C 
BRANCH  29  30
ATOM     30  C   UNL     1      32.803 -12.808 -22.454  0.00  0.00    +0.002 C 
ATOM     31  C   UNL     1      32.536 -11.301 -22.341  0.00  0.00    +0.000 C 
ATOM     32  C   UNL     1      33.245 -13.386 -21.103  0.00  0.00    +0.000 C 
ATOM     33  C   UNL     1      31.532 -10.988 -21.233  0.00  0.00    +0.000 C 
ATOM     34  C   UNL     1      32.241 -13.069 -19.998  0.00  0.00    +0.000 C 
ATOM     35  C   UNL     1      31.971 -11.572 -19.894  0.00  0.00    +0.000 C 
ENDBRANCH  29  30
ENDBRANCH   1  29
TORSDOF 9
ENDMDL
MODEL 6
REMARK VINA RESULT:     -10.0      1.664      2.779
REMARK  Name = 6420159
REMARK  9 active torsions:
REMARK  status: ('A' for Active; 'I' for Inactive)
REMARK    1  A    between atoms: C_1  and  N_3
REMARK    2  A    between atoms: C_1  and  C_15
REMARK    3  A    between atoms: C_1  and  C_29
REMARK    4  A    between atoms: N_14  and  C_17
REMARK    5  A    between atoms: C_17  and  C_18
REMARK    6  A    between atoms: C_18  and  N_19
REMARK    7  A    between atoms: N_19  and  C_21
REMARK    8  A    between atoms: C_26  and  O_27
REMARK    9  A    between atoms: C_29  and  C_30
REMARK                            x       y       z     vdW  Elec       q    Type
REMARK                         _______ _______ _______ _____ _____    ______ ____
ROOT
ATOM      1  C   UNL     1      34.385 -24.013 -14.785  0.00  0.00    +0.151 C 
ENDROOT
BRANCH   1   3
ATOM      2  O   UNL     1      37.786 -24.426 -13.481  0.00  0.00    -0.414 OA
ATOM      3  N   UNL     1      35.618 -23.910 -14.033  0.00  0.00    -0.271 N 
ATOM      4  N   UNL     1      36.888 -25.576 -15.217  0.00  0.00    -0.356 NA
ATOM      5  C   UNL     1      36.740 -24.675 -14.297  0.00  0.00    +0.345 C 
ATOM      6  C   UNL     1      38.734 -25.292 -13.948  0.00  0.00    +0.175 C 
ATOM      7  C   UNL     1      38.181 -25.993 -15.009  0.00  0.00    +0.152 C 
ATOM      8  C   UNL     1      40.027 -25.467 -13.472  0.00  0.00    +0.040 C 
ATOM      9  C   UNL     1      38.962 -26.954 -15.667  0.00  0.00    +0.088 C 
ATOM     10  C   UNL     1      40.794 -26.428 -14.139  0.00  0.00    -0.001 C 
ATOM     11  C   UNL     1      40.274 -27.159 -15.215  0.00  0.00    -0.018 C 
ATOM     12  H   UNL     1      35.659 -23.262 -13.295  0.00  0.00    +0.153 HD
ENDBRANCH   1   3
BRANCH   1  15
ATOM     13  O   UNL     1      35.240 -22.088 -15.980  0.00  0.00    -0.273 OA
ATOM     14  N   UNL     1      33.449 -23.252 -16.881  0.00  0.00    -0.301 N 
ATOM     15  C   UNL     1      34.428 -23.010 -15.930  0.00  0.00    +0.240 C 
ATOM     16  H   UNL     1      32.841 -24.016 -16.756  0.00  0.00    +0.150 HD
BRANCH  14  17
ATOM     17  C   UNL     1      33.292 -22.420 -18.050  0.00  0.00    +0.111 C 
BRANCH  17  18
ATOM     18  C   UNL     1      34.374 -22.675 -19.087  0.00  0.00    +0.109 C 
BRANCH  18  19
ATOM     19  N   UNL     1      35.454 -21.729 -18.933  0.00  0.00    -0.331 N 
ATOM     20  H   UNL     1      36.053 -21.829 -18.158  0.00  0.00    +0.147 HD
BRANCH  19  21
ATOM     21  C   UNL     1      35.694 -20.686 -19.814  0.00  0.00    +0.045 C 
ATOM     22  C   UNL     1      34.653 -20.140 -20.588  0.00  0.00    +0.017 C 
ATOM     23  C   UNL     1      36.985 -20.147 -19.960  0.00  0.00    +0.017 C 
ATOM     24  C   UNL     1      34.895 -19.092 -21.476  0.00  0.00    +0.038 C 
ATOM     25  C   UNL     1      37.227 -19.098 -20.847  0.00  0.00    +0.038 C 
ATOM     26  C   UNL     1      36.182 -18.571 -21.605  0.00  0.00    +0.139 C 
BRANCH  26  27
ATOM     27  O   UNL     1      36.419 -17.547 -22.470  0.00  0.00    -0.471 OA
ATOM     28  C   UNL     1      35.301 -16.747 -22.852  0.00  0.00    +0.252 C 
ENDBRANCH  26  27
ENDBRANCH  19  21
ENDBRANCH  18  19
ENDBRANCH  17  18
ENDBRANCH  14  17
ENDBRANCH   1  15
BRANCH   1  29
ATOM     29  C   UNL     1      33.184 -23.727 -13.881  0.00  0.00    +0.029 C 
BRANCH  29  30
ATOM     30  C   UNL     1      31.851 -23.939 -14.595  0.00  0.00    +0.002 C 
ATOM     31  C   UNL     1      30.998 -22.665 -14.541  0.00  0.00    +0.000 C 
ATOM     32  C   UNL     1      31.094 -25.129 -13.990  0.00  0.00    +0.000 C 
ATOM     33  C   UNL     1      29.637 -22.869 -15.203  0.00  0.00    +0.000 C 
ATOM     34  C   UNL     1      29.733 -25.328 -14.652  0.00  0.00    +0.000 C 
ATOM     35  C   UNL     1      28.892 -24.057 -14.604  0.00  0.00    +0.000 C 
ENDBRANCH  29  30
ENDBRANCH   1  29
TORSDOF 9
ENDMDL
MODEL 7
REMARK VINA RESULT:     -10.0      2.262      5.047
REMARK  Name = 6420159
REMARK  9 active torsions:
REMARK  status: ('A' for Active; 'I' for Inactive)
REMARK    1  A    between atoms: C_1  and  N_3
REMARK    2  A    between atoms: C_1  and  C_15
REMARK    3  A    between atoms: C_1  and  C_29
REMARK    4  A    between atoms: N_14  and  C_17
REMARK    5  A    between atoms: C_17  and  C_18
REMARK    6  A    between atoms: C_18  and  N_19
REMARK    7  A    between atoms: N_19  and  C_21
REMARK    8  A    between atoms: C_26  and  O_27
REMARK    9  A    between atoms: C_29  and  C_30
REMARK                            x       y       z     vdW  Elec       q    Type
REMARK                         _______ _______ _______ _____ _____    ______ ____
ROOT
ATOM      1  C   UNL     1      33.520 -21.309 -18.524  0.00  0.00    +0.151 C 
ENDROOT
BRANCH   1   3
ATOM      2  O   UNL     1      30.758 -23.247 -17.091  0.00  0.00    -0.414 OA
ATOM      3  N   UNL     1      32.292 -22.043 -18.304  0.00  0.00    -0.271 N 
ATOM      4  N   UNL     1      32.619 -22.580 -15.981  0.00  0.00    -0.356 NA
ATOM      5  C   UNL     1      31.944 -22.605 -17.088  0.00  0.00    +0.345 C 
ATOM      6  C   UNL     1      30.662 -23.694 -15.804  0.00  0.00    +0.175 C 
ATOM      7  C   UNL     1      31.803 -23.284 -15.128  0.00  0.00    +0.152 C 
ATOM      8  C   UNL     1      29.628 -24.429 -15.238  0.00  0.00    +0.040 C 
ATOM      9  C   UNL     1      31.947 -23.622 -13.775  0.00  0.00    +0.088 C 
ATOM     10  C   UNL     1      29.787 -24.757 -13.887  0.00  0.00    -0.001 C 
ATOM     11  C   UNL     1      30.922 -24.363 -13.169  0.00  0.00    -0.018 C 
ATOM     12  H   UNL     1      31.670 -22.147 -19.060  0.00  0.00    +0.153 HD
ENDBRANCH   1   3
BRANCH   1  15
ATOM     13  O   UNL     1      32.407 -20.545 -20.535  0.00  0.00    -0.273 OA
ATOM     14  N   UNL     1      34.688 -20.187 -20.321  0.00  0.00    -0.301 N 
ATOM     15  C   UNL     1      33.450 -20.645 -19.893  0.00  0.00    +0.240 C 
ATOM     16  H   UNL     1      35.470 -20.311 -19.737  0.00  0.00    +0.150 HD
BRANCH  14  17
ATOM     17  C   UNL     1      34.865 -19.534 -21.595  0.00  0.00    +0.111 C 
BRANCH  17  18
ATOM     18  C   UNL     1      36.114 -18.667 -21.629  0.00  0.00    +0.109 C 
BRANCH  18  19
ATOM     19  N   UNL     1      36.233 -18.004 -22.906  0.00  0.00    -0.331 N 
ATOM     20  H   UNL     1      36.844 -18.390 -23.575  0.00  0.00    +0.147 HD
BRANCH  19  21
ATOM     21  C   UNL     1      35.536 -16.855 -23.244  0.00  0.00    +0.045 C 
ATOM     22  C   UNL     1      34.963 -16.707 -24.521  0.00  0.00    +0.017 C 
ATOM     23  C   UNL     1      35.383 -15.805 -22.321  0.00  0.00    +0.017 C 
ATOM     24  C   UNL     1      34.263 -15.550 -24.863  0.00  0.00    +0.038 C 
ATOM     25  C   UNL     1      34.683 -14.647 -22.662  0.00  0.00    +0.038 C 
ATOM     26  C   UNL     1      34.124 -14.520 -23.932  0.00  0.00    +0.139 C 
BRANCH  26  27
ATOM     27  O   UNL     1      33.439 -13.391 -24.264  0.00  0.00    -0.471 OA
ATOM     28  C   UNL     1      34.000 -12.146 -23.851  0.00  0.00    +0.252 C 
ENDBRANCH  26  27
ENDBRANCH  19  21
ENDBRANCH  18  19
ENDBRANCH  17  18
ENDBRANCH  14  17
ENDBRANCH   1  15
BRANCH   1  29
ATOM     29  C   UNL     1      34.723 -22.253 -18.460  0.00  0.00    +0.029 C 
BRANCH  29  30
ATOM     30  C   UNL     1      35.615 -21.980 -17.251  0.00  0.00    +0.002 C 
ATOM     31  C   UNL     1      37.034 -21.604 -17.699  0.00  0.00    +0.000 C 
ATOM     32  C   UNL     1      35.643 -23.193 -16.312  0.00  0.00    +0.000 C 
ATOM     33  C   UNL     1      37.961 -21.378 -16.507  0.00  0.00    +0.000 C 
ATOM     34  C   UNL     1      36.572 -22.965 -15.123  0.00  0.00    +0.000 C 
ATOM     35  C   UNL     1      37.979 -22.583 -15.572  0.00  0.00    +0.000 C 
ENDBRANCH  29  30
ENDBRANCH   1  29
TORSDOF 9
ENDMDL
MODEL 8
REMARK VINA RESULT:      -9.9      8.621     13.416
REMARK  Name = 6420159
REMARK  9 active torsions:
REMARK  status: ('A' for Active; 'I' for Inactive)
REMARK    1  A    between atoms: C_1  and  N_3
REMARK    2  A    between atoms: C_1  and  C_15
REMARK    3  A    between atoms: C_1  and  C_29
REMARK    4  A    between atoms: N_14  and  C_17
REMARK    5  A    between atoms: C_17  and  C_18
REMARK    6  A    between atoms: C_18  and  N_19
REMARK    7  A    between atoms: N_19  and  C_21
REMARK    8  A    between atoms: C_26  and  O_27
REMARK    9  A    between atoms: C_29  and  C_30
REMARK                            x       y       z     vdW  Elec       q    Type
REMARK                         _______ _______ _______ _____ _____    ______ ____
ROOT
ATOM      1  C   UNL     1      33.716 -12.518 -23.140  0.00  0.00    +0.151 C 
ENDROOT
BRANCH   1   3
ATOM      2  O   UNL     1      33.746 -15.928 -24.487  0.00  0.00    -0.414 OA
ATOM      3  N   UNL     1      33.467 -13.725 -23.899  0.00  0.00    -0.271 N 
ATOM      4  N   UNL     1      35.033 -15.169 -22.781  0.00  0.00    -0.356 NA
ATOM      5  C   UNL     1      34.123 -14.922 -23.670  0.00  0.00    +0.345 C 
ATOM      6  C   UNL     1      34.526 -16.963 -24.056  0.00  0.00    +0.175 C 
ATOM      7  C   UNL     1      35.312 -16.495 -23.013  0.00  0.00    +0.152 C 
ATOM      8  C   UNL     1      34.557 -18.261 -24.548  0.00  0.00    +0.040 C 
ATOM      9  C   UNL     1      36.209 -17.376 -22.393  0.00  0.00    +0.088 C 
ATOM     10  C   UNL     1      35.457 -19.128 -23.919  0.00  0.00    -0.001 C 
ATOM     11  C   UNL     1      36.268 -18.696 -22.862  0.00  0.00    -0.018 C 
ATOM     12  H   UNL     1      32.795 -13.693 -24.617  0.00  0.00    +0.153 HD
ENDBRANCH   1   3
BRANCH   1  15
ATOM     13  O   UNL     1      32.770 -13.454 -21.117  0.00  0.00    -0.273 OA
ATOM     14  N   UNL     1      32.051 -11.365 -21.819  0.00  0.00    -0.301 N 
ATOM     15  C   UNL     1      32.813 -12.520 -21.914  0.00  0.00    +0.240 C 
ATOM     16  H   UNL     1      32.153 -10.668 -22.506  0.00  0.00    +0.150 HD
BRANCH  14  17
ATOM     17  C   UNL     1      31.113 -11.152 -20.742  0.00  0.00    +0.111 C 
BRANCH  17  18
ATOM     18  C   UNL     1      31.536 -10.013 -19.827  0.00  0.00    +0.109 C 
BRANCH  18  19
ATOM     19  N   UNL     1      32.430  -9.116 -20.520  0.00  0.00    -0.331 N 
ATOM     20  H   UNL     1      33.363  -9.402 -20.657  0.00  0.00    +0.147 HD
BRANCH  19  21
ATOM     21  C   UNL     1      32.051  -7.873 -21.003  0.00  0.00    +0.045 C 
ATOM     22  C   UNL     1      31.499  -7.737 -22.291  0.00  0.00    +0.017 C 
ATOM     23  C   UNL     1      32.210  -6.715 -20.221  0.00  0.00    +0.017 C 
ATOM     24  C   UNL     1      31.119  -6.486 -22.777  0.00  0.00    +0.038 C 
ATOM     25  C   UNL     1      31.831  -5.464 -20.708  0.00  0.00    +0.038 C 
ATOM     26  C   UNL     1      31.285  -5.350 -21.986  0.00  0.00    +0.139 C 
BRANCH  26  27
ATOM     27  O   UNL     1      30.914  -4.129 -22.460  0.00  0.00    -0.471 OA
ATOM     28  C   UNL     1      31.893  -3.388 -23.186  0.00  0.00    +0.252 C 
ENDBRANCH  26  27
ENDBRANCH  19  21
ENDBRANCH  18  19
ENDBRANCH  17  18
ENDBRANCH  14  17
ENDBRANCH   1  15
BRANCH   1  29
ATOM     29  C   UNL     1      33.434 -11.282 -23.997  0.00  0.00    +0.029 C 
BRANCH  29  30
ATOM     30  C   UNL     1      34.641 -10.352 -24.096  0.00  0.00    +0.002 C 
ATOM     31  C   UNL     1      34.251  -8.916 -23.722  0.00  0.00    +0.000 C 
ATOM     32  C   UNL     1      35.252 -10.403 -25.504  0.00  0.00    +0.000 C 
ATOM     33  C   UNL     1      35.430  -7.956 -23.864  0.00  0.00    +0.000 C 
ATOM     34  C   UNL     1      36.428  -9.440 -25.643  0.00  0.00    +0.000 C 
ATOM     35  C   UNL     1      36.039  -8.016 -25.262  0.00  0.00    +0.000 C 
ENDBRANCH  29  30
ENDBRANCH   1  29
TORSDOF 9
ENDMDL
MODEL 9
REMARK VINA RESULT:      -9.4      8.143     15.888
REMARK  Name = 6420159
REMARK  9 active torsions:
REMARK  status: ('A' for Active; 'I' for Inactive)
REMARK    1  A    between atoms: C_1  and  N_3
REMARK    2  A    between atoms: C_1  and  C_15
REMARK    3  A    between atoms: C_1  and  C_29
REMARK    4  A    between atoms: N_14  and  C_17
REMARK    5  A    between atoms: C_17  and  C_18
REMARK    6  A    between atoms: C_18  and  N_19
REMARK    7  A    between atoms: N_19  and  C_21
REMARK    8  A    between atoms: C_26  and  O_27
REMARK    9  A    between atoms: C_29  and  C_30
REMARK                            x       y       z     vdW  Elec       q    Type
REMARK                         _______ _______ _______ _____ _____    ______ ____
ROOT
ATOM      1  C   UNL     1      33.767  -8.437 -23.290  0.00  0.00    +0.151 C 
ENDROOT
BRANCH   1   3
ATOM      2  O   UNL     1      33.747  -5.099 -24.808  0.00  0.00    -0.414 OA
ATOM      3  N   UNL     1      33.984  -7.283 -24.138  0.00  0.00    -0.271 N 
ATOM      4  N   UNL     1      32.634  -5.702 -22.927  0.00  0.00    -0.356 NA
ATOM      5  C   UNL     1      33.420  -6.042 -23.900  0.00  0.00    +0.345 C 
ATOM      6  C   UNL     1      33.075  -4.003 -24.348  0.00  0.00    +0.175 C 
ATOM      7  C   UNL     1      32.395  -4.375 -23.197  0.00  0.00    +0.152 C 
ATOM      8  C   UNL     1      33.052  -2.730 -24.903  0.00  0.00    +0.040 C 
ATOM      9  C   UNL     1      31.622  -3.417 -22.526  0.00  0.00    +0.088 C 
ATOM     10  C   UNL     1      32.276  -1.786 -24.222  0.00  0.00    -0.001 C 
ATOM     11  C   UNL     1      31.574  -2.120 -23.057  0.00  0.00    -0.018 C 
ATOM     12  H   UNL     1      34.565  -7.387 -24.925  0.00  0.00    +0.153 HD
ENDBRANCH   1   3
BRANCH   1  15
ATOM     13  O   UNL     1      35.825  -9.469 -24.041  0.00  0.00    -0.273 OA
ATOM     14  N   UNL     1      33.894 -10.751 -23.981  0.00  0.00    -0.301 N 
ATOM     15  C   UNL     1      34.625  -9.585 -23.804  0.00  0.00    +0.240 C 
ATOM     16  H   UNL     1      32.934 -10.750 -23.764  0.00  0.00    +0.150 HD
BRANCH  14  17
ATOM     17  C   UNL     1      34.497 -11.967 -24.471  0.00  0.00    +0.111 C 
BRANCH  17  18
ATOM     18  C   UNL     1      33.774 -13.209 -23.976  0.00  0.00    +0.109 C 
BRANCH  18  19
ATOM     19  N   UNL     1      34.143 -14.357 -24.769  0.00  0.00    -0.331 N 
ATOM     20  H   UNL     1      34.153 -14.261 -25.749  0.00  0.00    +0.147 HD
BRANCH  19  21
ATOM     21  C   UNL     1      34.483 -15.588 -24.229  0.00  0.00    +0.045 C 
ATOM     22  C   UNL     1      35.214 -15.673 -23.030  0.00  0.00    +0.017 C 
ATOM     23  C   UNL     1      34.109 -16.784 -24.867  0.00  0.00    +0.017 C 
ATOM     24  C   UNL     1      35.558 -16.911 -22.488  0.00  0.00    +0.038 C 
ATOM     25  C   UNL     1      34.453 -18.023 -24.325  0.00  0.00    +0.038 C 
ATOM     26  C   UNL     1      35.177 -18.086 -23.136  0.00  0.00    +0.139 C 
BRANCH  26  27
ATOM     27  O   UNL     1      35.512 -19.295 -22.607  0.00  0.00    -0.471 OA
ATOM     28  C   UNL     1      35.503 -19.407 -21.184  0.00  0.00    +0.252 C 
ENDBRANCH  26  27
ENDBRANCH  19  21
ENDBRANCH  18  19
ENDBRANCH  17  18
ENDBRANCH  14  17
ENDBRANCH   1  15
BRANCH   1  29
ATOM     29  C   UNL     1      32.290  -8.837 -23.305  0.00  0.00    +0.029 C 
BRANCH  29  30
ATOM     30  C   UNL     1      31.726  -9.039 -21.900  0.00  0.00    +0.002 C 
ATOM     31  C   UNL     1      32.619  -8.360 -20.854  0.00  0.00    +0.000 C 
ATOM     32  C   UNL     1      31.563 -10.534 -21.591  0.00  0.00    +0.000 C 
ATOM     33  C   UNL     1      32.103  -8.593 -19.435  0.00  0.00    +0.000 C 
ATOM     34  C   UNL     1      31.051 -10.764 -20.172  0.00  0.00    +0.000 C 
ATOM     35  C   UNL     1      31.936 -10.079 -19.135  0.00  0.00    +0.000 C 
ENDBRANCH  29  30
ENDBRANCH   1  29
TORSDOF 9
ENDMDL
