MODEL 1
REMARK VINA RESULT:     -13.0      0.000      0.000
REMARK  Name = 24780387
REMARK  3 active torsions:
REMARK  status: ('A' for Active; 'I' for Inactive)
REMARK    1  A    between atoms: N_3  and  C_25
REMARK    2  A    between atoms: C_18  and  O_23
REMARK    3  A    between atoms: C_25  and  N_26
REMARK                            x       y       z     vdW  Elec       q    Type
REMARK                         _______ _______ _______ _____ _____    ______ ____
ROOT
ATOM      1  O   UNL     1      33.112 -24.760 -12.725  0.00  0.00    -0.270 OA
ATOM      2  O   UNL     1      36.446 -23.146 -15.488  0.00  0.00    -0.270 OA
ATOM      3  N   UNL     1      35.065 -24.081 -13.845  0.00  0.00    -0.244 N 
ATOM      4  N   UNL     1      32.299 -21.764 -18.398  0.00  0.00    -0.353 N 
ATOM      5  C   UNL     1      31.750 -23.558 -15.157  0.00  0.00    -0.020 A 
ATOM      6  C   UNL     1      31.397 -22.922 -16.356  0.00  0.00    -0.010 A 
ATOM      7  C   UNL     1      33.075 -23.663 -14.828  0.00  0.00    +0.054 A 
ATOM      8  C   UNL     1      30.535 -23.987 -14.401  0.00  0.00    +0.027 C 
ATOM      9  C   UNL     1      29.902 -22.866 -16.501  0.00  0.00    +0.028 C 
ATOM     10  C   UNL     1      32.399 -22.419 -17.198  0.00  0.00    +0.052 A 
ATOM     11  C   UNL     1      34.070 -23.167 -15.671  0.00  0.00    +0.059 A 
ATOM     12  C   UNL     1      29.466 -23.947 -15.503  0.00  0.00    +0.009 C 
ATOM     13  C   UNL     1      33.768 -22.527 -16.888  0.00  0.00    +0.024 A 
ATOM     14  C   UNL     1      33.714 -24.248 -13.651  0.00  0.00    +0.253 C 
ATOM     15  C   UNL     1      35.358 -23.441 -15.032  0.00  0.00    +0.253 C 
ATOM     16  C   UNL     1      34.488 -21.913 -17.968  0.00  0.00    +0.051 A 
ATOM     17  C   UNL     1      33.542 -21.449 -18.889  0.00  0.00    +0.060 A 
ATOM     18  C   UNL     1      35.851 -21.696 -18.268  0.00  0.00    +0.140 C 
ATOM     19  C   UNL     1      33.888 -20.790 -20.075  0.00  0.00    +0.017 C 
ATOM     20  C   UNL     1      36.213 -21.039 -19.451  0.00  0.00    +0.037 C 
ATOM     21  C   UNL     1      35.242 -20.593 -20.342  0.00  0.00    +0.005 C 
ATOM     22  H   UNL     1      31.450 -21.548 -18.849  0.00  0.00    +0.166 HD
ENDROOT
BRANCH  18  23
ATOM     23  O   UNL     1      36.900 -22.091 -17.487  0.00  0.00    -0.471 OA
ATOM     24  C   UNL     1      37.667 -21.061 -16.871  0.00  0.00    +0.252 C 
ENDBRANCH  18  23
BRANCH   3  25
ATOM     25  C   UNL     1      36.084 -24.521 -12.911  0.00  0.00    +0.028 C 
BRANCH  25  26
ATOM     26  N   UNL     1      37.282 -24.904 -13.656  0.00  0.00    +0.396 N 
ATOM     27  N   UNL     1      39.631 -26.531 -14.097  0.00  0.00    +0.383 N 
ATOM     28  C   UNL     1      38.483 -24.749 -12.826  0.00  0.00    -0.098 C 
ATOM     29  C   UNL     1      37.172 -26.284 -14.147  0.00  0.00    -0.098 C 
ATOM     30  C   UNL     1      39.740 -25.153 -13.605  0.00  0.00    -0.101 C 
ATOM     31  C   UNL     1      38.429 -26.685 -14.927  0.00  0.00    -0.101 C 
ATOM     32  C   UNL     1      40.829 -26.912 -14.843  0.00  0.00    -0.101 C 
ATOM     33  H   UNL     1      37.365 -24.282 -14.460  0.00  0.00    -0.077 HD
ATOM     34  H   UNL     1      39.549 -27.153 -13.294  0.00  0.00    -0.080 HD
ENDBRANCH  25  26
ENDBRANCH   3  25
TORSDOF 3
ENDMDL
MODEL 2
REMARK VINA RESULT:     -11.8      1.160      4.569
REMARK  Name = 24780387
REMARK  3 active torsions:
REMARK  status: ('A' for Active; 'I' for Inactive)
REMARK    1  A    between atoms: N_3  and  C_25
REMARK    2  A    between atoms: C_18  and  O_23
REMARK    3  A    between atoms: C_25  and  N_26
REMARK                            x       y       z     vdW  Elec       q    Type
REMARK                         _______ _______ _______ _____ _____    ______ ____
ROOT
ATOM      1  O   UNL     1      37.969 -22.511 -16.670  0.00  0.00    -0.270 OA
ATOM      2  O   UNL     1      34.590 -23.999 -13.892  0.00  0.00    -0.270 OA
ATOM      3  N   UNL     1      36.554 -23.386 -15.008  0.00  0.00    -0.244 N 
ATOM      4  N   UNL     1      31.611 -22.109 -17.782  0.00  0.00    -0.353 N 
ATOM      5  C   UNL     1      35.338 -21.849 -18.032  0.00  0.00    -0.020 A 
ATOM      6  C   UNL     1      34.004 -21.690 -18.433  0.00  0.00    -0.010 A 
ATOM      7  C   UNL     1      35.603 -22.462 -16.838  0.00  0.00    +0.054 A 
ATOM      8  C   UNL     1      36.274 -21.325 -19.072  0.00  0.00    +0.027 C 
ATOM      9  C   UNL     1      33.934 -21.047 -19.790  0.00  0.00    +0.028 C 
ATOM     10  C   UNL     1      32.970 -22.147 -17.603  0.00  0.00    +0.052 A 
ATOM     11  C   UNL     1      34.572 -22.909 -16.011  0.00  0.00    +0.059 A 
ATOM     12  C   UNL     1      35.337 -20.433 -19.899  0.00  0.00    +0.009 C 
ATOM     13  C   UNL     1      33.217 -22.768 -16.364  0.00  0.00    +0.024 A 
ATOM     14  C   UNL     1      36.879 -22.771 -16.194  0.00  0.00    +0.253 C 
ATOM     15  C   UNL     1      35.191 -23.506 -14.827  0.00  0.00    +0.253 C 
ATOM     16  C   UNL     1      31.936 -23.092 -15.800  0.00  0.00    +0.051 A 
ATOM     17  C   UNL     1      30.961 -22.669 -16.709  0.00  0.00    +0.060 A 
ATOM     18  C   UNL     1      31.494 -23.706 -14.608  0.00  0.00    +0.140 C 
ATOM     19  C   UNL     1      29.587 -22.826 -16.487  0.00  0.00    +0.017 C 
ATOM     20  C   UNL     1      30.123 -23.870 -14.370  0.00  0.00    +0.037 C 
ATOM     21  C   UNL     1      29.184 -23.435 -15.299  0.00  0.00    +0.005 C 
ATOM     22  H   UNL     1      31.161 -21.732 -18.572  0.00  0.00    +0.166 HD
ENDROOT
BRANCH  18  23
ATOM     23  O   UNL     1      32.308 -24.168 -13.612  0.00  0.00    -0.471 OA
ATOM     24  C   UNL     1      31.765 -25.158 -12.744  0.00  0.00    +0.252 C 
ENDBRANCH  18  23
BRANCH   3  25
ATOM     25  C   UNL     1      37.526 -23.864 -14.044  0.00  0.00    +0.028 C 
BRANCH  25  26
ATOM     26  N   UNL     1      38.438 -24.795 -14.706  0.00  0.00    +0.396 N 
ATOM     27  N   UNL     1      40.018 -27.214 -14.816  0.00  0.00    +0.383 N 
ATOM     28  C   UNL     1      39.691 -24.922 -13.952  0.00  0.00    -0.098 C 
ATOM     29  C   UNL     1      37.808 -26.110 -14.877  0.00  0.00    -0.098 C 
ATOM     30  C   UNL     1      40.648 -25.899 -14.644  0.00  0.00    -0.101 C 
ATOM     31  C   UNL     1      38.764 -27.086 -15.570  0.00  0.00    -0.101 C 
ATOM     32  C   UNL     1      40.931 -28.143 -15.480  0.00  0.00    -0.101 C 
ATOM     33  H   UNL     1      38.656 -24.420 -15.629  0.00  0.00    -0.077 HD
ATOM     34  H   UNL     1      39.801 -27.590 -13.894  0.00  0.00    -0.080 HD
ENDBRANCH  25  26
ENDBRANCH   3  25
TORSDOF 3
ENDMDL
MODEL 3
REMARK VINA RESULT:     -11.4      2.301      6.583
REMARK  Name = 24780387
REMARK  3 active torsions:
REMARK  status: ('A' for Active; 'I' for Inactive)
REMARK    1  A    between atoms: N_3  and  C_25
REMARK    2  A    between atoms: C_18  and  O_23
REMARK    3  A    between atoms: C_25  and  N_26
REMARK                            x       y       z     vdW  Elec       q    Type
REMARK                         _______ _______ _______ _____ _____    ______ ____
ROOT
ATOM      1  O   UNL     1      32.692 -22.100 -18.952  0.00  0.00    -0.270 OA
ATOM      2  O   UNL     1      36.782 -22.633 -16.870  0.00  0.00    -0.270 OA
ATOM      3  N   UNL     1      34.932 -22.281 -18.260  0.00  0.00    -0.244 N 
ATOM      4  N   UNL     1      33.685 -23.639 -12.751  0.00  0.00    -0.353 N 
ATOM      5  C   UNL     1      32.132 -22.779 -16.047  0.00  0.00    -0.020 A 
ATOM      6  C   UNL     1      32.167 -23.124 -14.688  0.00  0.00    -0.010 A 
ATOM      7  C   UNL     1      33.311 -22.631 -16.725  0.00  0.00    +0.054 A 
ATOM      8  C   UNL     1      30.723 -22.674 -16.535  0.00  0.00    +0.027 C 
ATOM      9  C   UNL     1      30.773 -23.288 -14.150  0.00  0.00    +0.028 C 
ATOM     10  C   UNL     1      33.403 -23.299 -14.049  0.00  0.00    +0.052 A 
ATOM     11  C   UNL     1      34.539 -22.800 -16.084  0.00  0.00    +0.059 A 
ATOM     12  C   UNL     1      29.956 -22.540 -15.212  0.00  0.00    +0.009 C 
ATOM     13  C   UNL     1      34.629 -23.139 -14.721  0.00  0.00    +0.024 A 
ATOM     14  C   UNL     1      33.563 -22.300 -18.127  0.00  0.00    +0.253 C 
ATOM     15  C   UNL     1      35.586 -22.570 -17.080  0.00  0.00    +0.253 C 
ATOM     16  C   UNL     1      35.665 -23.390 -13.758  0.00  0.00    +0.051 A 
ATOM     17  C   UNL     1      35.041 -23.697 -12.544  0.00  0.00    +0.060 A 
ATOM     18  C   UNL     1      37.077 -23.390 -13.784  0.00  0.00    +0.140 C 
ATOM     19  C   UNL     1      35.749 -24.000 -11.374  0.00  0.00    +0.017 C 
ATOM     20  C   UNL     1      37.800 -23.690 -12.622  0.00  0.00    +0.037 C 
ATOM     21  C   UNL     1      37.142 -23.990 -11.434  0.00  0.00    +0.005 C 
ATOM     22  H   UNL     1      33.007 -23.816 -12.058  0.00  0.00    +0.166 HD
ENDROOT
BRANCH  18  23
ATOM     23  O   UNL     1      37.844 -23.104 -14.878  0.00  0.00    -0.471 OA
ATOM     24  C   UNL     1      38.982 -23.930 -15.101  0.00  0.00    +0.252 C 
ENDBRANCH  18  23
BRANCH   3  25
ATOM     25  C   UNL     1      35.627 -21.992 -19.500  0.00  0.00    +0.028 C 
BRANCH  25  26
ATOM     26  N   UNL     1      35.529 -20.562 -19.780  0.00  0.00    +0.396 N 
ATOM     27  N   UNL     1      35.742 -18.255 -21.511  0.00  0.00    +0.383 N 
ATOM     28  C   UNL     1      36.837 -20.015 -20.167  0.00  0.00    -0.098 C 
ATOM     29  C   UNL     1      34.536 -20.302 -20.830  0.00  0.00    -0.098 C 
ATOM     30  C   UNL     1      36.736 -18.515 -20.463  0.00  0.00    -0.101 C 
ATOM     31  C   UNL     1      34.434 -18.801 -21.125  0.00  0.00    -0.101 C 
ATOM     32  C   UNL     1      35.644 -16.824 -21.790  0.00  0.00    -0.101 C 
ATOM     33  H   UNL     1      35.225 -20.093 -18.927  0.00  0.00    -0.077 HD
ATOM     34  H   UNL     1      36.046 -18.722 -22.365  0.00  0.00    -0.080 HD
ENDBRANCH  25  26
ENDBRANCH   3  25
TORSDOF 3
ENDMDL
MODEL 4
REMARK VINA RESULT:     -11.2      2.585      6.655
REMARK  Name = 24780387
REMARK  3 active torsions:
REMARK  status: ('A' for Active; 'I' for Inactive)
REMARK    1  A    between atoms: N_3  and  C_25
REMARK    2  A    between atoms: C_18  and  O_23
REMARK    3  A    between atoms: C_25  and  N_26
REMARK                            x       y       z     vdW  Elec       q    Type
REMARK                         _______ _______ _______ _____ _____    ______ ____
ROOT
ATOM      1  O   UNL     1      32.327 -25.049 -12.715  0.00  0.00    -0.270 OA
ATOM      2  O   UNL     1      32.198 -23.374 -17.020  0.00  0.00    -0.270 OA
ATOM      3  N   UNL     1      31.876 -24.336 -14.910  0.00  0.00    -0.244 N 
ATOM      4  N   UNL     1      37.137 -22.049 -15.826  0.00  0.00    -0.353 N 
ATOM      5  C   UNL     1      35.037 -23.799 -13.267  0.00  0.00    -0.020 A 
ATOM      6  C   UNL     1      36.180 -23.180 -13.794  0.00  0.00    -0.010 A 
ATOM      7  C   UNL     1      33.921 -23.908 -14.051  0.00  0.00    +0.054 A 
ATOM      8  C   UNL     1      35.288 -24.288 -11.877  0.00  0.00    +0.027 C 
ATOM      9  C   UNL     1      37.304 -23.210 -12.796  0.00  0.00    +0.028 C 
ATOM     10  C   UNL     1      36.156 -22.678 -15.103  0.00  0.00    +0.052 A 
ATOM     11  C   UNL     1      33.899 -23.401 -15.350  0.00  0.00    +0.059 A 
ATOM     12  C   UNL     1      36.536 -23.479 -11.494  0.00  0.00    +0.009 C 
ATOM     13  C   UNL     1      35.016 -22.766 -15.924  0.00  0.00    +0.024 A 
ATOM     14  C   UNL     1      32.620 -24.513 -13.768  0.00  0.00    +0.253 C 
ATOM     15  C   UNL     1      32.572 -23.678 -15.903  0.00  0.00    +0.253 C 
ATOM     16  C   UNL     1      35.357 -22.149 -17.175  0.00  0.00    +0.051 A 
ATOM     17  C   UNL     1      36.683 -21.715 -17.078  0.00  0.00    +0.060 A 
ATOM     18  C   UNL     1      34.680 -21.910 -18.391  0.00  0.00    +0.140 C 
ATOM     19  C   UNL     1      37.354 -21.064 -18.121  0.00  0.00    +0.017 C 
ATOM     20  C   UNL     1      35.336 -21.260 -19.444  0.00  0.00    +0.037 C 
ATOM     21  C   UNL     1      36.656 -20.842 -19.308  0.00  0.00    +0.005 C 
ATOM     22  H   UNL     1      38.045 -21.861 -15.493  0.00  0.00    +0.166 HD
ENDROOT
BRANCH  18  23
ATOM     23  O   UNL     1      33.384 -22.258 -18.651  0.00  0.00    -0.471 OA
ATOM     24  C   UNL     1      32.636 -21.378 -19.484  0.00  0.00    +0.252 C 
ENDBRANCH  18  23
BRANCH   3  25
ATOM     25  C   UNL     1      30.507 -24.788 -15.069  0.00  0.00    +0.028 C 
BRANCH  25  26
ATOM     26  N   UNL     1      29.731 -23.741 -15.730  0.00  0.00    +0.396 N 
ATOM     27  N   UNL     1      27.265 -22.371 -16.361  0.00  0.00    +0.383 N 
ATOM     28  C   UNL     1      28.750 -24.324 -16.654  0.00  0.00    -0.098 C 
ATOM     29  C   UNL     1      29.061 -22.886 -14.743  0.00  0.00    -0.098 C 
ATOM     30  C   UNL     1      27.934 -23.227 -17.347  0.00  0.00    -0.101 C 
ATOM     31  C   UNL     1      28.246 -21.788 -15.437  0.00  0.00    -0.101 C 
ATOM     32  C   UNL     1      26.491 -21.323 -17.024  0.00  0.00    -0.101 C 
ATOM     33  H   UNL     1      30.377 -23.165 -16.270  0.00  0.00    -0.077 HD
ATOM     34  H   UNL     1      26.618 -22.946 -15.822  0.00  0.00    -0.080 HD
ENDBRANCH  25  26
ENDBRANCH   3  25
TORSDOF 3
ENDMDL
