MODEL 1
REMARK VINA RESULT:     -12.2      0.000      0.000
REMARK  Name = 23650961
REMARK  5 active torsions:
REMARK  status: ('A' for Active; 'I' for Inactive)
REMARK    1  A    between atoms: N_1  and  C_23
REMARK    2  A    between atoms: C_5  and  C_12
REMARK    3  A    between atoms: C_23  and  C_24
REMARK    4  A    between atoms: C_24  and  C_25
REMARK    5  A    between atoms: C_25  and  C_27
REMARK                            x       y       z     vdW  Elec       q    Type
REMARK                         _______ _______ _______ _____ _____    ______ ____
ROOT
ATOM      1  N   UNL     1      34.791 -17.579 -24.675  0.00  0.00    -0.268 N 
ATOM      2  N   UNL     1      33.963 -15.520 -25.437  0.00  0.00    -0.342 NA
ATOM      3  N   UNL     1      35.133 -15.682 -23.338  0.00  0.00    -0.170 NA
ATOM      4  C   UNL     1      34.624 -16.217 -24.477  0.00  0.00    +0.144 C 
ATOM      5  C   UNL     1      34.295 -13.554 -24.089  0.00  0.00    +0.061 C 
ATOM      6  C   UNL     1      33.817 -14.198 -25.213  0.00  0.00    +0.123 C 
ATOM      7  C   UNL     1      34.952 -14.355 -23.176  0.00  0.00    +0.113 C 
ATOM      8  C   UNL     1      33.089 -13.443 -26.276  0.00  0.00    +0.067 C 
ATOM      9  H   UNL     1      34.426 -17.976 -25.498  0.00  0.00    +0.159 HD
ENDROOT
BRANCH   5  12
ATOM     10  N   UNL     1      35.005 -11.218 -24.368  0.00  0.00    -0.314 N 
ATOM     11  N   UNL     1      33.173 -11.575 -23.162  0.00  0.00    -0.315 N 
ATOM     12  C   UNL     1      34.134 -12.143 -23.858  0.00  0.00    +0.171 C 
ATOM     13  C   UNL     1      34.579  -9.976 -23.973  0.00  0.00    +0.059 C 
ATOM     14  C   UNL     1      33.433 -10.225 -23.223  0.00  0.00    +0.055 C 
ATOM     15  C   UNL     1      32.735  -9.144 -22.659  0.00  0.00    -0.008 C 
ATOM     16  C   UNL     1      35.081  -8.694 -24.203  0.00  0.00    +0.011 C 
ATOM     17  C   UNL     1      34.374  -7.629 -23.634  0.00  0.00    -0.021 C 
ATOM     18  C   UNL     1      33.222  -7.848 -22.876  0.00  0.00    -0.007 C 
ATOM     19  C   UNL     1      31.499  -9.325 -21.841  0.00  0.00    +0.032 C 
ATOM     20  C   UNL     1      34.861  -6.233 -23.845  0.00  0.00    +0.031 C 
ATOM     21  H   UNL     1      35.798 -11.410 -24.919  0.00  0.00    +0.149 HD
ATOM     22  H   UNL     1      32.427 -12.020 -22.697  0.00  0.00    +0.149 HD
ENDBRANCH   5  12
BRANCH   1  23
ATOM     23  C   UNL     1      35.471 -18.447 -23.744  0.00  0.00    +0.098 C 
BRANCH  23  24
ATOM     24  C   UNL     1      34.494 -19.010 -22.716  0.00  0.00    +0.022 C 
BRANCH  24  25
ATOM     25  C   UNL     1      35.091 -19.062 -21.309  0.00  0.00    +0.002 C 
BRANCH  25  27
ATOM     26  N   UNL     1      34.133 -21.890 -18.189  0.00  0.00    +0.385 N 
ATOM     27  C   UNL     1      34.774 -20.388 -20.623  0.00  0.00    -0.004 C 
ATOM     28  C   UNL     1      33.384 -20.356 -19.978  0.00  0.00    -0.023 C 
ATOM     29  C   UNL     1      35.828 -20.726 -19.563  0.00  0.00    -0.023 C 
ATOM     30  C   UNL     1      33.100 -21.643 -19.203  0.00  0.00    -0.077 C 
ATOM     31  C   UNL     1      35.463 -22.002 -18.802  0.00  0.00    -0.077 C 
ATOM     32  C   UNL     1      33.820 -23.096 -17.422  0.00  0.00    -0.101 C 
ATOM     33  H   UNL     1      34.146 -21.093 -17.552  0.00  0.00    -0.080 HD
ENDBRANCH  25  27
ENDBRANCH  24  25
ENDBRANCH  23  24
ENDBRANCH   1  23
TORSDOF 5
ENDMDL
MODEL 2
REMARK VINA RESULT:     -11.9      0.565      1.649
REMARK  Name = 23650961
REMARK  5 active torsions:
REMARK  status: ('A' for Active; 'I' for Inactive)
REMARK    1  A    between atoms: N_1  and  C_23
REMARK    2  A    between atoms: C_5  and  C_12
REMARK    3  A    between atoms: C_23  and  C_24
REMARK    4  A    between atoms: C_24  and  C_25
REMARK    5  A    between atoms: C_25  and  C_27
REMARK                            x       y       z     vdW  Elec       q    Type
REMARK                         _______ _______ _______ _____ _____    ______ ____
ROOT
ATOM      1  N   UNL     1      34.993 -17.415 -24.594  0.00  0.00    -0.268 N 
ATOM      2  N   UNL     1      34.070 -15.392 -25.347  0.00  0.00    -0.342 NA
ATOM      3  N   UNL     1      35.171 -15.530 -23.208  0.00  0.00    -0.170 NA
ATOM      4  C   UNL     1      34.737 -16.070 -24.376  0.00  0.00    +0.144 C 
ATOM      5  C   UNL     1      34.234 -13.440 -23.949  0.00  0.00    +0.061 C 
ATOM      6  C   UNL     1      33.837 -14.087 -25.102  0.00  0.00    +0.123 C 
ATOM      7  C   UNL     1      34.904 -14.220 -23.028  0.00  0.00    +0.113 C 
ATOM      8  C   UNL     1      33.104 -13.353 -26.178  0.00  0.00    +0.067 C 
ATOM      9  H   UNL     1      34.683 -17.815 -25.438  0.00  0.00    +0.159 HD
ENDROOT
BRANCH   5  12
ATOM     10  N   UNL     1      32.872 -11.621 -23.015  0.00  0.00    -0.314 N 
ATOM     11  N   UNL     1      34.741 -11.038 -24.068  0.00  0.00    -0.315 N 
ATOM     12  C   UNL     1      33.980 -12.047 -23.697  0.00  0.00    +0.171 C 
ATOM     13  C   UNL     1      32.922 -10.252 -22.943  0.00  0.00    +0.059 C 
ATOM     14  C   UNL     1      34.098  -9.913 -23.606  0.00  0.00    +0.055 C 
ATOM     15  C   UNL     1      34.456  -8.559 -23.715  0.00  0.00    -0.008 C 
ATOM     16  C   UNL     1      32.065  -9.310 -22.370  0.00  0.00    +0.011 C 
ATOM     17  C   UNL     1      32.437  -7.967 -22.489  0.00  0.00    -0.021 C 
ATOM     18  C   UNL     1      33.610  -7.595 -23.148  0.00  0.00    -0.007 C 
ATOM     19  C   UNL     1      35.700  -8.111 -24.411  0.00  0.00    +0.032 C 
ATOM     20  C   UNL     1      31.562  -6.912 -21.895  0.00  0.00    +0.031 C 
ATOM     21  H   UNL     1      32.165 -12.195 -22.643  0.00  0.00    +0.149 HD
ATOM     22  H   UNL     1      35.589 -11.080 -24.568  0.00  0.00    +0.149 HD
ENDBRANCH   5  12
BRANCH   1  23
ATOM     23  C   UNL     1      35.689 -18.261 -23.655  0.00  0.00    +0.098 C 
BRANCH  23  24
ATOM     24  C   UNL     1      34.701 -19.022 -22.776  0.00  0.00    +0.022 C 
BRANCH  24  25
ATOM     25  C   UNL     1      35.125 -19.048 -21.307  0.00  0.00    +0.002 C 
BRANCH  25  27
ATOM     26  N   UNL     1      34.008 -21.898 -18.260  0.00  0.00    +0.385 N 
ATOM     27  C   UNL     1      34.760 -20.377 -20.650  0.00  0.00    -0.004 C 
ATOM     28  C   UNL     1      33.350 -20.326 -20.053  0.00  0.00    -0.023 C 
ATOM     29  C   UNL     1      35.770 -20.748 -19.560  0.00  0.00    -0.023 C 
ATOM     30  C   UNL     1      33.015 -21.618 -19.305  0.00  0.00    -0.077 C 
ATOM     31  C   UNL     1      35.356 -22.026 -18.829  0.00  0.00    -0.077 C 
ATOM     32  C   UNL     1      33.647 -23.107 -17.520  0.00  0.00    -0.101 C 
ATOM     33  H   UNL     1      34.014 -21.109 -17.612  0.00  0.00    -0.080 HD
ENDBRANCH  25  27
ENDBRANCH  24  25
ENDBRANCH  23  24
ENDBRANCH   1  23
TORSDOF 5
ENDMDL
MODEL 3
REMARK VINA RESULT:     -11.3      1.112      2.067
REMARK  Name = 23650961
REMARK  5 active torsions:
REMARK  status: ('A' for Active; 'I' for Inactive)
REMARK    1  A    between atoms: N_1  and  C_23
REMARK    2  A    between atoms: C_5  and  C_12
REMARK    3  A    between atoms: C_23  and  C_24
REMARK    4  A    between atoms: C_24  and  C_25
REMARK    5  A    between atoms: C_25  and  C_27
REMARK                            x       y       z     vdW  Elec       q    Type
REMARK                         _______ _______ _______ _____ _____    ______ ____
ROOT
ATOM      1  N   UNL     1      35.025 -16.787 -24.612  0.00  0.00    -0.268 N 
ATOM      2  N   UNL     1      34.191 -14.737 -25.393  0.00  0.00    -0.342 NA
ATOM      3  N   UNL     1      35.039 -14.954 -23.148  0.00  0.00    -0.170 NA
ATOM      4  C   UNL     1      34.743 -15.450 -24.377  0.00  0.00    +0.144 C 
ATOM      5  C   UNL     1      34.191 -12.836 -23.916  0.00  0.00    +0.061 C 
ATOM      6  C   UNL     1      33.930 -13.440 -25.129  0.00  0.00    +0.123 C 
ATOM      7  C   UNL     1      34.751 -13.650 -22.952  0.00  0.00    +0.113 C 
ATOM      8  C   UNL     1      33.323 -12.666 -26.255  0.00  0.00    +0.067 C 
ATOM      9  H   UNL     1      34.814 -17.156 -25.500  0.00  0.00    +0.159 HD
ENDROOT
BRANCH   5  12
ATOM     10  N   UNL     1      32.758 -11.055 -23.015  0.00  0.00    -0.314 N 
ATOM     11  N   UNL     1      34.676 -10.427 -23.947  0.00  0.00    -0.315 N 
ATOM     12  C   UNL     1      33.907 -11.452 -23.645  0.00  0.00    +0.171 C 
ATOM     13  C   UNL     1      32.788  -9.688 -22.907  0.00  0.00    +0.059 C 
ATOM     14  C   UNL     1      33.995  -9.320 -23.495  0.00  0.00    +0.055 C 
ATOM     15  C   UNL     1      34.343  -7.960 -23.552  0.00  0.00    -0.008 C 
ATOM     16  C   UNL     1      31.891  -8.769 -22.360  0.00  0.00    +0.011 C 
ATOM     17  C   UNL     1      32.253  -7.420 -22.425  0.00  0.00    -0.021 C 
ATOM     18  C   UNL     1      33.456  -7.020 -23.009  0.00  0.00    -0.007 C 
ATOM     19  C   UNL     1      35.618  -7.482 -24.166  0.00  0.00    +0.032 C 
ATOM     20  C   UNL     1      31.335  -6.388 -21.856  0.00  0.00    +0.031 C 
ATOM     21  H   UNL     1      32.038 -11.645 -22.697  0.00  0.00    +0.149 HD
ATOM     22  H   UNL     1      35.550 -10.448 -24.401  0.00  0.00    +0.149 HD
ENDBRANCH   5  12
BRANCH   1  23
ATOM     23  C   UNL     1      35.610 -17.668 -23.630  0.00  0.00    +0.098 C 
BRANCH  23  24
ATOM     24  C   UNL     1      34.759 -18.922 -23.452  0.00  0.00    +0.022 C 
BRANCH  24  25
ATOM     25  C   UNL     1      34.194 -19.047 -22.036  0.00  0.00    +0.002 C 
BRANCH  25  27
ATOM     26  N   UNL     1      36.210 -20.825 -18.655  0.00  0.00    +0.385 N 
ATOM     27  C   UNL     1      34.997 -20.047 -21.207  0.00  0.00    -0.004 C 
ATOM     28  C   UNL     1      34.170 -20.577 -20.031  0.00  0.00    -0.023 C 
ATOM     29  C   UNL     1      36.292 -19.416 -20.687  0.00  0.00    -0.023 C 
ATOM     30  C   UNL     1      34.999 -21.501 -19.139  0.00  0.00    -0.077 C 
ATOM     31  C   UNL     1      37.052 -20.380 -19.773  0.00  0.00    -0.077 C 
ATOM     32  C   UNL     1      36.966 -21.703 -17.762  0.00  0.00    -0.101 C 
ATOM     33  H   UNL     1      35.920 -19.998 -18.131  0.00  0.00    -0.080 HD
ENDBRANCH  25  27
ENDBRANCH  24  25
ENDBRANCH  23  24
ENDBRANCH   1  23
TORSDOF 5
ENDMDL
MODEL 4
REMARK VINA RESULT:     -11.0      2.900     11.468
REMARK  Name = 23650961
REMARK  5 active torsions:
REMARK  status: ('A' for Active; 'I' for Inactive)
REMARK    1  A    between atoms: N_1  and  C_23
REMARK    2  A    between atoms: C_5  and  C_12
REMARK    3  A    between atoms: C_23  and  C_24
REMARK    4  A    between atoms: C_24  and  C_25
REMARK    5  A    between atoms: C_25  and  C_27
REMARK                            x       y       z     vdW  Elec       q    Type
REMARK                         _______ _______ _______ _____ _____    ______ ____
ROOT
ATOM      1  N   UNL     1      35.176 -18.928 -22.740  0.00  0.00    -0.268 N 
ATOM      2  N   UNL     1      35.782 -20.143 -20.825  0.00  0.00    -0.342 NA
ATOM      3  N   UNL     1      33.465 -19.819 -21.404  0.00  0.00    -0.170 NA
ATOM      4  C   UNL     1      34.795 -19.653 -21.621  0.00  0.00    +0.144 C 
ATOM      5  C   UNL     1      34.051 -21.071 -19.432  0.00  0.00    +0.061 C 
ATOM      6  C   UNL     1      35.376 -20.843 -19.746  0.00  0.00    +0.123 C 
ATOM      7  C   UNL     1      33.130 -20.529 -20.306  0.00  0.00    +0.113 C 
ATOM      8  C   UNL     1      36.470 -21.377 -18.879  0.00  0.00    +0.067 C 
ATOM      9  H   UNL     1      36.138 -18.803 -22.906  0.00  0.00    +0.159 HD
ENDROOT
BRANCH   5  12
ATOM     10  N   UNL     1      32.307 -22.023 -17.988  0.00  0.00    -0.314 N 
ATOM     11  N   UNL     1      34.417 -22.381 -17.387  0.00  0.00    -0.315 N 
ATOM     12  C   UNL     1      33.629 -21.818 -18.278  0.00  0.00    +0.171 C 
ATOM     13  C   UNL     1      32.239 -22.764 -16.836  0.00  0.00    +0.059 C 
ATOM     14  C   UNL     1      33.568 -22.975 -16.481  0.00  0.00    +0.055 C 
ATOM     15  C   UNL     1      33.859 -23.716 -15.322  0.00  0.00    -0.008 C 
ATOM     16  C   UNL     1      31.161 -23.255 -16.097  0.00  0.00    +0.011 C 
ATOM     17  C   UNL     1      31.468 -23.989 -14.947  0.00  0.00    -0.021 C 
ATOM     18  C   UNL     1      32.792 -24.217 -14.565  0.00  0.00    -0.007 C 
ATOM     19  C   UNL     1      35.257 -23.987 -14.872  0.00  0.00    +0.032 C 
ATOM     20  C   UNL     1      30.358 -24.541 -14.114  0.00  0.00    +0.031 C 
ATOM     21  H   UNL     1      31.541 -21.697 -18.512  0.00  0.00    +0.149 HD
ATOM     22  H   UNL     1      35.402 -22.377 -17.371  0.00  0.00    +0.149 HD
ENDBRANCH   5  12
BRANCH   1  23
ATOM     23  C   UNL     1      34.242 -18.348 -23.674  0.00  0.00    +0.098 C 
BRANCH  23  24
ATOM     24  C   UNL     1      34.796 -17.052 -24.260  0.00  0.00    +0.022 C 
BRANCH  24  25
ATOM     25  C   UNL     1      35.744 -16.335 -23.297  0.00  0.00    +0.002 C 
BRANCH  25  27
ATOM     26  N   UNL     1      32.919 -13.386 -21.889  0.00  0.00    +0.385 N 
ATOM     27  C   UNL     1      35.173 -14.987 -22.863  0.00  0.00    -0.004 C 
ATOM     28  C   UNL     1      34.700 -15.034 -21.406  0.00  0.00    -0.023 C 
ATOM     29  C   UNL     1      34.015 -14.560 -23.770  0.00  0.00    -0.023 C 
ATOM     30  C   UNL     1      34.035 -13.719 -20.994  0.00  0.00    -0.077 C 
ATOM     31  C   UNL     1      33.374 -13.261 -23.280  0.00  0.00    -0.077 C 
ATOM     32  C   UNL     1      32.262 -12.154 -21.452  0.00  0.00    -0.101 C 
ATOM     33  H   UNL     1      32.243 -14.150 -21.847  0.00  0.00    -0.080 HD
ENDBRANCH  25  27
ENDBRANCH  24  25
ENDBRANCH  23  24
ENDBRANCH   1  23
TORSDOF 5
ENDMDL
MODEL 5
REMARK VINA RESULT:     -10.8      3.710     13.045
REMARK  Name = 23650961
REMARK  5 active torsions:
REMARK  status: ('A' for Active; 'I' for Inactive)
REMARK    1  A    between atoms: N_1  and  C_23
REMARK    2  A    between atoms: C_5  and  C_12
REMARK    3  A    between atoms: C_23  and  C_24
REMARK    4  A    between atoms: C_24  and  C_25
REMARK    5  A    between atoms: C_25  and  C_27
REMARK                            x       y       z     vdW  Elec       q    Type
REMARK                         _______ _______ _______ _____ _____    ______ ____
ROOT
ATOM      1  N   UNL     1      35.398 -20.304 -20.576  0.00  0.00    -0.268 N 
ATOM      2  N   UNL     1      34.660 -21.738 -18.871  0.00  0.00    -0.342 NA
ATOM      3  N   UNL     1      36.811 -20.660 -18.737  0.00  0.00    -0.170 NA
ATOM      4  C   UNL     1      35.631 -20.920 -19.356  0.00  0.00    +0.144 C 
ATOM      5  C   UNL     1      36.086 -22.126 -16.970  0.00  0.00    +0.061 C 
ATOM      6  C   UNL     1      34.919 -22.321 -17.683  0.00  0.00    +0.123 C 
ATOM      7  C   UNL     1      37.005 -21.276 -17.552  0.00  0.00    +0.113 C 
ATOM      8  C   UNL     1      33.845 -23.218 -17.160  0.00  0.00    +0.067 C 
ATOM      9  H   UNL     1      34.545 -20.486 -21.032  0.00  0.00    +0.159 HD
ENDROOT
BRANCH   5  12
ATOM     10  N   UNL     1      35.532 -22.584 -14.621  0.00  0.00    -0.314 N 
ATOM     11  N   UNL     1      37.371 -23.540 -15.426  0.00  0.00    -0.315 N 
ATOM     12  C   UNL     1      36.353 -22.753 -15.704  0.00  0.00    +0.171 C 
ATOM     13  C   UNL     1      36.056 -23.306 -13.579  0.00  0.00    +0.059 C 
ATOM     14  C   UNL     1      37.202 -23.894 -14.106  0.00  0.00    +0.055 C 
ATOM     15  C   UNL     1      37.991 -24.717 -13.285  0.00  0.00    -0.008 C 
ATOM     16  C   UNL     1      35.637 -23.491 -12.260  0.00  0.00    +0.011 C 
ATOM     17  C   UNL     1      36.434 -24.313 -11.456  0.00  0.00    -0.021 C 
ATOM     18  C   UNL     1      37.589 -24.916 -11.956  0.00  0.00    -0.007 C 
ATOM     19  C   UNL     1      39.235 -25.383 -13.773  0.00  0.00    +0.032 C 
ATOM     20  C   UNL     1      36.038 -24.550 -10.036  0.00  0.00    +0.031 C 
ATOM     21  H   UNL     1      34.713 -22.041 -14.594  0.00  0.00    +0.149 HD
ATOM     22  H   UNL     1      38.097 -23.815 -16.031  0.00  0.00    +0.149 HD
ENDBRANCH   5  12
BRANCH   1  23
ATOM     23  C   UNL     1      36.335 -19.411 -21.214  0.00  0.00    +0.098 C 
BRANCH  23  24
ATOM     24  C   UNL     1      35.624 -18.171 -21.747  0.00  0.00    +0.022 C 
BRANCH  24  25
ATOM     25  C   UNL     1      35.551 -18.150 -23.275  0.00  0.00    +0.002 C 
BRANCH  25  27
ATOM     26  N   UNL     1      33.739 -14.297 -24.000  0.00  0.00    +0.385 N 
ATOM     27  C   UNL     1      35.363 -16.729 -23.800  0.00  0.00    -0.004 C 
ATOM     28  C   UNL     1      35.234 -15.729 -22.646  0.00  0.00    -0.023 C 
ATOM     29  C   UNL     1      34.132 -16.635 -24.706  0.00  0.00    -0.023 C 
ATOM     30  C   UNL     1      34.945 -14.318 -23.161  0.00  0.00    -0.077 C 
ATOM     31  C   UNL     1      33.880 -15.194 -25.154  0.00  0.00    -0.077 C 
ATOM     32  C   UNL     1      33.446 -12.934 -24.443  0.00  0.00    -0.101 C 
ATOM     33  H   UNL     1      32.957 -14.632 -23.435  0.00  0.00    -0.080 HD
ENDBRANCH  25  27
ENDBRANCH  24  25
ENDBRANCH  23  24
ENDBRANCH   1  23
TORSDOF 5
ENDMDL
MODEL 6
REMARK VINA RESULT:     -10.7      2.266      4.014
REMARK  Name = 23650961
REMARK  5 active torsions:
REMARK  status: ('A' for Active; 'I' for Inactive)
REMARK    1  A    between atoms: N_1  and  C_23
REMARK    2  A    between atoms: C_5  and  C_12
REMARK    3  A    between atoms: C_23  and  C_24
REMARK    4  A    between atoms: C_24  and  C_25
REMARK    5  A    between atoms: C_25  and  C_27
REMARK                            x       y       z     vdW  Elec       q    Type
REMARK                         _______ _______ _______ _____ _____    ______ ____
ROOT
ATOM      1  N   UNL     1      33.838 -14.380 -22.944  0.00  0.00    -0.268 N 
ATOM      2  N   UNL     1      32.557 -12.610 -22.089  0.00  0.00    -0.342 NA
ATOM      3  N   UNL     1      34.298 -12.209 -23.706  0.00  0.00    -0.170 NA
ATOM      4  C   UNL     1      33.555 -13.024 -22.912  0.00  0.00    +0.144 C 
ATOM      5  C   UNL     1      33.003 -10.370 -22.848  0.00  0.00    +0.061 C 
ATOM      6  C   UNL     1      32.309 -11.284 -22.082  0.00  0.00    +0.123 C 
ATOM      7  C   UNL     1      33.997 -10.895 -23.649  0.00  0.00    +0.113 C 
ATOM      8  C   UNL     1      31.208 -10.842 -21.172  0.00  0.00    +0.067 C 
ATOM      9  H   UNL     1      33.305 -14.979 -22.373  0.00  0.00    +0.159 HD
ENDROOT
BRANCH   5  12
ATOM     10  N   UNL     1      32.361  -8.275 -23.961  0.00  0.00    -0.314 N 
ATOM     11  N   UNL     1      32.794  -8.165 -21.783  0.00  0.00    -0.315 N 
ATOM     12  C   UNL     1      32.731  -8.957 -22.833  0.00  0.00    +0.171 C 
ATOM     13  C   UNL     1      32.176  -6.961 -23.616  0.00  0.00    +0.059 C 
ATOM     14  C   UNL     1      32.452  -6.917 -22.252  0.00  0.00    +0.055 C 
ATOM     15  C   UNL     1      32.354  -5.692 -21.571  0.00  0.00    -0.008 C 
ATOM     16  C   UNL     1      31.802  -5.839 -24.358  0.00  0.00    +0.011 C 
ATOM     17  C   UNL     1      31.710  -4.627 -23.665  0.00  0.00    -0.021 C 
ATOM     18  C   UNL     1      31.980  -4.553 -22.297  0.00  0.00    -0.007 C 
ATOM     19  C   UNL     1      32.633  -5.561 -20.110  0.00  0.00    +0.032 C 
ATOM     20  C   UNL     1      31.313  -3.391 -24.404  0.00  0.00    +0.031 C 
ATOM     21  H   UNL     1      32.249  -8.659 -24.859  0.00  0.00    +0.149 HD
ATOM     22  H   UNL     1      33.035  -8.412 -20.861  0.00  0.00    +0.149 HD
ENDBRANCH   5  12
BRANCH   1  23
ATOM     23  C   UNL     1      34.869 -14.965 -23.768  0.00  0.00    +0.098 C 
BRANCH  23  24
ATOM     24  C   UNL     1      34.386 -16.271 -24.394  0.00  0.00    +0.022 C 
BRANCH  24  25
ATOM     25  C   UNL     1      35.408 -17.400 -24.249  0.00  0.00    +0.002 C 
BRANCH  25  27
ATOM     26  N   UNL     1      36.065 -20.035 -20.890  0.00  0.00    +0.385 N 
ATOM     27  C   UNL     1      35.484 -17.894 -22.806  0.00  0.00    -0.004 C 
ATOM     28  C   UNL     1      36.914 -18.306 -22.442  0.00  0.00    -0.023 C 
ATOM     29  C   UNL     1      34.532 -19.071 -22.576  0.00  0.00    -0.023 C 
ATOM     30  C   UNL     1      36.982 -18.896 -21.032  0.00  0.00    -0.077 C 
ATOM     31  C   UNL     1      34.677 -19.635 -21.161  0.00  0.00    -0.077 C 
ATOM     32  C   UNL     1      36.177 -20.620 -19.554  0.00  0.00    -0.101 C 
ATOM     33  H   UNL     1      36.330 -20.740 -21.579  0.00  0.00    -0.080 HD
ENDBRANCH  25  27
ENDBRANCH  24  25
ENDBRANCH  23  24
ENDBRANCH   1  23
TORSDOF 5
ENDMDL
MODEL 7
REMARK VINA RESULT:     -10.6      1.421      2.641
REMARK  Name = 23650961
REMARK  5 active torsions:
REMARK  status: ('A' for Active; 'I' for Inactive)
REMARK    1  A    between atoms: N_1  and  C_23
REMARK    2  A    between atoms: C_5  and  C_12
REMARK    3  A    between atoms: C_23  and  C_24
REMARK    4  A    between atoms: C_24  and  C_25
REMARK    5  A    between atoms: C_25  and  C_27
REMARK                            x       y       z     vdW  Elec       q    Type
REMARK                         _______ _______ _______ _____ _____    ______ ____
ROOT
ATOM      1  N   UNL     1      35.584 -18.439 -22.639  0.00  0.00    -0.268 N 
ATOM      2  N   UNL     1      34.728 -16.674 -23.927  0.00  0.00    -0.342 NA
ATOM      3  N   UNL     1      35.410 -16.321 -21.643  0.00  0.00    -0.170 NA
ATOM      4  C   UNL     1      35.230 -17.102 -22.739  0.00  0.00    +0.144 C 
ATOM      5  C   UNL     1      34.535 -14.488 -22.936  0.00  0.00    +0.061 C 
ATOM      6  C   UNL     1      34.393 -15.369 -23.990  0.00  0.00    +0.123 C 
ATOM      7  C   UNL     1      35.054 -15.026 -21.775  0.00  0.00    +0.113 C 
ATOM      8  C   UNL     1      33.842 -14.910 -25.301  0.00  0.00    +0.067 C 
ATOM      9  H   UNL     1      35.457 -19.013 -23.428  0.00  0.00    +0.159 HD
ENDROOT
BRANCH   5  12
ATOM     10  N   UNL     1      33.087 -12.591 -22.353  0.00  0.00    -0.314 N 
ATOM     11  N   UNL     1      34.809 -12.167 -23.694  0.00  0.00    -0.315 N 
ATOM     12  C   UNL     1      34.174 -13.098 -23.013  0.00  0.00    +0.171 C 
ATOM     13  C   UNL     1      33.017 -11.249 -22.627  0.00  0.00    +0.059 C 
ATOM     14  C   UNL     1      34.102 -11.009 -23.465  0.00  0.00    +0.055 C 
ATOM     15  C   UNL     1      34.325  -9.706 -23.940  0.00  0.00    -0.008 C 
ATOM     16  C   UNL     1      32.124 -10.254 -22.225  0.00  0.00    +0.011 C 
ATOM     17  C   UNL     1      32.360  -8.963 -22.708  0.00  0.00    -0.021 C 
ATOM     18  C   UNL     1      33.441  -8.691 -23.550  0.00  0.00    -0.007 C 
ATOM     19  C   UNL     1      35.465  -9.364 -24.843  0.00  0.00    +0.032 C 
ATOM     20  C   UNL     1      31.440  -7.855 -22.312  0.00  0.00    +0.031 C 
ATOM     21  H   UNL     1      32.466 -13.099 -21.784  0.00  0.00    +0.149 HD
ATOM     22  H   UNL     1      35.616 -12.276 -24.248  0.00  0.00    +0.149 HD
ENDBRANCH   5  12
BRANCH   1  23
ATOM     23  C   UNL     1      36.129 -19.035 -21.443  0.00  0.00    +0.098 C 
BRANCH  23  24
ATOM     24  C   UNL     1      35.044 -19.774 -20.663  0.00  0.00    +0.022 C 
BRANCH  24  25
ATOM     25  C   UNL     1      35.495 -21.161 -20.207  0.00  0.00    +0.002 C 
BRANCH  25  27
ATOM     26  N   UNL     1      35.398 -23.049 -16.323  0.00  0.00    +0.385 N 
ATOM     27  C   UNL     1      35.266 -21.352 -18.709  0.00  0.00    -0.004 C 
ATOM     28  C   UNL     1      36.582 -21.651 -17.985  0.00  0.00    -0.023 C 
ATOM     29  C   UNL     1      34.262 -22.479 -18.445  0.00  0.00    -0.023 C 
ATOM     30  C   UNL     1      36.348 -21.943 -16.502  0.00  0.00    -0.077 C 
ATOM     31  C   UNL     1      34.104 -22.742 -16.946  0.00  0.00    -0.077 C 
ATOM     32  C   UNL     1      35.223 -23.350 -14.902  0.00  0.00    -0.101 C 
ATOM     33  H   UNL     1      35.783 -23.872 -16.786  0.00  0.00    -0.080 HD
ENDBRANCH  25  27
ENDBRANCH  24  25
ENDBRANCH  23  24
ENDBRANCH   1  23
TORSDOF 5
ENDMDL
MODEL 8
REMARK VINA RESULT:     -10.6      1.840      3.411
REMARK  Name = 23650961
REMARK  5 active torsions:
REMARK  status: ('A' for Active; 'I' for Inactive)
REMARK    1  A    between atoms: N_1  and  C_23
REMARK    2  A    between atoms: C_5  and  C_12
REMARK    3  A    between atoms: C_23  and  C_24
REMARK    4  A    between atoms: C_24  and  C_25
REMARK    5  A    between atoms: C_25  and  C_27
REMARK                            x       y       z     vdW  Elec       q    Type
REMARK                         _______ _______ _______ _____ _____    ______ ____
ROOT
ATOM      1  N   UNL     1      33.927 -15.154 -23.617  0.00  0.00    -0.268 N 
ATOM      2  N   UNL     1      33.007 -13.319 -22.479  0.00  0.00    -0.342 NA
ATOM      3  N   UNL     1      34.340 -13.005 -24.462  0.00  0.00    -0.170 NA
ATOM      4  C   UNL     1      33.752 -13.783 -23.516  0.00  0.00    +0.144 C 
ATOM      5  C   UNL     1      33.412 -11.100 -23.319  0.00  0.00    +0.061 C 
ATOM      6  C   UNL     1      32.858 -11.980 -22.411  0.00  0.00    +0.123 C 
ATOM      7  C   UNL     1      34.150 -11.675 -24.333  0.00  0.00    +0.113 C 
ATOM      8  C   UNL     1      32.036 -11.483 -21.267  0.00  0.00    +0.067 C 
ATOM      9  H   UNL     1      33.504 -15.726 -22.936  0.00  0.00    +0.159 HD
ENDROOT
BRANCH   5  12
ATOM     10  N   UNL     1      32.175  -9.099 -22.609  0.00  0.00    -0.314 N 
ATOM     11  N   UNL     1      34.066  -8.767 -23.729  0.00  0.00    -0.315 N 
ATOM     12  C   UNL     1      33.248  -9.673 -23.237  0.00  0.00    +0.171 C 
ATOM     13  C   UNL     1      32.312  -7.737 -22.703  0.00  0.00    +0.059 C 
ATOM     14  C   UNL     1      33.499  -7.555 -23.405  0.00  0.00    +0.055 C 
ATOM     15  C   UNL     1      33.941  -6.250 -23.678  0.00  0.00    -0.008 C 
ATOM     16  C   UNL     1      31.522  -6.681 -22.246  0.00  0.00    +0.011 C 
ATOM     17  C   UNL     1      31.975  -5.388 -22.527  0.00  0.00    -0.021 C 
ATOM     18  C   UNL     1      33.163  -5.174 -23.230  0.00  0.00    -0.007 C 
ATOM     19  C   UNL     1      35.203  -5.969 -24.427  0.00  0.00    +0.032 C 
ATOM     20  C   UNL     1      31.174  -4.216 -22.065  0.00  0.00    +0.031 C 
ATOM     21  H   UNL     1      31.437  -9.578 -22.168  0.00  0.00    +0.149 HD
ATOM     22  H   UNL     1      34.905  -8.923 -24.222  0.00  0.00    +0.149 HD
ENDBRANCH   5  12
BRANCH   1  23
ATOM     23  C   UNL     1      34.691 -15.790 -24.662  0.00  0.00    +0.098 C 
BRANCH  23  24
ATOM     24  C   UNL     1      35.312 -17.092 -24.164  0.00  0.00    +0.022 C 
BRANCH  24  25
ATOM     25  C   UNL     1      35.765 -17.003 -22.706  0.00  0.00    +0.002 C 
BRANCH  25  27
ATOM     26  N   UNL     1      36.068 -20.147 -19.759  0.00  0.00    +0.385 N 
ATOM     27  C   UNL     1      35.970 -18.392 -22.105  0.00  0.00    -0.004 C 
ATOM     28  C   UNL     1      34.706 -18.870 -21.382  0.00  0.00    -0.023 C 
ATOM     29  C   UNL     1      37.156 -18.403 -21.136  0.00  0.00    -0.023 C 
ATOM     30  C   UNL     1      34.935 -20.215 -20.692  0.00  0.00    -0.077 C 
ATOM     31  C   UNL     1      37.304 -19.765 -20.455  0.00  0.00    -0.077 C 
ATOM     32  C   UNL     1      36.243 -21.425 -19.070  0.00  0.00    -0.101 C 
ATOM     33  H   UNL     1      35.862 -19.427 -19.066  0.00  0.00    -0.080 HD
ENDBRANCH  25  27
ENDBRANCH  24  25
ENDBRANCH  23  24
ENDBRANCH   1  23
TORSDOF 5
ENDMDL
MODEL 9
REMARK VINA RESULT:     -10.4      2.308     11.712
REMARK  Name = 23650961
REMARK  5 active torsions:
REMARK  status: ('A' for Active; 'I' for Inactive)
REMARK    1  A    between atoms: N_1  and  C_23
REMARK    2  A    between atoms: C_5  and  C_12
REMARK    3  A    between atoms: C_23  and  C_24
REMARK    4  A    between atoms: C_24  and  C_25
REMARK    5  A    between atoms: C_25  and  C_27
REMARK                            x       y       z     vdW  Elec       q    Type
REMARK                         _______ _______ _______ _____ _____    ______ ____
ROOT
ATOM      1  N   UNL     1      35.505 -19.119 -22.472  0.00  0.00    -0.268 N 
ATOM      2  N   UNL     1      35.815 -20.370 -20.511  0.00  0.00    -0.342 NA
ATOM      3  N   UNL     1      33.603 -19.835 -21.301  0.00  0.00    -0.170 NA
ATOM      4  C   UNL     1      34.957 -19.796 -21.394  0.00  0.00    +0.144 C 
ATOM      5  C   UNL     1      33.885 -21.120 -19.284  0.00  0.00    +0.061 C 
ATOM      6  C   UNL     1      35.249 -21.020 -19.474  0.00  0.00    +0.123 C 
ATOM      7  C   UNL     1      33.103 -20.501 -20.239  0.00  0.00    +0.113 C 
ATOM      8  C   UNL     1      36.203 -21.646 -18.510  0.00  0.00    +0.067 C 
ATOM      9  H   UNL     1      36.486 -19.085 -22.549  0.00  0.00    +0.159 HD
ENDROOT
BRANCH   5  12
ATOM     10  N   UNL     1      34.044 -22.475 -17.241  0.00  0.00    -0.314 N 
ATOM     11  N   UNL     1      32.003 -21.905 -17.913  0.00  0.00    -0.315 N 
ATOM     12  C   UNL     1      33.290 -21.814 -18.174  0.00  0.00    +0.171 C 
ATOM     13  C   UNL     1      33.188 -23.027 -16.322  0.00  0.00    +0.059 C 
ATOM     14  C   UNL     1      31.921 -22.656 -16.763  0.00  0.00    +0.055 C 
ATOM     15  C   UNL     1      30.794 -23.067 -16.031  0.00  0.00    -0.008 C 
ATOM     16  C   UNL     1      33.407 -23.794 -15.177  0.00  0.00    +0.011 C 
ATOM     17  C   UNL     1      32.275 -24.195 -14.461  0.00  0.00    -0.021 C 
ATOM     18  C   UNL     1      30.991 -23.839 -14.878  0.00  0.00    -0.007 C 
ATOM     19  C   UNL     1      29.400 -22.713 -16.436  0.00  0.00    +0.032 C 
ATOM     20  C   UNL     1      32.444 -25.017 -13.226  0.00  0.00    +0.031 C 
ATOM     21  H   UNL     1      35.025 -22.543 -17.231  0.00  0.00    +0.149 HD
ATOM     22  H   UNL     1      31.259 -21.518 -18.429  0.00  0.00    +0.149 HD
ENDBRANCH   5  12
BRANCH   1  23
ATOM     23  C   UNL     1      34.720 -18.461 -23.489  0.00  0.00    +0.098 C 
BRANCH  23  24
ATOM     24  C   UNL     1      35.311 -17.097 -23.832  0.00  0.00    +0.022 C 
BRANCH  24  25
ATOM     25  C   UNL     1      35.092 -16.069 -22.721  0.00  0.00    +0.002 C 
BRANCH  25  27
ATOM     26  N   UNL     1      34.278 -12.280 -24.627  0.00  0.00    +0.385 N 
ATOM     27  C   UNL     1      34.316 -14.858 -23.234  0.00  0.00    -0.004 C 
ATOM     28  C   UNL     1      34.417 -14.746 -24.758  0.00  0.00    -0.023 C 
ATOM     29  C   UNL     1      34.822 -13.566 -22.585  0.00  0.00    -0.023 C 
ATOM     30  C   UNL     1      33.728 -13.480 -25.270  0.00  0.00    -0.077 C 
ATOM     31  C   UNL     1      34.118 -12.339 -23.168  0.00  0.00    -0.077 C 
ATOM     32  C   UNL     1      33.646 -11.075 -25.163  0.00  0.00    -0.101 C 
ATOM     33  H   UNL     1      35.277 -12.243 -24.833  0.00  0.00    -0.080 HD
ENDBRANCH  25  27
ENDBRANCH  24  25
ENDBRANCH  23  24
ENDBRANCH   1  23
TORSDOF 5
ENDMDL
