MODEL 1
REMARK VINA RESULT:     -12.8      0.000      0.000
REMARK  Name = 71245288
REMARK  5 active torsions:
REMARK  status: ('A' for Active; 'I' for Inactive)
REMARK    1  A    between atoms: C_3  and  C_9
REMARK    2  A    between atoms: C_6  and  N_14
REMARK    3  A    between atoms: C_15  and  C_18
REMARK    4  A    between atoms: C_22  and  C_30
REMARK    5  A    between atoms: N_27  and  C_32
REMARK                            x       y       z     vdW  Elec       q    Type
REMARK                         _______ _______ _______ _____ _____    ______ ____
ROOT
ATOM      1  O   UNL     1      32.905 -21.504 -19.574  0.00  0.00    -0.270 OA
ATOM      2  N   UNL     1      34.496 -21.833 -17.880  0.00  0.00    -0.259 N 
ATOM      3  C   UNL     1      34.050 -21.354 -19.121  0.00  0.00    +0.253 C 
ATOM      4  H   UNL     1      35.434 -21.635 -17.657  0.00  0.00    +0.157 HD
ATOM      5  N   UNL     1      34.406 -22.930 -15.772  0.00  0.00    -0.388 NA
ATOM      6  C   UNL     1      33.676 -23.629 -14.874  0.00  0.00    +0.166 C 
ATOM      7  C   UNL     1      33.773 -22.566 -16.908  0.00  0.00    +0.167 C 
ATOM      8  C   UNL     1      32.348 -23.977 -15.058  0.00  0.00    +0.031 C 
ATOM      9  C   UNL     1      32.449 -22.865 -17.188  0.00  0.00    +0.101 C 
ATOM     10  C   UNL     1      31.729 -23.584 -16.240  0.00  0.00    -0.015 C 
ENDROOT
BRANCH   3  15
ATOM     11  F   UNL     1      36.799 -21.424 -18.548  0.00  0.00    -0.204 F 
ATOM     12  C   UNL     1      35.534 -19.095 -21.715  0.00  0.00    +0.046 C 
ATOM     13  C   UNL     1      36.889 -19.162 -21.392  0.00  0.00    -0.006 C 
ATOM     14  C   UNL     1      34.602 -19.815 -20.968  0.00  0.00    +0.021 C 
ATOM     15  C   UNL     1      35.025 -20.603 -19.898  0.00  0.00    +0.082 C 
ATOM     16  C   UNL     1      37.312 -19.949 -20.322  0.00  0.00    +0.027 C 
ATOM     17  C   UNL     1      37.914 -18.402 -22.171  0.00  0.00    +0.032 C 
ATOM     18  C   UNL     1      36.380 -20.670 -19.575  0.00  0.00    +0.144 C 
BRANCH  12  20
ATOM     19  N   UNL     1      34.139 -17.785 -24.708  0.00  0.00    -0.255 NA
ATOM     20  N   UNL     1      35.093 -18.319 -22.774  0.00  0.00    -0.282 N 
ATOM     21  C   UNL     1      34.648 -16.661 -24.107  0.00  0.00    +0.053 C 
ATOM     22  C   UNL     1      35.244 -16.967 -22.906  0.00  0.00    +0.134 C 
ATOM     23  C   UNL     1      34.423 -18.765 -23.880  0.00  0.00    +0.219 C 
BRANCH  21  24
ATOM     24  C   UNL     1      34.559 -15.259 -24.701  0.00  0.00    +0.037 C 
ATOM     25  C   UNL     1      33.696 -14.240 -24.015  0.00  0.00    +0.006 C 
ATOM     26  C   UNL     1      33.268 -14.824 -25.330  0.00  0.00    +0.006 C 
ENDBRANCH  21  24
ENDBRANCH  12  20
ENDBRANCH   3  15
BRANCH   6  30
ATOM     27  N   UNL     1      35.651 -24.504 -13.669  0.00  0.00    -0.252 N 
ATOM     28  N   UNL     1      33.939 -23.902 -12.447  0.00  0.00    -0.129 NA
ATOM     29  N   UNL     1      34.935 -24.359 -11.607  0.00  0.00    -0.128 NA
ATOM     30  C   UNL     1      34.387 -23.997 -13.678  0.00  0.00    +0.188 C 
ATOM     31  C   UNL     1      35.952 -24.715 -12.357  0.00  0.00    +0.192 C 
BRANCH  27  32
ATOM     32  C   UNL     1      36.513 -24.770 -14.795  0.00  0.00    +0.080 C 
ATOM     33  C   UNL     1      37.825 -23.989 -14.697  0.00  0.00    +0.022 C 
ATOM     34  C   UNL     1      36.781 -26.268 -14.958  0.00  0.00    +0.022 C 
ENDBRANCH  27  32
ENDBRANCH   6  30
TORSDOF 5
ENDMDL
MODEL 2
REMARK VINA RESULT:     -11.8      1.638     10.694
REMARK  Name = 71245288
REMARK  5 active torsions:
REMARK  status: ('A' for Active; 'I' for Inactive)
REMARK    1  A    between atoms: C_3  and  C_9
REMARK    2  A    between atoms: C_6  and  N_14
REMARK    3  A    between atoms: C_15  and  C_18
REMARK    4  A    between atoms: C_22  and  C_30
REMARK    5  A    between atoms: N_27  and  C_32
REMARK                            x       y       z     vdW  Elec       q    Type
REMARK                         _______ _______ _______ _____ _____    ______ ____
ROOT
ATOM      1  O   UNL     1      36.930 -21.316 -18.313  0.00  0.00    -0.270 OA
ATOM      2  N   UNL     1      35.145 -20.604 -19.660  0.00  0.00    -0.259 N 
ATOM      3  C   UNL     1      35.719 -21.299 -18.586  0.00  0.00    +0.253 C 
ATOM      4  H   UNL     1      34.168 -20.686 -19.749  0.00  0.00    +0.157 HD
ATOM      5  N   UNL     1      35.031 -19.220 -21.591  0.00  0.00    -0.388 NA
ATOM      6  C   UNL     1      35.688 -18.464 -22.499  0.00  0.00    +0.166 C 
ATOM      7  C   UNL     1      35.787 -19.802 -20.635  0.00  0.00    +0.167 C 
ATOM      8  C   UNL     1      37.059 -18.262 -22.494  0.00  0.00    +0.031 C 
ATOM      9  C   UNL     1      37.163 -19.663 -20.542  0.00  0.00    +0.101 C 
ATOM     10  C   UNL     1      37.803 -18.877 -21.494  0.00  0.00    -0.015 C 
ENDROOT
BRANCH   3  15
ATOM     11  F   UNL     1      33.052 -21.771 -19.328  0.00  0.00    -0.204 F 
ATOM     12  C   UNL     1      34.335 -23.204 -15.673  0.00  0.00    +0.046 C 
ATOM     13  C   UNL     1      33.018 -23.414 -16.086  0.00  0.00    -0.006 C 
ATOM     14  C   UNL     1      35.221 -22.509 -16.495  0.00  0.00    +0.021 C 
ATOM     15  C   UNL     1      34.792 -22.023 -17.730  0.00  0.00    +0.082 C 
ATOM     16  C   UNL     1      32.589 -22.928 -17.320  0.00  0.00    +0.027 C 
ATOM     17  C   UNL     1      32.042 -24.154 -15.228  0.00  0.00    +0.032 C 
ATOM     18  C   UNL     1      33.476 -22.233 -18.142  0.00  0.00    +0.144 C 
BRANCH  12  20
ATOM     19  N   UNL     1      34.780 -24.176 -12.285  0.00  0.00    -0.255 NA
ATOM     20  N   UNL     1      34.781 -23.678 -14.450  0.00  0.00    -0.282 N 
ATOM     21  C   UNL     1      35.968 -24.558 -12.857  0.00  0.00    +0.053 C 
ATOM     22  C   UNL     1      35.992 -24.259 -14.199  0.00  0.00    +0.134 C 
ATOM     23  C   UNL     1      34.088 -23.650 -13.271  0.00  0.00    +0.219 C 
BRANCH  21  24
ATOM     24  C   UNL     1      37.108 -25.226 -12.095  0.00  0.00    +0.037 C 
ATOM     25  C   UNL     1      38.387 -24.466 -11.901  0.00  0.00    +0.006 C 
ATOM     26  C   UNL     1      38.340 -25.628 -12.850  0.00  0.00    +0.006 C 
ENDBRANCH  21  24
ENDBRANCH  12  20
ENDBRANCH   3  15
BRANCH   6  30
ATOM     27  N   UNL     1      34.662 -16.520 -23.634  0.00  0.00    -0.252 N 
ATOM     28  N   UNL     1      34.150 -18.499 -24.414  0.00  0.00    -0.129 NA
ATOM     29  N   UNL     1      33.489 -17.549 -25.167  0.00  0.00    -0.128 NA
ATOM     30  C   UNL     1      34.847 -17.862 -23.501  0.00  0.00    +0.188 C 
ATOM     31  C   UNL     1      33.809 -16.370 -24.686  0.00  0.00    +0.192 C 
BRANCH  27  32
ATOM     32  C   UNL     1      35.238 -15.458 -22.845  0.00  0.00    +0.080 C 
ATOM     33  C   UNL     1      34.851 -14.080 -23.386  0.00  0.00    +0.022 C 
ATOM     34  C   UNL     1      34.862 -15.588 -21.367  0.00  0.00    +0.022 C 
ENDBRANCH  27  32
ENDBRANCH   6  30
TORSDOF 5
ENDMDL
MODEL 3
REMARK VINA RESULT:     -11.7      3.190     11.038
REMARK  Name = 71245288
REMARK  5 active torsions:
REMARK  status: ('A' for Active; 'I' for Inactive)
REMARK    1  A    between atoms: C_3  and  C_9
REMARK    2  A    between atoms: C_6  and  N_14
REMARK    3  A    between atoms: C_15  and  C_18
REMARK    4  A    between atoms: C_22  and  C_30
REMARK    5  A    between atoms: N_27  and  C_32
REMARK                            x       y       z     vdW  Elec       q    Type
REMARK                         _______ _______ _______ _____ _____    ______ ____
ROOT
ATOM      1  O   UNL     1      34.523 -18.405 -24.226  0.00  0.00    -0.270 OA
ATOM      2  N   UNL     1      34.808 -16.431 -22.990  0.00  0.00    -0.259 N 
ATOM      3  C   UNL     1      34.880 -17.817 -23.194  0.00  0.00    +0.253 C 
ATOM      4  H   UNL     1      35.130 -16.110 -22.117  0.00  0.00    +0.157 HD
ATOM      5  N   UNL     1      34.354 -14.145 -23.469  0.00  0.00    -0.388 NA
ATOM      6  C   UNL     1      33.889 -13.230 -24.348  0.00  0.00    +0.166 C 
ATOM      7  C   UNL     1      34.332 -15.434 -23.875  0.00  0.00    +0.167 C 
ATOM      8  C   UNL     1      33.407 -13.541 -25.609  0.00  0.00    +0.031 C 
ATOM      9  C   UNL     1      33.870 -15.848 -25.115  0.00  0.00    +0.101 C 
ATOM     10  C   UNL     1      33.400 -14.877 -25.992  0.00  0.00    -0.015 C 
ENDROOT
BRANCH   3  15
ATOM     11  F   UNL     1      37.624 -17.779 -22.596  0.00  0.00    -0.204 F 
ATOM     12  C   UNL     1      35.158 -20.127 -20.258  0.00  0.00    +0.046 C 
ATOM     13  C   UNL     1      36.528 -20.076 -20.000  0.00  0.00    -0.006 C 
ATOM     14  C   UNL     1      34.618 -19.385 -21.308  0.00  0.00    +0.021 C 
ATOM     15  C   UNL     1      35.447 -18.590 -22.100  0.00  0.00    +0.082 C 
ATOM     16  C   UNL     1      37.357 -19.282 -20.792  0.00  0.00    +0.027 C 
ATOM     17  C   UNL     1      37.140 -20.860 -18.883  0.00  0.00    +0.032 C 
ATOM     18  C   UNL     1      36.817 -18.539 -21.841  0.00  0.00    +0.144 C 
BRANCH  12  20
ATOM     19  N   UNL     1      32.438 -21.706 -18.607  0.00  0.00    -0.255 NA
ATOM     20  N   UNL     1      34.317 -20.909 -19.484  0.00  0.00    -0.282 N 
ATOM     21  C   UNL     1      33.520 -22.382 -18.100  0.00  0.00    +0.053 C 
ATOM     22  C   UNL     1      34.696 -21.905 -18.629  0.00  0.00    +0.134 C 
ATOM     23  C   UNL     1      32.953 -20.827 -19.438  0.00  0.00    +0.219 C 
BRANCH  21  24
ATOM     24  C   UNL     1      33.420 -23.513 -17.081  0.00  0.00    +0.037 C 
ATOM     25  C   UNL     1      32.519 -23.335 -15.894  0.00  0.00    +0.006 C 
ATOM     26  C   UNL     1      34.010 -23.308 -15.717  0.00  0.00    +0.006 C 
ENDBRANCH  21  24
ENDBRANCH  12  20
ENDBRANCH   3  15
BRANCH   6  30
ATOM     27  N   UNL     1      33.172 -11.397 -22.849  0.00  0.00    -0.252 N 
ATOM     28  N   UNL     1      34.686 -10.906 -24.350  0.00  0.00    -0.129 NA
ATOM     29  N   UNL     1      34.415  -9.769 -23.616  0.00  0.00    -0.128 NA
ATOM     30  C   UNL     1      33.930 -11.870 -23.876  0.00  0.00    +0.188 C 
ATOM     31  C   UNL     1      33.507 -10.083 -22.721  0.00  0.00    +0.192 C 
BRANCH  27  32
ATOM     32  C   UNL     1      32.210 -12.114 -22.048  0.00  0.00    +0.080 C 
ATOM     33  C   UNL     1      32.889 -12.904 -20.926  0.00  0.00    +0.022 C 
ATOM     34  C   UNL     1      31.138 -11.179 -21.484  0.00  0.00    +0.022 C 
ENDBRANCH  27  32
ENDBRANCH   6  30
TORSDOF 5
ENDMDL
MODEL 4
REMARK VINA RESULT:     -11.7      5.568      9.880
REMARK  Name = 71245288
REMARK  5 active torsions:
REMARK  status: ('A' for Active; 'I' for Inactive)
REMARK    1  A    between atoms: C_3  and  C_9
REMARK    2  A    between atoms: C_6  and  N_14
REMARK    3  A    between atoms: C_15  and  C_18
REMARK    4  A    between atoms: C_22  and  C_30
REMARK    5  A    between atoms: N_27  and  C_32
REMARK                            x       y       z     vdW  Elec       q    Type
REMARK                         _______ _______ _______ _____ _____    ______ ____
ROOT
ATOM      1  O   UNL     1      33.165 -13.278 -24.301  0.00  0.00    -0.270 OA
ATOM      2  N   UNL     1      34.097 -14.288 -22.399  0.00  0.00    -0.259 N 
ATOM      3  C   UNL     1      33.407 -13.278 -23.084  0.00  0.00    +0.253 C 
ATOM      4  H   UNL     1      34.213 -14.147 -21.432  0.00  0.00    +0.157 HD
ATOM      5  N   UNL     1      35.279 -16.326 -22.067  0.00  0.00    -0.388 NA
ATOM      6  C   UNL     1      35.791 -17.454 -22.608  0.00  0.00    +0.166 C 
ATOM      7  C   UNL     1      34.650 -15.485 -22.917  0.00  0.00    +0.167 C 
ATOM      8  C   UNL     1      35.702 -17.780 -23.952  0.00  0.00    +0.031 C 
ATOM      9  C   UNL     1      34.507 -15.718 -24.276  0.00  0.00    +0.101 C 
ATOM     10  C   UNL     1      35.046 -16.890 -24.795  0.00  0.00    -0.015 C 
ENDROOT
BRANCH   3  15
ATOM     11  F   UNL     1      32.464 -13.642 -20.464  0.00  0.00    -0.204 F 
ATOM     12  C   UNL     1      32.476  -9.812 -22.008  0.00  0.00    +0.046 C 
ATOM     13  C   UNL     1      32.017 -10.044 -20.711  0.00  0.00    -0.006 C 
ATOM     14  C   UNL     1      32.932 -10.876 -22.787  0.00  0.00    +0.021 C 
ATOM     15  C   UNL     1      32.930 -12.171 -22.269  0.00  0.00    +0.082 C 
ATOM     16  C   UNL     1      32.014 -11.338 -20.194  0.00  0.00    +0.027 C 
ATOM     17  C   UNL     1      31.520  -8.927 -19.850  0.00  0.00    +0.032 C 
ATOM     18  C   UNL     1      32.471 -12.402 -20.973  0.00  0.00    +0.144 C 
BRANCH  12  20
ATOM     19  N   UNL     1      31.727  -6.627 -23.391  0.00  0.00    -0.255 NA
ATOM     20  N   UNL     1      32.487  -8.534 -22.542  0.00  0.00    -0.282 N 
ATOM     21  C   UNL     1      33.097  -6.595 -23.308  0.00  0.00    +0.053 C 
ATOM     22  C   UNL     1      33.591  -7.766 -22.784  0.00  0.00    +0.134 C 
ATOM     23  C   UNL     1      31.392  -7.808 -22.921  0.00  0.00    +0.219 C 
BRANCH  21  24
ATOM     24  C   UNL     1      33.952  -5.408 -23.743  0.00  0.00    +0.037 C 
ATOM     25  C   UNL     1      33.791  -4.878 -25.137  0.00  0.00    +0.006 C 
ATOM     26  C   UNL     1      35.032  -5.633 -24.760  0.00  0.00    +0.006 C 
ENDBRANCH  21  24
ENDBRANCH  12  20
ENDBRANCH   3  15
BRANCH   6  30
ATOM     27  N   UNL     1      35.806 -19.214 -20.870  0.00  0.00    -0.252 N 
ATOM     28  N   UNL     1      37.747 -18.387 -21.450  0.00  0.00    -0.129 NA
ATOM     29  N   UNL     1      37.955 -19.345 -20.479  0.00  0.00    -0.128 NA
ATOM     30  C   UNL     1      36.453 -18.322 -21.670  0.00  0.00    +0.188 C 
ATOM     31  C   UNL     1      36.781 -19.830 -20.144  0.00  0.00    +0.192 C 
BRANCH  27  32
ATOM     32  C   UNL     1      34.389 -19.474 -20.788  0.00  0.00    +0.080 C 
ATOM     33  C   UNL     1      33.765 -19.633 -22.177  0.00  0.00    +0.022 C 
ATOM     34  C   UNL     1      34.090 -20.693 -19.913  0.00  0.00    +0.022 C 
ENDBRANCH  27  32
ENDBRANCH   6  30
TORSDOF 5
ENDMDL
MODEL 5
REMARK VINA RESULT:     -11.4      5.770     10.071
REMARK  Name = 71245288
REMARK  5 active torsions:
REMARK  status: ('A' for Active; 'I' for Inactive)
REMARK    1  A    between atoms: C_3  and  C_9
REMARK    2  A    between atoms: C_6  and  N_14
REMARK    3  A    between atoms: C_15  and  C_18
REMARK    4  A    between atoms: C_22  and  C_30
REMARK    5  A    between atoms: N_27  and  C_32
REMARK                            x       y       z     vdW  Elec       q    Type
REMARK                         _______ _______ _______ _____ _____    ______ ____
ROOT
ATOM      1  O   UNL     1      33.150 -13.068 -24.193  0.00  0.00    -0.270 OA
ATOM      2  N   UNL     1      34.082 -14.141 -22.326  0.00  0.00    -0.259 N 
ATOM      3  C   UNL     1      33.391 -13.109 -22.977  0.00  0.00    +0.253 C 
ATOM      4  H   UNL     1      34.197 -14.033 -21.355  0.00  0.00    +0.157 HD
ATOM      5  N   UNL     1      35.269 -16.186 -22.063  0.00  0.00    -0.388 NA
ATOM      6  C   UNL     1      35.783 -17.294 -22.641  0.00  0.00    +0.166 C 
ATOM      7  C   UNL     1      34.638 -15.318 -22.884  0.00  0.00    +0.167 C 
ATOM      8  C   UNL     1      35.695 -17.574 -23.996  0.00  0.00    +0.031 C 
ATOM      9  C   UNL     1      34.497 -15.505 -24.250  0.00  0.00    +0.101 C 
ATOM     10  C   UNL     1      35.039 -16.658 -24.809  0.00  0.00    -0.015 C 
ENDROOT
BRANCH   3  15
ATOM     11  F   UNL     1      32.342 -13.577 -20.414  0.00  0.00    -0.204 F 
ATOM     12  C   UNL     1      32.506  -9.677 -21.763  0.00  0.00    +0.046 C 
ATOM     13  C   UNL     1      31.993  -9.960 -20.496  0.00  0.00    -0.006 C 
ATOM     14  C   UNL     1      32.965 -10.713 -22.577  0.00  0.00    +0.021 C 
ATOM     15  C   UNL     1      32.911 -12.031 -22.125  0.00  0.00    +0.082 C 
ATOM     16  C   UNL     1      31.939 -11.278 -20.045  0.00  0.00    +0.027 C 
ATOM     17  C   UNL     1      31.492  -8.874 -19.599  0.00  0.00    +0.032 C 
ATOM     18  C   UNL     1      32.399 -12.314 -20.859  0.00  0.00    +0.144 C 
BRANCH  12  20
ATOM     19  N   UNL     1      33.264  -6.279 -22.464  0.00  0.00    -0.255 NA
ATOM     20  N   UNL     1      32.568  -8.375 -22.230  0.00  0.00    -0.282 N 
ATOM     21  C   UNL     1      32.201  -6.519 -23.298  0.00  0.00    +0.053 C 
ATOM     22  C   UNL     1      31.752  -7.812 -23.171  0.00  0.00    +0.134 C 
ATOM     23  C   UNL     1      33.460  -7.417 -21.836  0.00  0.00    +0.219 C 
BRANCH  21  24
ATOM     24  C   UNL     1      31.601  -5.479 -24.240  0.00  0.00    +0.037 C 
ATOM     25  C   UNL     1      32.508  -4.776 -25.207  0.00  0.00    +0.006 C 
ATOM     26  C   UNL     1      31.944  -4.034 -24.030  0.00  0.00    +0.006 C 
ENDBRANCH  21  24
ENDBRANCH  12  20
ENDBRANCH   3  15
BRANCH   6  30
ATOM     27  N   UNL     1      35.801 -19.113 -20.964  0.00  0.00    -0.252 N 
ATOM     28  N   UNL     1      37.740 -18.262 -21.515  0.00  0.00    -0.129 NA
ATOM     29  N   UNL     1      37.949 -19.253 -20.577  0.00  0.00    -0.128 NA
ATOM     30  C   UNL     1      36.447 -18.193 -21.733  0.00  0.00    +0.188 C 
ATOM     31  C   UNL     1      36.776 -19.751 -20.260  0.00  0.00    +0.192 C 
BRANCH  27  32
ATOM     32  C   UNL     1      34.384 -19.378 -20.893  0.00  0.00    +0.080 C 
ATOM     33  C   UNL     1      33.780 -19.586 -22.284  0.00  0.00    +0.022 C 
ATOM     34  C   UNL     1      34.080 -20.569 -19.983  0.00  0.00    +0.022 C 
ENDBRANCH  27  32
ENDBRANCH   6  30
TORSDOF 5
ENDMDL
MODEL 6
REMARK VINA RESULT:     -11.0      2.732      5.080
REMARK  Name = 71245288
REMARK  5 active torsions:
REMARK  status: ('A' for Active; 'I' for Inactive)
REMARK    1  A    between atoms: C_3  and  C_9
REMARK    2  A    between atoms: C_6  and  N_14
REMARK    3  A    between atoms: C_15  and  C_18
REMARK    4  A    between atoms: C_22  and  C_30
REMARK    5  A    between atoms: N_27  and  C_32
REMARK                            x       y       z     vdW  Elec       q    Type
REMARK                         _______ _______ _______ _____ _____    ______ ____
ROOT
ATOM      1  O   UNL     1      37.082 -18.451 -22.054  0.00  0.00    -0.270 OA
ATOM      2  N   UNL     1      35.019 -19.220 -21.243  0.00  0.00    -0.259 N 
ATOM      3  C   UNL     1      35.842 -18.454 -22.081  0.00  0.00    +0.253 C 
ATOM      4  H   UNL     1      34.050 -19.116 -21.383  0.00  0.00    +0.157 HD
ATOM      5  N   UNL     1      34.430 -20.761 -19.529  0.00  0.00    -0.388 NA
ATOM      6  C   UNL     1      34.842 -21.613 -18.563  0.00  0.00    +0.166 C 
ATOM      7  C   UNL     1      35.400 -20.123 -20.220  0.00  0.00    +0.167 C 
ATOM      8  C   UNL     1      36.172 -21.855 -18.259  0.00  0.00    +0.031 C 
ATOM      9  C   UNL     1      36.756 -20.296 -19.993  0.00  0.00    +0.101 C 
ATOM     10  C   UNL     1      37.141 -21.180 -18.992  0.00  0.00    -0.015 C 
ENDROOT
BRANCH   3  15
ATOM     11  F   UNL     1      34.678 -19.538 -24.396  0.00  0.00    -0.204 F 
ATOM     12  C   UNL     1      34.400 -15.460 -23.810  0.00  0.00    +0.046 C 
ATOM     13  C   UNL     1      33.838 -16.045 -24.945  0.00  0.00    -0.006 C 
ATOM     14  C   UNL     1      35.059 -16.252 -22.870  0.00  0.00    +0.021 C 
ATOM     15  C   UNL     1      35.155 -17.630 -23.064  0.00  0.00    +0.082 C 
ATOM     16  C   UNL     1      33.935 -17.422 -25.139  0.00  0.00    +0.027 C 
ATOM     17  C   UNL     1      33.126 -15.225 -25.973  0.00  0.00    +0.032 C 
ATOM     18  C   UNL     1      34.593 -18.215 -24.198  0.00  0.00    +0.144 C 
BRANCH  12  20
ATOM     19  N   UNL     1      34.180 -12.160 -22.513  0.00  0.00    -0.255 NA
ATOM     20  N   UNL     1      34.316 -14.094 -23.598  0.00  0.00    -0.282 N 
ATOM     21  C   UNL     1      34.199 -11.941 -23.868  0.00  0.00    +0.053 C 
ATOM     22  C   UNL     1      34.283 -13.125 -24.562  0.00  0.00    +0.134 C 
ATOM     23  C   UNL     1      34.252 -13.466 -22.385  0.00  0.00    +0.219 C 
BRANCH  21  24
ATOM     24  C   UNL     1      34.134 -10.559 -24.511  0.00  0.00    +0.037 C 
ATOM     25  C   UNL     1      35.106  -9.508 -24.058  0.00  0.00    +0.006 C 
ATOM     26  C   UNL     1      33.655  -9.402 -23.685  0.00  0.00    +0.006 C 
ENDBRANCH  21  24
ENDBRANCH  12  20
ENDBRANCH   3  15
BRANCH   6  30
ATOM     27  N   UNL     1      33.956 -22.977 -16.700  0.00  0.00    -0.252 N 
ATOM     28  N   UNL     1      32.510 -22.292 -18.192  0.00  0.00    -0.129 NA
ATOM     29  N   UNL     1      31.837 -23.031 -17.240  0.00  0.00    -0.128 NA
ATOM     30  C   UNL     1      33.779 -22.272 -17.851  0.00  0.00    +0.188 C 
ATOM     31  C   UNL     1      32.719 -23.432 -16.354  0.00  0.00    +0.192 C 
BRANCH  27  32
ATOM     32  C   UNL     1      35.183 -23.207 -15.976  0.00  0.00    +0.080 C 
ATOM     33  C   UNL     1      35.420 -22.131 -14.913  0.00  0.00    +0.022 C 
ATOM     34  C   UNL     1      35.215 -24.604 -15.352  0.00  0.00    +0.022 C 
ENDBRANCH  27  32
ENDBRANCH   6  30
TORSDOF 5
ENDMDL
MODEL 7
REMARK VINA RESULT:     -10.7      2.037     10.723
REMARK  Name = 71245288
REMARK  5 active torsions:
REMARK  status: ('A' for Active; 'I' for Inactive)
REMARK    1  A    between atoms: C_3  and  C_9
REMARK    2  A    between atoms: C_6  and  N_14
REMARK    3  A    between atoms: C_15  and  C_18
REMARK    4  A    between atoms: C_22  and  C_30
REMARK    5  A    between atoms: N_27  and  C_32
REMARK                            x       y       z     vdW  Elec       q    Type
REMARK                         _______ _______ _______ _____ _____    ______ ____
ROOT
ATOM      1  O   UNL     1      36.465 -21.667 -20.238  0.00  0.00    -0.270 OA
ATOM      2  N   UNL     1      35.117 -19.765 -19.970  0.00  0.00    -0.259 N 
ATOM      3  C   UNL     1      35.538 -21.069 -19.671  0.00  0.00    +0.253 C 
ATOM      4  H   UNL     1      34.366 -19.424 -19.434  0.00  0.00    +0.157 HD
ATOM      5  N   UNL     1      35.068 -17.653 -21.064  0.00  0.00    -0.388 NA
ATOM      6  C   UNL     1      35.592 -16.839 -22.008  0.00  0.00    +0.166 C 
ATOM      7  C   UNL     1      35.631 -18.876 -20.945  0.00  0.00    +0.167 C 
ATOM      8  C   UNL     1      36.649 -17.189 -22.833  0.00  0.00    +0.031 C 
ATOM      9  C   UNL     1      36.690 -19.321 -21.721  0.00  0.00    +0.101 C 
ATOM     10  C   UNL     1      37.202 -18.455 -22.681  0.00  0.00    -0.015 C 
ENDROOT
BRANCH   3  15
ATOM     11  F   UNL     1      32.748 -21.390 -19.685  0.00  0.00    -0.204 F 
ATOM     12  C   UNL     1      34.856 -22.869 -16.457  0.00  0.00    +0.046 C 
ATOM     13  C   UNL     1      33.469 -23.004 -16.509  0.00  0.00    -0.006 C 
ATOM     14  C   UNL     1      35.535 -22.233 -17.496  0.00  0.00    +0.021 C 
ATOM     15  C   UNL     1      34.827 -21.732 -18.588  0.00  0.00    +0.082 C 
ATOM     16  C   UNL     1      32.761 -22.503 -17.601  0.00  0.00    +0.027 C 
ATOM     17  C   UNL     1      32.710 -23.679 -15.412  0.00  0.00    +0.032 C 
ATOM     18  C   UNL     1      33.440 -21.867 -18.640  0.00  0.00    +0.144 C 
BRANCH  12  20
ATOM     19  N   UNL     1      36.656 -23.391 -13.439  0.00  0.00    -0.255 NA
ATOM     20  N   UNL     1      35.579 -23.359 -15.382  0.00  0.00    -0.282 N 
ATOM     21  C   UNL     1      36.673 -24.639 -14.009  0.00  0.00    +0.053 C 
ATOM     22  C   UNL     1      36.011 -24.645 -15.214  0.00  0.00    +0.134 C 
ATOM     23  C   UNL     1      35.990 -22.644 -14.291  0.00  0.00    +0.219 C 
BRANCH  21  24
ATOM     24  C   UNL     1      37.341 -25.857 -13.379  0.00  0.00    +0.037 C 
ATOM     25  C   UNL     1      37.818 -25.763 -11.959  0.00  0.00    +0.006 C 
ATOM     26  C   UNL     1      38.811 -25.800 -13.084  0.00  0.00    +0.006 C 
ENDBRANCH  21  24
ENDBRANCH  12  20
ENDBRANCH   3  15
BRANCH   6  30
ATOM     27  N   UNL     1      34.469 -15.024 -23.258  0.00  0.00    -0.252 N 
ATOM     28  N   UNL     1      34.777 -14.701 -21.116  0.00  0.00    -0.129 NA
ATOM     29  N   UNL     1      34.143 -13.591 -21.637  0.00  0.00    -0.128 NA
ATOM     30  C   UNL     1      34.965 -15.547 -22.102  0.00  0.00    +0.188 C 
ATOM     31  C   UNL     1      33.967 -13.803 -22.921  0.00  0.00    +0.192 C 
BRANCH  27  32
ATOM     32  C   UNL     1      34.463 -15.616 -24.573  0.00  0.00    +0.080 C 
ATOM     33  C   UNL     1      33.823 -17.007 -24.562  0.00  0.00    +0.022 C 
ATOM     34  C   UNL     1      33.776 -14.708 -25.596  0.00  0.00    +0.022 C 
ENDBRANCH  27  32
ENDBRANCH   6  30
TORSDOF 5
ENDMDL
MODEL 8
REMARK VINA RESULT:     -10.6      7.451     14.581
REMARK  Name = 71245288
REMARK  5 active torsions:
REMARK  status: ('A' for Active; 'I' for Inactive)
REMARK    1  A    between atoms: C_3  and  C_9
REMARK    2  A    between atoms: C_6  and  N_14
REMARK    3  A    between atoms: C_15  and  C_18
REMARK    4  A    between atoms: C_22  and  C_30
REMARK    5  A    between atoms: N_27  and  C_32
REMARK                            x       y       z     vdW  Elec       q    Type
REMARK                         _______ _______ _______ _____ _____    ______ ____
ROOT
ATOM      1  O   UNL     1      35.741 -10.485 -25.561  0.00  0.00    -0.270 OA
ATOM      2  N   UNL     1      33.936 -10.043 -24.128  0.00  0.00    -0.259 N 
ATOM      3  C   UNL     1      34.725 -10.857 -24.952  0.00  0.00    +0.253 C 
ATOM      4  H   UNL     1      33.159 -10.482 -23.712  0.00  0.00    +0.157 HD
ATOM      5  N   UNL     1      33.218  -8.081 -22.990  0.00  0.00    -0.388 NA
ATOM      6  C   UNL     1      33.424  -6.772 -22.722  0.00  0.00    +0.166 C 
ATOM      7  C   UNL     1      34.109  -8.673 -23.816  0.00  0.00    +0.167 C 
ATOM      8  C   UNL     1      34.476  -6.032 -23.239  0.00  0.00    +0.031 C 
ATOM      9  C   UNL     1      35.192  -8.021 -24.384  0.00  0.00    +0.101 C 
ATOM     10  C   UNL     1      35.372  -6.675 -24.085  0.00  0.00    -0.015 C 
ENDROOT
BRANCH   3  15
ATOM     11  F   UNL     1      33.003 -11.752 -26.982  0.00  0.00    -0.204 F 
ATOM     12  C   UNL     1      34.368 -14.517 -24.234  0.00  0.00    +0.046 C 
ATOM     13  C   UNL     1      33.510 -14.913 -25.260  0.00  0.00    -0.006 C 
ATOM     14  C   UNL     1      34.766 -13.183 -24.133  0.00  0.00    +0.021 C 
ATOM     15  C   UNL     1      34.308 -12.247 -25.060  0.00  0.00    +0.082 C 
ATOM     16  C   UNL     1      33.051 -13.976 -26.186  0.00  0.00    +0.027 C 
ATOM     17  C   UNL     1      33.063 -16.333 -25.396  0.00  0.00    +0.032 C 
ATOM     18  C   UNL     1      33.450 -12.643 -26.085  0.00  0.00    +0.144 C 
BRANCH  12  20
ATOM     19  N   UNL     1      35.324 -16.327 -21.331  0.00  0.00    -0.255 NA
ATOM     20  N   UNL     1      34.835 -15.430 -23.304  0.00  0.00    -0.282 N 
ATOM     21  C   UNL     1      35.701 -17.176 -22.342  0.00  0.00    +0.053 C 
ATOM     22  C   UNL     1      35.408 -16.641 -23.575  0.00  0.00    +0.134 C 
ATOM     23  C   UNL     1      34.806 -15.286 -21.944  0.00  0.00    +0.219 C 
BRANCH  21  24
ATOM     24  C   UNL     1      36.359 -18.534 -22.118  0.00  0.00    +0.037 C 
ATOM     25  C   UNL     1      35.892 -19.379 -20.969  0.00  0.00    +0.006 C 
ATOM     26  C   UNL     1      37.239 -18.718 -20.917  0.00  0.00    +0.006 C 
ENDBRANCH  21  24
ENDBRANCH  12  20
ENDBRANCH   3  15
BRANCH   6  30
ATOM     27  N   UNL     1      31.874  -4.966 -22.049  0.00  0.00    -0.252 N 
ATOM     28  N   UNL     1      31.993  -6.706 -20.728  0.00  0.00    -0.129 NA
ATOM     29  N   UNL     1      31.085  -5.813 -20.193  0.00  0.00    -0.128 NA
ATOM     30  C   UNL     1      32.454  -6.180 -21.839  0.00  0.00    +0.188 C 
ATOM     31  C   UNL     1      31.027  -4.778 -20.999  0.00  0.00    +0.192 C 
BRANCH  27  32
ATOM     32  C   UNL     1      32.090  -4.053 -23.146  0.00  0.00    +0.080 C 
ATOM     33  C   UNL     1      31.327  -4.488 -24.399  0.00  0.00    +0.022 C 
ATOM     34  C   UNL     1      31.731  -2.616 -22.760  0.00  0.00    +0.022 C 
ENDBRANCH  27  32
ENDBRANCH   6  30
TORSDOF 5
ENDMDL
MODEL 9
REMARK VINA RESULT:     -10.4      7.381     14.292
REMARK  Name = 71245288
REMARK  5 active torsions:
REMARK  status: ('A' for Active; 'I' for Inactive)
REMARK    1  A    between atoms: C_3  and  C_9
REMARK    2  A    between atoms: C_6  and  N_14
REMARK    3  A    between atoms: C_15  and  C_18
REMARK    4  A    between atoms: C_22  and  C_30
REMARK    5  A    between atoms: N_27  and  C_32
REMARK                            x       y       z     vdW  Elec       q    Type
REMARK                         _______ _______ _______ _____ _____    ______ ____
ROOT
ATOM      1  O   UNL     1      35.838 -10.296 -25.517  0.00  0.00    -0.270 OA
ATOM      2  N   UNL     1      33.879  -9.763 -24.340  0.00  0.00    -0.259 N 
ATOM      3  C   UNL     1      34.758 -10.630 -25.006  0.00  0.00    +0.253 C 
ATOM      4  H   UNL     1      33.057 -10.175 -23.988  0.00  0.00    +0.157 HD
ATOM      5  N   UNL     1      33.039  -7.728 -23.439  0.00  0.00    -0.388 NA
ATOM      6  C   UNL     1      33.216  -6.402 -23.243  0.00  0.00    +0.166 C 
ATOM      7  C   UNL     1      34.018  -8.373 -24.110  0.00  0.00    +0.167 C 
ATOM      8  C   UNL     1      34.323  -5.695 -23.685  0.00  0.00    +0.031 C 
ATOM      9  C   UNL     1      35.163  -7.757 -24.592  0.00  0.00    +0.101 C 
ATOM     10  C   UNL     1      35.310  -6.392 -24.372  0.00  0.00    -0.015 C 
ENDROOT
BRANCH   3  15
ATOM     11  F   UNL     1      33.241 -11.666 -27.131  0.00  0.00    -0.204 F 
ATOM     12  C   UNL     1      34.329 -14.235 -24.085  0.00  0.00    +0.046 C 
ATOM     13  C   UNL     1      33.575 -14.703 -25.162  0.00  0.00    -0.006 C 
ATOM     14  C   UNL     1      34.716 -12.896 -24.035  0.00  0.00    +0.021 C 
ATOM     15  C   UNL     1      34.351 -12.025 -25.062  0.00  0.00    +0.082 C 
ATOM     16  C   UNL     1      33.209 -13.833 -26.188  0.00  0.00    +0.027 C 
ATOM     17  C   UNL     1      33.142 -16.132 -25.247  0.00  0.00    +0.032 C 
ATOM     18  C   UNL     1      33.598 -12.494 -26.138  0.00  0.00    +0.144 C 
BRANCH  12  20
ATOM     19  N   UNL     1      35.067 -15.813 -20.990  0.00  0.00    -0.255 NA
ATOM     20  N   UNL     1      34.701 -15.083 -23.056  0.00  0.00    -0.282 N 
ATOM     21  C   UNL     1      35.411 -16.781 -21.900  0.00  0.00    +0.053 C 
ATOM     22  C   UNL     1      35.193 -16.352 -23.188  0.00  0.00    +0.134 C 
ATOM     23  C   UNL     1      34.643 -14.804 -21.718  0.00  0.00    +0.219 C 
BRANCH  21  24
ATOM     24  C   UNL     1      35.963 -18.152 -21.523  0.00  0.00    +0.037 C 
ATOM     25  C   UNL     1      35.578 -19.338 -22.358  0.00  0.00    +0.006 C 
ATOM     26  C   UNL     1      35.020 -19.182 -20.974  0.00  0.00    +0.006 C 
ENDBRANCH  21  24
ENDBRANCH  12  20
ENDBRANCH   3  15
BRANCH   6  30
ATOM     27  N   UNL     1      31.932  -5.903 -21.189  0.00  0.00    -0.252 N 
ATOM     28  N   UNL     1      31.255  -4.939 -23.033  0.00  0.00    -0.129 NA
ATOM     29  N   UNL     1      30.423  -4.544 -22.004  0.00  0.00    -0.128 NA
ATOM     30  C   UNL     1      32.151  -5.754 -22.525  0.00  0.00    +0.188 C 
ATOM     31  C   UNL     1      30.845  -5.131 -20.907  0.00  0.00    +0.192 C 
BRANCH  27  32
ATOM     32  C   UNL     1      32.678  -6.702 -20.247  0.00  0.00    +0.080 C 
ATOM     33  C   UNL     1      32.993  -5.919 -18.970  0.00  0.00    +0.022 C 
ATOM     34  C   UNL     1      31.954  -8.010 -19.920  0.00  0.00    +0.022 C 
ENDBRANCH  27  32
ENDBRANCH   6  30
TORSDOF 5
ENDMDL
