MODEL 1
REMARK VINA RESULT:     -11.6      0.000      0.000
REMARK  Name = 16122642
REMARK  7 active torsions:
REMARK  status: ('A' for Active; 'I' for Inactive)
REMARK    1  A    between atoms: C_2  and  C_10
REMARK    2  A    between atoms: C_3  and  O_18
REMARK    3  A    between atoms: O_18  and  C_19
REMARK    4  A    between atoms: C_19  and  C_20
REMARK    5  A    between atoms: C_20  and  N_21
REMARK    6  A    between atoms: C_20  and  C_25
REMARK    7  A    between atoms: C_25  and  C_27
REMARK                            x       y       z     vdW  Elec       q    Type
REMARK                         _______ _______ _______ _____ _____    ______ ____
ROOT
ATOM      1  N   UNL     1      33.740 -15.695 -25.509  0.00  0.00    -0.239 NA
ATOM      2  C   UNL     1      34.067 -13.786 -24.073  0.00  0.00    +0.022 C 
ATOM      3  C   UNL     1      35.237 -15.830 -23.615  0.00  0.00    +0.158 C 
ATOM      4  C   UNL     1      34.954 -14.508 -23.289  0.00  0.00    +0.040 C 
ATOM      5  C   UNL     1      33.491 -14.413 -25.161  0.00  0.00    +0.099 C 
ATOM      6  C   UNL     1      34.609 -16.372 -24.726  0.00  0.00    +0.136 C 
ENDROOT
BRANCH   2  10
ATOM      7  N   UNL     1      32.085  -8.865 -21.729  0.00  0.00    -0.280 N 
ATOM      8  N   UNL     1      32.824  -8.540 -22.808  0.00  0.00    -0.173 NA
ATOM      9  C   UNL     1      32.736 -10.785 -22.471  0.00  0.00    +0.032 A 
ATOM     10  C   UNL     1      33.753 -12.405 -23.758  0.00  0.00    +0.002 C 
ATOM     11  C   UNL     1      33.248  -9.719 -23.297  0.00  0.00    +0.102 A 
ATOM     12  C   UNL     1      32.943 -12.149 -22.634  0.00  0.00    +0.003 C 
ATOM     13  C   UNL     1      31.998 -10.204 -21.479  0.00  0.00    +0.053 A 
ATOM     14  C   UNL     1      34.284 -11.384 -24.608  0.00  0.00    +0.002 C 
ATOM     15  C   UNL     1      34.056 -10.004 -24.414  0.00  0.00    +0.021 C 
ATOM     16  C   UNL     1      31.231 -10.737 -20.340  0.00  0.00    +0.051 C 
ATOM     17  H   UNL     1      31.642  -8.191 -21.167  0.00  0.00    +0.189 HD
ENDBRANCH   2  10
BRANCH   3  18
ATOM     18  O   UNL     1      36.100 -16.565 -22.871  0.00  0.00    -0.476 OA
BRANCH  18  19
ATOM     19  C   UNL     1      36.116 -17.977 -23.090  0.00  0.00    +0.184 C 
BRANCH  19  20
ATOM     20  C   UNL     1      35.919 -18.723 -21.764  0.00  0.00    -0.017 C 
BRANCH  20  21
ATOM     21  N   UNL     1      36.064 -17.761 -20.668  0.00  0.00    +0.384 N 
ATOM     22  H   UNL     1      36.370 -16.863 -21.042  0.00  0.00    -0.089 HD
ATOM     23  H   UNL     1      36.755 -18.106 -20.002  0.00  0.00    -0.089 HD
ATOM     24  H   UNL     1      35.166 -17.644 -20.197  0.00  0.00    -0.089 HD
ENDBRANCH  20  21
BRANCH  20  25
ATOM     25  C   UNL     1      34.531 -19.388 -21.644  0.00  0.00    +0.008 C 
BRANCH  25  27
ATOM     26 BR   UNL     1      33.918 -23.197 -16.827  0.00  0.00    -0.049 Br
ATOM     27  C   UNL     1      34.380 -20.320 -20.466  0.00  0.00    -0.024 C 
ATOM     28  C   UNL     1      33.117 -20.574 -19.957  0.00  0.00    -0.004 C 
ATOM     29  C   UNL     1      35.509 -20.905 -19.915  0.00  0.00    -0.004 C 
ATOM     30  C   UNL     1      32.978 -21.434 -18.868  0.00  0.00    +0.006 C 
ATOM     31  C   UNL     1      35.371 -21.765 -18.827  0.00  0.00    +0.006 C 
ATOM     32  C   UNL     1      34.106 -22.031 -18.303  0.00  0.00    +0.035 C 
ENDBRANCH  25  27
ENDBRANCH  20  25
ENDBRANCH  19  20
ENDBRANCH  18  19
ENDBRANCH   3  18
TORSDOF 7
ENDMDL
MODEL 2
REMARK VINA RESULT:     -11.5      1.591      2.035
REMARK  Name = 16122642
REMARK  7 active torsions:
REMARK  status: ('A' for Active; 'I' for Inactive)
REMARK    1  A    between atoms: C_2  and  C_10
REMARK    2  A    between atoms: C_3  and  O_18
REMARK    3  A    between atoms: O_18  and  C_19
REMARK    4  A    between atoms: C_19  and  C_20
REMARK    5  A    between atoms: C_20  and  N_21
REMARK    6  A    between atoms: C_20  and  C_25
REMARK    7  A    between atoms: C_25  and  C_27
REMARK                            x       y       z     vdW  Elec       q    Type
REMARK                         _______ _______ _______ _____ _____    ______ ____
ROOT
ATOM      1  N   UNL     1      33.488 -13.910 -26.034  0.00  0.00    -0.239 NA
ATOM      2  C   UNL     1      34.174 -12.178 -24.503  0.00  0.00    +0.022 C 
ATOM      3  C   UNL     1      34.291 -14.477 -23.826  0.00  0.00    +0.158 C 
ATOM      4  C   UNL     1      34.480 -13.129 -23.541  0.00  0.00    +0.040 C 
ATOM      5  C   UNL     1      33.687 -12.610 -25.722  0.00  0.00    +0.099 C 
ATOM      6  C   UNL     1      33.797 -14.812 -25.077  0.00  0.00    +0.136 C 
ENDROOT
BRANCH   2  10
ATOM      7  N   UNL     1      33.742  -6.705 -22.635  0.00  0.00    -0.280 N 
ATOM      8  N   UNL     1      34.823  -6.784 -23.436  0.00  0.00    -0.173 NA
ATOM      9  C   UNL     1      33.755  -8.778 -23.235  0.00  0.00    +0.032 A 
ATOM     10  C   UNL     1      34.361 -10.764 -24.235  0.00  0.00    +0.002 C 
ATOM     11  C   UNL     1      34.862  -8.069 -23.829  0.00  0.00    +0.102 A 
ATOM     12  C   UNL     1      33.437 -10.122 -23.387  0.00  0.00    +0.003 C 
ATOM     13  C   UNL     1      33.061  -7.876 -22.478  0.00  0.00    +0.053 A 
ATOM     14  C   UNL     1      35.473 -10.107 -24.849  0.00  0.00    +0.002 C 
ATOM     15  C   UNL     1      35.769  -8.737 -24.673  0.00  0.00    +0.021 C 
ATOM     16  C   UNL     1      31.856  -7.973 -21.637  0.00  0.00    +0.051 C 
ATOM     17  H   UNL     1      33.465  -5.868 -22.199  0.00  0.00    +0.189 HD
ENDBRANCH   2  10
BRANCH   3  18
ATOM     18  O   UNL     1      34.581 -15.432 -22.909  0.00  0.00    -0.476 OA
BRANCH  18  19
ATOM     19  C   UNL     1      35.509 -16.449 -23.293  0.00  0.00    +0.184 C 
BRANCH  19  20
ATOM     20  C   UNL     1      34.992 -17.829 -22.867  0.00  0.00    -0.017 C 
BRANCH  20  21
ATOM     21  N   UNL     1      34.729 -18.616 -24.076  0.00  0.00    +0.384 N 
ATOM     22  H   UNL     1      35.472 -18.454 -24.755  0.00  0.00    -0.089 HD
ATOM     23  H   UNL     1      33.835 -18.334 -24.477  0.00  0.00    -0.089 HD
ATOM     24  H   UNL     1      34.697 -19.607 -23.836  0.00  0.00    -0.089 HD
ENDBRANCH  20  21
BRANCH  20  25
ATOM     25  C   UNL     1      35.994 -18.610 -21.990  0.00  0.00    +0.008 C 
BRANCH  25  27
ATOM     26 BR   UNL     1      33.411 -22.561 -18.017  0.00  0.00    -0.049 Br
ATOM     27  C   UNL     1      35.361 -19.576 -21.019  0.00  0.00    -0.024 C 
ATOM     28  C   UNL     1      33.980 -19.655 -20.941  0.00  0.00    -0.004 C 
ATOM     29  C   UNL     1      36.174 -20.367 -20.224  0.00  0.00    -0.004 C 
ATOM     30  C   UNL     1      33.396 -20.548 -20.042  0.00  0.00    +0.006 C 
ATOM     31  C   UNL     1      35.591 -21.260 -19.326  0.00  0.00    +0.006 C 
ATOM     32  C   UNL     1      34.202 -21.351 -19.235  0.00  0.00    +0.035 C 
ENDBRANCH  25  27
ENDBRANCH  20  25
ENDBRANCH  19  20
ENDBRANCH  18  19
ENDBRANCH   3  18
TORSDOF 7
ENDMDL
MODEL 3
REMARK VINA RESULT:     -11.4      0.894      2.000
REMARK  Name = 16122642
REMARK  7 active torsions:
REMARK  status: ('A' for Active; 'I' for Inactive)
REMARK    1  A    between atoms: C_2  and  C_10
REMARK    2  A    between atoms: C_3  and  O_18
REMARK    3  A    between atoms: O_18  and  C_19
REMARK    4  A    between atoms: C_19  and  C_20
REMARK    5  A    between atoms: C_20  and  N_21
REMARK    6  A    between atoms: C_20  and  C_25
REMARK    7  A    between atoms: C_25  and  C_27
REMARK                            x       y       z     vdW  Elec       q    Type
REMARK                         _______ _______ _______ _____ _____    ______ ____
ROOT
ATOM      1  N   UNL     1      34.078 -15.110 -25.305  0.00  0.00    -0.239 NA
ATOM      2  C   UNL     1      33.847 -13.973 -23.190  0.00  0.00    +0.022 C 
ATOM      3  C   UNL     1      35.326 -15.854 -23.373  0.00  0.00    +0.158 C 
ATOM      4  C   UNL     1      34.753 -14.845 -22.606  0.00  0.00    +0.040 C 
ATOM      5  C   UNL     1      33.543 -14.141 -24.528  0.00  0.00    +0.099 C 
ATOM      6  C   UNL     1      34.958 -15.942 -24.706  0.00  0.00    +0.136 C 
ENDROOT
BRANCH   2  10
ATOM      7  N   UNL     1      31.705  -8.942 -21.260  0.00  0.00    -0.280 N 
ATOM      8  N   UNL     1      31.522  -9.865 -20.296  0.00  0.00    -0.173 NA
ATOM      9  C   UNL     1      32.547 -10.729 -22.130  0.00  0.00    +0.032 A 
ATOM     10  C   UNL     1      33.234 -12.910 -22.416  0.00  0.00    +0.002 C 
ATOM     11  C   UNL     1      32.037 -10.997 -20.807  0.00  0.00    +0.102 A 
ATOM     12  C   UNL     1      33.157 -11.628 -22.995  0.00  0.00    +0.003 C 
ATOM     13  C   UNL     1      32.318  -9.406 -22.387  0.00  0.00    +0.053 A 
ATOM     14  C   UNL     1      32.744 -13.227 -21.110  0.00  0.00    +0.002 C 
ATOM     15  C   UNL     1      32.127 -12.288 -20.254  0.00  0.00    +0.021 C 
ATOM     16  C   UNL     1      32.597  -8.534 -23.540  0.00  0.00    +0.051 C 
ATOM     17  H   UNL     1      31.420  -8.006 -21.159  0.00  0.00    +0.189 HD
ENDBRANCH   2  10
BRANCH   3  18
ATOM     18  O   UNL     1      36.215 -16.723 -22.833  0.00  0.00    -0.476 OA
BRANCH  18  19
ATOM     19  C   UNL     1      36.057 -18.107 -23.153  0.00  0.00    +0.184 C 
BRANCH  19  20
ATOM     20  C   UNL     1      35.942 -18.939 -21.870  0.00  0.00    -0.017 C 
BRANCH  20  21
ATOM     21  N   UNL     1      36.579 -18.196 -20.779  0.00  0.00    +0.384 N 
ATOM     22  H   UNL     1      36.269 -18.574 -19.884  0.00  0.00    -0.089 HD
ATOM     23  H   UNL     1      36.318 -17.212 -20.841  0.00  0.00    -0.089 HD
ATOM     24  H   UNL     1      37.593 -18.284 -20.853  0.00  0.00    -0.089 HD
ENDBRANCH  20  21
BRANCH  20  25
ATOM     25  C   UNL     1      34.482 -19.235 -21.467  0.00  0.00    +0.008 C 
BRANCH  25  27
ATOM     26 BR   UNL     1      33.848 -23.355 -16.917  0.00  0.00    -0.049 Br
ATOM     27  C   UNL     1      34.328 -20.242 -20.353  0.00  0.00    -0.024 C 
ATOM     28  C   UNL     1      35.456 -20.850 -19.825  0.00  0.00    -0.004 C 
ATOM     29  C   UNL     1      33.061 -20.541 -19.881  0.00  0.00    -0.004 C 
ATOM     30  C   UNL     1      35.312 -21.781 -18.797  0.00  0.00    +0.006 C 
ATOM     31  C   UNL     1      32.917 -21.472 -18.852  0.00  0.00    +0.006 C 
ATOM     32  C   UNL     1      34.042 -22.092 -18.310  0.00  0.00    +0.035 C 
ENDBRANCH  25  27
ENDBRANCH  20  25
ENDBRANCH  19  20
ENDBRANCH  18  19
ENDBRANCH   3  18
TORSDOF 7
ENDMDL
MODEL 4
REMARK VINA RESULT:     -11.2      4.017     10.083
REMARK  Name = 16122642
REMARK  7 active torsions:
REMARK  status: ('A' for Active; 'I' for Inactive)
REMARK    1  A    between atoms: C_2  and  C_10
REMARK    2  A    between atoms: C_3  and  O_18
REMARK    3  A    between atoms: O_18  and  C_19
REMARK    4  A    between atoms: C_19  and  C_20
REMARK    5  A    between atoms: C_20  and  N_21
REMARK    6  A    between atoms: C_20  and  C_25
REMARK    7  A    between atoms: C_25  and  C_27
REMARK                            x       y       z     vdW  Elec       q    Type
REMARK                         _______ _______ _______ _____ _____    ______ ____
ROOT
ATOM      1  N   UNL     1      33.708 -17.878 -24.987  0.00  0.00    -0.239 NA
ATOM      2  C   UNL     1      34.976 -18.009 -22.940  0.00  0.00    +0.022 C 
ATOM      3  C   UNL     1      34.750 -15.901 -24.064  0.00  0.00    +0.158 C 
ATOM      4  C   UNL     1      35.249 -16.651 -23.005  0.00  0.00    +0.040 C 
ATOM      5  C   UNL     1      34.209 -18.574 -23.942  0.00  0.00    +0.099 C 
ATOM      6  C   UNL     1      33.991 -16.557 -25.021  0.00  0.00    +0.136 C 
ENDROOT
BRANCH   2  10
ATOM      7  N   UNL     1      35.642 -21.709 -18.524  0.00  0.00    -0.280 N 
ATOM      8  N   UNL     1      36.833 -21.125 -18.756  0.00  0.00    -0.173 NA
ATOM      9  C   UNL     1      35.221 -20.381 -20.173  0.00  0.00    +0.032 A 
ATOM     10  C   UNL     1      35.482 -18.818 -21.846  0.00  0.00    +0.002 C 
ATOM     11  C   UNL     1      36.607 -20.287 -19.784  0.00  0.00    +0.102 A 
ATOM     12  C   UNL     1      34.584 -19.683 -21.191  0.00  0.00    +0.003 C 
ATOM     13  C   UNL     1      34.634 -21.299 -19.348  0.00  0.00    +0.053 A 
ATOM     14  C   UNL     1      36.863 -18.688 -21.499  0.00  0.00    +0.002 C 
ATOM     15  C   UNL     1      37.481 -19.414 -20.457  0.00  0.00    +0.021 C 
ATOM     16  C   UNL     1      33.267 -21.833 -19.236  0.00  0.00    +0.051 C 
ATOM     17  H   UNL     1      35.508 -22.378 -17.815  0.00  0.00    +0.189 HD
ENDBRANCH   2  10
BRANCH   3  18
ATOM     18  O   UNL     1      34.998 -14.572 -24.158  0.00  0.00    -0.476 OA
BRANCH  18  19
ATOM     19  C   UNL     1      33.916 -13.731 -24.564  0.00  0.00    +0.184 C 
BRANCH  19  20
ATOM     20  C   UNL     1      33.954 -12.406 -23.791  0.00  0.00    -0.017 C 
BRANCH  20  21
ATOM     21  N   UNL     1      34.730 -12.610 -22.565  0.00  0.00    +0.384 N 
ATOM     22  H   UNL     1      35.175 -11.734 -22.295  0.00  0.00    -0.089 HD
ATOM     23  H   UNL     1      35.445 -13.318 -22.729  0.00  0.00    -0.089 HD
ATOM     24  H   UNL     1      34.109 -12.920 -21.817  0.00  0.00    -0.089 HD
ENDBRANCH  20  21
BRANCH  20  25
ATOM     25  C   UNL     1      34.603 -11.256 -24.589  0.00  0.00    +0.008 C 
BRANCH  25  27
ATOM     26 BR   UNL     1      33.214  -5.603 -22.542  0.00  0.00    -0.049 Br
ATOM     27  C   UNL     1      34.264  -9.873 -24.090  0.00  0.00    -0.024 C 
ATOM     28  C   UNL     1      35.236  -8.885 -24.110  0.00  0.00    -0.004 C 
ATOM     29  C   UNL     1      32.987  -9.617 -23.618  0.00  0.00    -0.004 C 
ATOM     30  C   UNL     1      34.922  -7.607 -23.647  0.00  0.00    +0.006 C 
ATOM     31  C   UNL     1      32.673  -8.340 -23.155  0.00  0.00    +0.006 C 
ATOM     32  C   UNL     1      33.639  -7.335 -23.170  0.00  0.00    +0.035 C 
ENDBRANCH  25  27
ENDBRANCH  20  25
ENDBRANCH  19  20
ENDBRANCH  18  19
ENDBRANCH   3  18
TORSDOF 7
ENDMDL
MODEL 5
REMARK VINA RESULT:     -11.1      3.690     10.007
REMARK  Name = 16122642
REMARK  7 active torsions:
REMARK  status: ('A' for Active; 'I' for Inactive)
REMARK    1  A    between atoms: C_2  and  C_10
REMARK    2  A    between atoms: C_3  and  O_18
REMARK    3  A    between atoms: O_18  and  C_19
REMARK    4  A    between atoms: C_19  and  C_20
REMARK    5  A    between atoms: C_20  and  N_21
REMARK    6  A    between atoms: C_20  and  C_25
REMARK    7  A    between atoms: C_25  and  C_27
REMARK                            x       y       z     vdW  Elec       q    Type
REMARK                         _______ _______ _______ _____ _____    ______ ____
ROOT
ATOM      1  N   UNL     1      37.749 -18.606 -21.678  0.00  0.00    -0.239 NA
ATOM      2  C   UNL     1      35.919 -19.782 -20.639  0.00  0.00    +0.022 C 
ATOM      3  C   UNL     1      35.500 -18.369 -22.532  0.00  0.00    +0.158 C 
ATOM      4  C   UNL     1      35.029 -19.235 -21.551  0.00  0.00    +0.040 C 
ATOM      5  C   UNL     1      37.255 -19.444 -20.739  0.00  0.00    +0.099 C 
ATOM      6  C   UNL     1      36.857 -18.090 -22.552  0.00  0.00    +0.136 C 
ENDROOT
BRANCH   2  10
ATOM      7  N   UNL     1      35.415 -23.242 -16.012  0.00  0.00    -0.280 N 
ATOM      8  N   UNL     1      34.232 -23.241 -16.657  0.00  0.00    -0.173 NA
ATOM      9  C   UNL     1      35.773 -21.925 -17.684  0.00  0.00    +0.032 A 
ATOM     10  C   UNL     1      35.458 -20.690 -19.604  0.00  0.00    +0.002 C 
ATOM     11  C   UNL     1      34.420 -22.426 -17.709  0.00  0.00    +0.102 A 
ATOM     12  C   UNL     1      36.366 -21.056 -18.591  0.00  0.00    +0.003 C 
ATOM     13  C   UNL     1      36.379 -22.467 -16.586  0.00  0.00    +0.053 A 
ATOM     14  C   UNL     1      34.108 -21.158 -19.674  0.00  0.00    +0.002 C 
ATOM     15  C   UNL     1      33.535 -22.042 -18.734  0.00  0.00    +0.021 C 
ATOM     16  C   UNL     1      37.731 -22.350 -16.014  0.00  0.00    +0.051 C 
ATOM     17  H   UNL     1      35.571 -23.762 -15.191  0.00  0.00    +0.189 HD
ENDBRANCH   2  10
BRANCH   3  18
ATOM     18  O   UNL     1      34.658 -17.817 -23.439  0.00  0.00    -0.476 OA
BRANCH  18  19
ATOM     19  C   UNL     1      35.242 -17.041 -24.488  0.00  0.00    +0.184 C 
BRANCH  19  20
ATOM     20  C   UNL     1      34.715 -15.601 -24.440  0.00  0.00    -0.017 C 
BRANCH  20  21
ATOM     21  N   UNL     1      33.382 -15.578 -25.051  0.00  0.00    +0.384 N 
ATOM     22  H   UNL     1      32.869 -16.415 -24.778  0.00  0.00    -0.089 HD
ATOM     23  H   UNL     1      33.474 -15.551 -26.067  0.00  0.00    -0.089 HD
ATOM     24  H   UNL     1      32.877 -14.750 -24.734  0.00  0.00    -0.089 HD
ENDBRANCH  20  21
BRANCH  20  25
ATOM     25  C   UNL     1      34.599 -15.044 -23.006  0.00  0.00    +0.008 C 
BRANCH  25  27
ATOM     26 BR   UNL     1      32.294  -9.332 -22.644  0.00  0.00    -0.049 Br
ATOM     27  C   UNL     1      34.036 -13.647 -22.916  0.00  0.00    -0.024 C 
ATOM     28  C   UNL     1      33.129 -13.343 -21.913  0.00  0.00    -0.004 C 
ATOM     29  C   UNL     1      34.435 -12.695 -23.840  0.00  0.00    -0.004 C 
ATOM     30  C   UNL     1      32.608 -12.051 -21.831  0.00  0.00    +0.006 C 
ATOM     31  C   UNL     1      33.914 -11.404 -23.758  0.00  0.00    +0.006 C 
ATOM     32  C   UNL     1      33.001 -11.082 -22.754  0.00  0.00    +0.035 C 
ENDBRANCH  25  27
ENDBRANCH  20  25
ENDBRANCH  19  20
ENDBRANCH  18  19
ENDBRANCH   3  18
TORSDOF 7
ENDMDL
MODEL 6
REMARK VINA RESULT:     -11.0      3.806      9.577
REMARK  Name = 16122642
REMARK  7 active torsions:
REMARK  status: ('A' for Active; 'I' for Inactive)
REMARK    1  A    between atoms: C_2  and  C_10
REMARK    2  A    between atoms: C_3  and  O_18
REMARK    3  A    between atoms: O_18  and  C_19
REMARK    4  A    between atoms: C_19  and  C_20
REMARK    5  A    between atoms: C_20  and  N_21
REMARK    6  A    between atoms: C_20  and  C_25
REMARK    7  A    between atoms: C_25  and  C_27
REMARK                            x       y       z     vdW  Elec       q    Type
REMARK                         _______ _______ _______ _____ _____    ______ ____
ROOT
ATOM      1  N   UNL     1      34.662 -17.721 -24.892  0.00  0.00    -0.239 NA
ATOM      2  C   UNL     1      35.387 -18.037 -22.613  0.00  0.00    +0.022 C 
ATOM      3  C   UNL     1      35.169 -15.816 -23.494  0.00  0.00    +0.158 C 
ATOM      4  C   UNL     1      35.484 -16.665 -22.438  0.00  0.00    +0.040 C 
ATOM      5  C   UNL     1      34.976 -18.515 -23.843  0.00  0.00    +0.099 C 
ATOM      6  C   UNL     1      34.767 -16.389 -24.689  0.00  0.00    +0.136 C 
ENDROOT
BRANCH   2  10
ATOM      7  N   UNL     1      35.261 -21.958 -18.342  0.00  0.00    -0.280 N 
ATOM      8  N   UNL     1      36.533 -21.536 -18.478  0.00  0.00    -0.173 NA
ATOM      9  C   UNL     1      35.130 -20.523 -19.949  0.00  0.00    +0.032 A 
ATOM     10  C   UNL     1      35.708 -18.949 -21.531  0.00  0.00    +0.002 C 
ATOM     11  C   UNL     1      36.489 -20.637 -19.477  0.00  0.00    +0.102 A 
ATOM     12  C   UNL     1      34.660 -19.705 -20.969  0.00  0.00    +0.003 C 
ATOM     13  C   UNL     1      34.373 -21.381 -19.203  0.00  0.00    +0.053 A 
ATOM     14  C   UNL     1      37.069 -19.025 -21.098  0.00  0.00    +0.002 C 
ATOM     15  C   UNL     1      37.515 -19.869 -20.058  0.00  0.00    +0.021 C 
ATOM     16  C   UNL     1      32.941 -21.725 -19.194  0.00  0.00    +0.051 C 
ATOM     17  H   UNL     1      34.993 -22.628 -17.674  0.00  0.00    +0.189 HD
ENDBRANCH   2  10
BRANCH   3  18
ATOM     18  O   UNL     1      35.254 -14.470 -23.356  0.00  0.00    -0.476 OA
BRANCH  18  19
ATOM     19  C   UNL     1      34.482 -13.868 -22.314  0.00  0.00    +0.184 C 
BRANCH  19  20
ATOM     20  C   UNL     1      33.444 -12.908 -22.909  0.00  0.00    -0.017 C 
BRANCH  20  21
ATOM     21  N   UNL     1      32.866 -13.535 -24.101  0.00  0.00    +0.384 N 
ATOM     22  H   UNL     1      33.280 -14.456 -24.235  0.00  0.00    -0.089 HD
ATOM     23  H   UNL     1      33.057 -12.954 -24.917  0.00  0.00    -0.089 HD
ATOM     24  H   UNL     1      31.857 -13.630 -23.980  0.00  0.00    -0.089 HD
ENDBRANCH  20  21
BRANCH  20  25
ATOM     25  C   UNL     1      32.296 -12.576 -21.932  0.00  0.00    +0.008 C 
BRANCH  25  27
ATOM     26 BR   UNL     1      32.130  -6.698 -20.059  0.00  0.00    -0.049 Br
ATOM     27  C   UNL     1      32.255 -11.138 -21.475  0.00  0.00    -0.024 C 
ATOM     28  C   UNL     1      32.501 -10.126 -22.390  0.00  0.00    -0.004 C 
ATOM     29  C   UNL     1      31.973 -10.856 -20.148  0.00  0.00    -0.004 C 
ATOM     30  C   UNL     1      32.463  -8.798 -21.966  0.00  0.00    +0.006 C 
ATOM     31  C   UNL     1      31.935  -9.528 -19.725  0.00  0.00    +0.006 C 
ATOM     32  C   UNL     1      32.180  -8.499 -20.633  0.00  0.00    +0.035 C 
ENDBRANCH  25  27
ENDBRANCH  20  25
ENDBRANCH  19  20
ENDBRANCH  18  19
ENDBRANCH   3  18
TORSDOF 7
ENDMDL
MODEL 7
REMARK VINA RESULT:     -11.0      3.727      7.113
REMARK  Name = 16122642
REMARK  7 active torsions:
REMARK  status: ('A' for Active; 'I' for Inactive)
REMARK    1  A    between atoms: C_2  and  C_10
REMARK    2  A    between atoms: C_3  and  O_18
REMARK    3  A    between atoms: O_18  and  C_19
REMARK    4  A    between atoms: C_19  and  C_20
REMARK    5  A    between atoms: C_20  and  N_21
REMARK    6  A    between atoms: C_20  and  C_25
REMARK    7  A    between atoms: C_25  and  C_27
REMARK                            x       y       z     vdW  Elec       q    Type
REMARK                         _______ _______ _______ _____ _____    ______ ____
ROOT
ATOM      1  N   UNL     1      36.587 -20.848 -19.233  0.00  0.00    -0.239 NA
ATOM      2  C   UNL     1      35.228 -19.745 -20.892  0.00  0.00    +0.022 C 
ATOM      3  C   UNL     1      34.216 -21.301 -19.371  0.00  0.00    +0.158 C 
ATOM      4  C   UNL     1      34.102 -20.412 -20.435  0.00  0.00    +0.040 C 
ATOM      5  C   UNL     1      36.436 -19.991 -20.267  0.00  0.00    +0.099 C 
ATOM      6  C   UNL     1      35.470 -21.482 -18.810  0.00  0.00    +0.136 C 
ENDROOT
BRANCH   2  10
ATOM      7  N   UNL     1      34.885 -15.036 -24.260  0.00  0.00    -0.280 N 
ATOM      8  N   UNL     1      34.891 -16.118 -25.062  0.00  0.00    -0.173 NA
ATOM      9  C   UNL     1      35.015 -16.678 -22.864  0.00  0.00    +0.032 A 
ATOM     10  C   UNL     1      35.140 -18.811 -21.999  0.00  0.00    +0.002 C 
ATOM     11  C   UNL     1      34.972 -17.165 -24.222  0.00  0.00    +0.102 A 
ATOM     12  C   UNL     1      35.099 -17.434 -21.702  0.00  0.00    +0.003 C 
ATOM     13  C   UNL     1      34.958 -15.315 -22.926  0.00  0.00    +0.053 A 
ATOM     14  C   UNL     1      35.100 -19.343 -23.326  0.00  0.00    +0.002 C 
ATOM     15  C   UNL     1      35.014 -18.547 -24.488  0.00  0.00    +0.021 C 
ATOM     16  C   UNL     1      34.964 -14.253 -21.906  0.00  0.00    +0.051 C 
ATOM     17  H   UNL     1      34.832 -14.118 -24.608  0.00  0.00    +0.189 HD
ENDBRANCH   2  10
BRANCH   3  18
ATOM     18  O   UNL     1      33.135 -21.969 -18.900  0.00  0.00    -0.476 OA
BRANCH  18  19
ATOM     19  C   UNL     1      33.369 -22.990 -17.927  0.00  0.00    +0.184 C 
BRANCH  19  20
ATOM     20  C   UNL     1      32.683 -22.630 -16.603  0.00  0.00    -0.017 C 
BRANCH  20  21
ATOM     21  N   UNL     1      31.262 -22.389 -16.870  0.00  0.00    +0.384 N 
ATOM     22  H   UNL     1      30.726 -22.534 -16.015  0.00  0.00    -0.089 HD
ATOM     23  H   UNL     1      30.937 -23.035 -17.589  0.00  0.00    -0.089 HD
ATOM     24  H   UNL     1      31.134 -21.429 -17.192  0.00  0.00    -0.089 HD
ENDBRANCH  20  21
BRANCH  20  25
ATOM     25  C   UNL     1      32.794 -23.743 -15.539  0.00  0.00    +0.008 C 
BRANCH  25  27
ATOM     26 BR   UNL     1      37.627 -23.207 -11.741  0.00  0.00    -0.049 Br
ATOM     27  C   UNL     1      33.976 -23.611 -14.611  0.00  0.00    -0.024 C 
ATOM     28  C   UNL     1      35.150 -23.044 -15.081  0.00  0.00    -0.004 C 
ATOM     29  C   UNL     1      33.865 -24.059 -13.305  0.00  0.00    -0.004 C 
ATOM     30  C   UNL     1      36.243 -22.924 -14.222  0.00  0.00    +0.006 C 
ATOM     31  C   UNL     1      34.958 -23.939 -12.446  0.00  0.00    +0.006 C 
ATOM     32  C   UNL     1      36.146 -23.370 -12.904  0.00  0.00    +0.035 C 
ENDBRANCH  25  27
ENDBRANCH  20  25
ENDBRANCH  19  20
ENDBRANCH  18  19
ENDBRANCH   3  18
TORSDOF 7
ENDMDL
MODEL 8
REMARK VINA RESULT:     -11.0      5.345     11.068
REMARK  Name = 16122642
REMARK  7 active torsions:
REMARK  status: ('A' for Active; 'I' for Inactive)
REMARK    1  A    between atoms: C_2  and  C_10
REMARK    2  A    between atoms: C_3  and  O_18
REMARK    3  A    between atoms: O_18  and  C_19
REMARK    4  A    between atoms: C_19  and  C_20
REMARK    5  A    between atoms: C_20  and  N_21
REMARK    6  A    between atoms: C_20  and  C_25
REMARK    7  A    between atoms: C_25  and  C_27
REMARK                            x       y       z     vdW  Elec       q    Type
REMARK                         _______ _______ _______ _____ _____    ______ ____
ROOT
ATOM      1  N   UNL     1      31.817 -11.650 -20.238  0.00  0.00    -0.239 NA
ATOM      2  C   UNL     1      32.935 -12.404 -22.237  0.00  0.00    +0.022 C 
ATOM      3  C   UNL     1      32.340 -10.090 -22.009  0.00  0.00    +0.158 C 
ATOM      4  C   UNL     1      32.912 -11.117 -22.753  0.00  0.00    +0.040 C 
ATOM      5  C   UNL     1      32.382 -12.621 -20.989  0.00  0.00    +0.099 C 
ATOM      6  C   UNL     1      31.811 -10.407 -20.768  0.00  0.00    +0.136 C 
ENDROOT
BRANCH   2  10
ATOM      7  N   UNL     1      35.704 -17.207 -23.938  0.00  0.00    -0.280 N 
ATOM      8  N   UNL     1      35.216 -16.600 -25.038  0.00  0.00    -0.173 NA
ATOM      9  C   UNL     1      34.718 -15.462 -23.136  0.00  0.00    +0.032 A 
ATOM     10  C   UNL     1      33.525 -13.496 -22.989  0.00  0.00    +0.002 C 
ATOM     11  C   UNL     1      34.591 -15.504 -24.573  0.00  0.00    +0.102 A 
ATOM     12  C   UNL     1      34.215 -14.496 -22.275  0.00  0.00    +0.003 C 
ATOM     13  C   UNL     1      35.434 -16.565 -22.765  0.00  0.00    +0.053 A 
ATOM     14  C   UNL     1      33.372 -13.491 -24.411  0.00  0.00    +0.002 C 
ATOM     15  C   UNL     1      33.897 -14.491 -25.259  0.00  0.00    +0.021 C 
ATOM     16  C   UNL     1      35.891 -17.087 -21.466  0.00  0.00    +0.051 C 
ATOM     17  H   UNL     1      36.216 -18.046 -23.978  0.00  0.00    +0.189 HD
ENDBRANCH   2  10
BRANCH   3  18
ATOM     18  O   UNL     1      32.302  -8.821 -22.483  0.00  0.00    -0.476 OA
BRANCH  18  19
ATOM     19  C   UNL     1      31.880  -7.797 -21.581  0.00  0.00    +0.184 C 
BRANCH  19  20
ATOM     20  C   UNL     1      33.043  -6.843 -21.278  0.00  0.00    -0.017 C 
BRANCH  20  21
ATOM     21  N   UNL     1      33.505  -7.100 -19.911  0.00  0.00    +0.384 N 
ATOM     22  H   UNL     1      34.508  -6.926 -19.854  0.00  0.00    -0.089 HD
ATOM     23  H   UNL     1      33.315  -8.071 -19.664  0.00  0.00    -0.089 HD
ATOM     24  H   UNL     1      33.015  -6.482 -19.264  0.00  0.00    -0.089 HD
ENDBRANCH  20  21
BRANCH  20  25
ATOM     25  C   UNL     1      34.240  -7.023 -22.236  0.00  0.00    +0.008 C 
BRANCH  25  27
ATOM     26 BR   UNL     1      34.278  -3.166 -27.053  0.00  0.00    -0.049 Br
ATOM     27  C   UNL     1      34.249  -6.080 -23.415  0.00  0.00    -0.024 C 
ATOM     28  C   UNL     1      35.211  -6.234 -24.401  0.00  0.00    -0.004 C 
ATOM     29  C   UNL     1      33.296  -5.078 -23.489  0.00  0.00    -0.004 C 
ATOM     30  C   UNL     1      35.220  -5.362 -25.489  0.00  0.00    +0.006 C 
ATOM     31  C   UNL     1      33.305  -4.206 -24.577  0.00  0.00    +0.006 C 
ATOM     32  C   UNL     1      34.266  -4.348 -25.578  0.00  0.00    +0.035 C 
ENDBRANCH  25  27
ENDBRANCH  20  25
ENDBRANCH  19  20
ENDBRANCH  18  19
ENDBRANCH   3  18
TORSDOF 7
ENDMDL
MODEL 9
REMARK VINA RESULT:     -10.9      5.806     12.312
REMARK  Name = 16122642
REMARK  7 active torsions:
REMARK  status: ('A' for Active; 'I' for Inactive)
REMARK    1  A    between atoms: C_2  and  C_10
REMARK    2  A    between atoms: C_3  and  O_18
REMARK    3  A    between atoms: O_18  and  C_19
REMARK    4  A    between atoms: C_19  and  C_20
REMARK    5  A    between atoms: C_20  and  N_21
REMARK    6  A    between atoms: C_20  and  C_25
REMARK    7  A    between atoms: C_25  and  C_27
REMARK                            x       y       z     vdW  Elec       q    Type
REMARK                         _______ _______ _______ _____ _____    ______ ____
ROOT
ATOM      1  N   UNL     1      31.594 -23.153 -15.116  0.00  0.00    -0.239 NA
ATOM      2  C   UNL     1      34.002 -23.248 -15.194  0.00  0.00    +0.022 C 
ATOM      3  C   UNL     1      32.772 -22.671 -17.172  0.00  0.00    +0.158 C 
ATOM      4  C   UNL     1      33.988 -22.896 -16.536  0.00  0.00    +0.040 C 
ATOM      5  C   UNL     1      32.795 -23.363 -14.532  0.00  0.00    +0.099 C 
ATOM      6  C   UNL     1      31.614 -22.811 -16.424  0.00  0.00    +0.136 C 
ENDROOT
BRANCH   2  10
ATOM      7  N   UNL     1      38.151 -24.317 -11.286  0.00  0.00    -0.280 N 
ATOM      8  N   UNL     1      38.744 -24.171 -12.487  0.00  0.00    -0.173 NA
ATOM      9  C   UNL     1      36.488 -23.930 -12.606  0.00  0.00    +0.032 A 
ATOM     10  C   UNL     1      35.256 -23.488 -14.503  0.00  0.00    +0.002 C 
ATOM     11  C   UNL     1      37.732 -23.928 -13.338  0.00  0.00    +0.102 A 
ATOM     12  C   UNL     1      35.213 -23.719 -13.114  0.00  0.00    +0.003 C 
ATOM     13  C   UNL     1      36.794 -24.181 -11.298  0.00  0.00    +0.053 A 
ATOM     14  C   UNL     1      36.461 -23.476 -15.274  0.00  0.00    +0.002 C 
ATOM     15  C   UNL     1      37.744 -23.694 -14.726  0.00  0.00    +0.021 C 
ATOM     16  C   UNL     1      35.985 -24.310 -10.075  0.00  0.00    +0.051 C 
ATOM     17  H   UNL     1      38.658 -24.505 -10.464  0.00  0.00    +0.189 HD
ENDBRANCH   2  10
BRANCH   3  18
ATOM     18  O   UNL     1      32.722 -22.325 -18.481  0.00  0.00    -0.476 OA
BRANCH  18  19
ATOM     19  C   UNL     1      33.966 -22.189 -19.171  0.00  0.00    +0.184 C 
BRANCH  19  20
ATOM     20  C   UNL     1      33.873 -21.072 -20.219  0.00  0.00    -0.017 C 
BRANCH  20  21
ATOM     21  N   UNL     1      32.720 -20.229 -19.893  0.00  0.00    +0.384 N 
ATOM     22  H   UNL     1      32.027 -20.780 -19.388  0.00  0.00    -0.089 HD
ATOM     23  H   UNL     1      32.306 -19.870 -20.754  0.00  0.00    -0.089 HD
ATOM     24  H   UNL     1      33.023 -19.448 -19.311  0.00  0.00    -0.089 HD
ENDBRANCH  20  21
BRANCH  20  25
ATOM     25  C   UNL     1      35.130 -20.178 -20.266  0.00  0.00    +0.008 C 
BRANCH  25  27
ATOM     26 BR   UNL     1      35.052 -15.864 -24.677  0.00  0.00    -0.049 Br
ATOM     27  C   UNL     1      35.112 -19.122 -21.344  0.00  0.00    -0.024 C 
ATOM     28  C   UNL     1      35.600 -17.856 -21.065  0.00  0.00    -0.004 C 
ATOM     29  C   UNL     1      34.606 -19.439 -22.594  0.00  0.00    -0.004 C 
ATOM     30  C   UNL     1      35.582 -16.881 -22.062  0.00  0.00    +0.006 C 
ATOM     31  C   UNL     1      34.588 -18.464 -23.591  0.00  0.00    +0.006 C 
ATOM     32  C   UNL     1      35.076 -17.185 -23.325  0.00  0.00    +0.035 C 
ENDBRANCH  25  27
ENDBRANCH  20  25
ENDBRANCH  19  20
ENDBRANCH  18  19
ENDBRANCH   3  18
TORSDOF 7
ENDMDL
