MODEL 1
REMARK VINA RESULT:     -11.8      0.000      0.000
REMARK  Name = 11507920
REMARK  4 active torsions:
REMARK  status: ('A' for Active; 'I' for Inactive)
REMARK    1  A    between atoms: C_1  and  C_8
REMARK    2  A    between atoms: C_2  and  C_17
REMARK    3  A    between atoms: C_17  and  N_18
REMARK    4  A    between atoms: N_18  and  C_21
REMARK                            x       y       z     vdW  Elec       q    Type
REMARK                         _______ _______ _______ _____ _____    ______ ____
ROOT
ATOM      1  C   UNL     1      35.039 -18.901 -22.062  0.00  0.00    -0.000 C 
ATOM      2  C   UNL     1      35.141 -16.639 -22.905  0.00  0.00    -0.003 C 
ATOM      3  C   UNL     1      35.101 -17.527 -21.829  0.00  0.00    -0.003 C 
ATOM      4  C   UNL     1      35.016 -19.388 -23.368  0.00  0.00    -0.000 C 
ATOM      5  C   UNL     1      35.118 -17.126 -24.212  0.00  0.00    -0.003 C 
ATOM      6  C   UNL     1      35.054 -18.501 -24.444  0.00  0.00    -0.000 C 
ENDROOT
BRANCH   1   8
ATOM      7  N   UNL     1      32.716 -21.757 -18.729  0.00  0.00    -0.312 N 
ATOM      8  C   UNL     1      34.996 -19.822 -20.945  0.00  0.00    +0.001 C 
ATOM      9  C   UNL     1      33.763 -21.160 -19.392  0.00  0.00    +0.048 C 
ATOM     10  C   UNL     1      34.940 -21.603 -18.785  0.00  0.00    +0.015 C 
ATOM     11  C   UNL     1      33.760 -20.270 -20.473  0.00  0.00    +0.015 C 
ATOM     12  C   UNL     1      36.187 -20.247 -20.359  0.00  0.00    +0.000 C 
ATOM     13  C   UNL     1      36.176 -21.137 -19.279  0.00  0.00    +0.001 C 
ATOM     14  C   UNL     1      34.561 -22.486 -17.736  0.00  0.00    +0.017 C 
ATOM     15  C   UNL     1      33.188 -22.560 -17.726  0.00  0.00    +0.062 C 
ATOM     16  H   UNL     1      31.764 -21.625 -18.944  0.00  0.00    +0.152 HD
ENDBRANCH   1   8
BRANCH   2  17
ATOM     17  C   UNL     1      35.208 -15.170 -22.658  0.00  0.00    +0.114 C 
BRANCH  17  18
ATOM     18  N   UNL     1      34.009 -14.491 -23.078  0.00  0.00    -0.327 N 
ATOM     19  H   UNL     1      33.154 -14.764 -22.673  0.00  0.00    +0.147 HD
BRANCH  18  21
ATOM     20  N   UNL     1      33.514 -12.693 -26.278  0.00  0.00    -0.228 NA
ATOM     21  C   UNL     1      33.989 -13.472 -24.020  0.00  0.00    +0.077 C 
ATOM     22  C   UNL     1      33.550 -13.659 -25.333  0.00  0.00    +0.139 C 
ATOM     23  C   UNL     1      34.418 -12.181 -23.683  0.00  0.00    +0.019 C 
ATOM     24  C   UNL     1      34.396 -11.162 -24.628  0.00  0.00    +0.022 C 
ATOM     25  C   UNL     1      33.939 -11.467 -25.901  0.00  0.00    +0.100 C 
ATOM     26  N   UNL     1      33.112 -14.957 -25.699  0.00  0.00    -0.342 N 
ATOM     27  H   UNL     1      32.795 -15.128 -26.615  0.00  0.00    +0.144 HD
ATOM     28  H   UNL     1      33.123 -15.686 -25.038  0.00  0.00    +0.144 HD
ENDBRANCH  18  21
ENDBRANCH  17  18
ENDBRANCH   2  17
TORSDOF 4
ENDMDL
MODEL 2
REMARK VINA RESULT:     -11.6      1.557      2.023
REMARK  Name = 11507920
REMARK  4 active torsions:
REMARK  status: ('A' for Active; 'I' for Inactive)
REMARK    1  A    between atoms: C_1  and  C_8
REMARK    2  A    between atoms: C_2  and  C_17
REMARK    3  A    between atoms: C_17  and  N_18
REMARK    4  A    between atoms: N_18  and  C_21
REMARK                            x       y       z     vdW  Elec       q    Type
REMARK                         _______ _______ _______ _____ _____    ______ ____
ROOT
ATOM      1  C   UNL     1      34.988 -18.743 -22.132  0.00  0.00    -0.000 C 
ATOM      2  C   UNL     1      35.130 -16.462 -22.915  0.00  0.00    -0.003 C 
ATOM      3  C   UNL     1      35.106 -17.380 -21.864  0.00  0.00    -0.003 C 
ATOM      4  C   UNL     1      34.893 -19.191 -23.449  0.00  0.00    -0.000 C 
ATOM      5  C   UNL     1      35.035 -16.909 -24.233  0.00  0.00    -0.003 C 
ATOM      6  C   UNL     1      34.916 -18.274 -24.500  0.00  0.00    -0.000 C 
ENDROOT
BRANCH   1   8
ATOM      7  N   UNL     1      32.714 -21.672 -18.829  0.00  0.00    -0.312 N 
ATOM      8  C   UNL     1      34.962 -19.695 -21.041  0.00  0.00    +0.001 C 
ATOM      9  C   UNL     1      33.751 -21.065 -19.499  0.00  0.00    +0.048 C 
ATOM     10  C   UNL     1      34.938 -21.535 -18.931  0.00  0.00    +0.015 C 
ATOM     11  C   UNL     1      33.732 -20.146 -20.554  0.00  0.00    +0.015 C 
ATOM     12  C   UNL     1      36.162 -20.146 -20.494  0.00  0.00    +0.000 C 
ATOM     13  C   UNL     1      36.166 -21.065 -19.438  0.00  0.00    +0.001 C 
ATOM     14  C   UNL     1      34.574 -22.444 -17.898  0.00  0.00    +0.017 C 
ATOM     15  C   UNL     1      33.201 -22.506 -17.860  0.00  0.00    +0.062 C 
ATOM     16  H   UNL     1      31.758 -21.527 -19.020  0.00  0.00    +0.152 HD
ENDBRANCH   1   8
BRANCH   2  17
ATOM     17  C   UNL     1      35.256 -15.004 -22.631  0.00  0.00    +0.114 C 
BRANCH  17  18
ATOM     18  N   UNL     1      34.203 -14.235 -23.243  0.00  0.00    -0.327 N 
ATOM     19  H   UNL     1      33.964 -14.436 -24.176  0.00  0.00    +0.147 HD
BRANCH  18  21
ATOM     20  N   UNL     1      32.728 -10.919 -22.501  0.00  0.00    -0.228 NA
ATOM     21  C   UNL     1      33.507 -13.224 -22.593  0.00  0.00    +0.077 C 
ATOM     22  C   UNL     1      33.397 -11.928 -23.102  0.00  0.00    +0.139 C 
ATOM     23  C   UNL     1      32.870 -13.472 -21.370  0.00  0.00    +0.019 C 
ATOM     24  C   UNL     1      32.173 -12.459 -20.721  0.00  0.00    +0.022 C 
ATOM     25  C   UNL     1      32.132 -11.211 -21.323  0.00  0.00    +0.100 C 
ATOM     26  N   UNL     1      34.034 -11.653 -24.338  0.00  0.00    -0.342 N 
ATOM     27  H   UNL     1      33.979 -10.751 -24.729  0.00  0.00    +0.144 HD
ATOM     28  H   UNL     1      34.531 -12.362 -24.806  0.00  0.00    +0.144 HD
ENDBRANCH  18  21
ENDBRANCH  17  18
ENDBRANCH   2  17
TORSDOF 4
ENDMDL
MODEL 3
REMARK VINA RESULT:     -11.5      2.127      9.672
REMARK  Name = 11507920
REMARK  4 active torsions:
REMARK  status: ('A' for Active; 'I' for Inactive)
REMARK    1  A    between atoms: C_1  and  C_8
REMARK    2  A    between atoms: C_2  and  C_17
REMARK    3  A    between atoms: C_17  and  N_18
REMARK    4  A    between atoms: N_18  and  C_21
REMARK                            x       y       z     vdW  Elec       q    Type
REMARK                         _______ _______ _______ _____ _____    ______ ____
ROOT
ATOM      1  C   UNL     1      35.361 -19.894 -20.668  0.00  0.00    -0.000 C 
ATOM      2  C   UNL     1      34.345 -21.425 -19.100  0.00  0.00    -0.003 C 
ATOM      3  C   UNL     1      34.222 -20.494 -20.132  0.00  0.00    -0.003 C 
ATOM      4  C   UNL     1      36.623 -20.223 -20.173  0.00  0.00    -0.000 C 
ATOM      5  C   UNL     1      35.607 -21.754 -18.604  0.00  0.00    -0.003 C 
ATOM      6  C   UNL     1      36.746 -21.152 -19.140  0.00  0.00    -0.000 C 
ENDROOT
BRANCH   1   8
ATOM      7  N   UNL     1      35.238 -15.287 -22.519  0.00  0.00    -0.312 N 
ATOM      8  C   UNL     1      35.234 -18.927 -21.739  0.00  0.00    +0.001 C 
ATOM      9  C   UNL     1      35.194 -16.663 -22.508  0.00  0.00    +0.048 C 
ATOM     10  C   UNL     1      34.984 -17.077 -23.826  0.00  0.00    +0.015 C 
ATOM     11  C   UNL     1      35.322 -17.564 -21.446  0.00  0.00    +0.015 C 
ATOM     12  C   UNL     1      35.024 -19.370 -23.043  0.00  0.00    +0.000 C 
ATOM     13  C   UNL     1      34.897 -18.458 -24.097  0.00  0.00    +0.001 C 
ATOM     14  C   UNL     1      34.904 -15.903 -24.625  0.00  0.00    +0.017 C 
ATOM     15  C   UNL     1      35.064 -14.819 -23.793  0.00  0.00    +0.062 C 
ATOM     16  H   UNL     1      35.375 -14.722 -21.724  0.00  0.00    +0.152 HD
ENDBRANCH   1   8
BRANCH   2  17
ATOM     17  C   UNL     1      33.128 -22.068 -18.526  0.00  0.00    +0.114 C 
BRANCH  17  18
ATOM     18  N   UNL     1      33.451 -23.077 -17.550  0.00  0.00    -0.327 N 
ATOM     19  H   UNL     1      34.089 -23.783 -17.806  0.00  0.00    +0.147 HD
BRANCH  18  21
ATOM     20  N   UNL     1      33.163 -23.567 -13.890  0.00  0.00    -0.228 NA
ATOM     21  C   UNL     1      32.916 -23.113 -16.270  0.00  0.00    +0.077 C 
ATOM     22  C   UNL     1      33.647 -23.520 -15.152  0.00  0.00    +0.139 C 
ATOM     23  C   UNL     1      31.588 -22.731 -16.043  0.00  0.00    +0.019 C 
ATOM     24  C   UNL     1      31.053 -22.767 -14.760  0.00  0.00    +0.022 C 
ATOM     25  C   UNL     1      31.875 -23.189 -13.727  0.00  0.00    +0.100 C 
ATOM     26  N   UNL     1      34.994 -23.913 -15.356  0.00  0.00    -0.342 N 
ATOM     27  H   UNL     1      35.542 -24.206 -14.592  0.00  0.00    +0.144 HD
ATOM     28  H   UNL     1      35.382 -23.892 -16.260  0.00  0.00    +0.144 HD
ENDBRANCH  18  21
ENDBRANCH  17  18
ENDBRANCH   2  17
TORSDOF 4
ENDMDL
MODEL 4
REMARK VINA RESULT:     -11.2      3.175      9.564
REMARK  Name = 11507920
REMARK  4 active torsions:
REMARK  status: ('A' for Active; 'I' for Inactive)
REMARK    1  A    between atoms: C_1  and  C_8
REMARK    2  A    between atoms: C_2  and  C_17
REMARK    3  A    between atoms: C_17  and  N_18
REMARK    4  A    between atoms: N_18  and  C_21
REMARK                            x       y       z     vdW  Elec       q    Type
REMARK                         _______ _______ _______ _____ _____    ______ ____
ROOT
ATOM      1  C   UNL     1      35.705 -20.630 -19.698  0.00  0.00    -0.000 C 
ATOM      2  C   UNL     1      34.561 -22.258 -18.329  0.00  0.00    -0.003 C 
ATOM      3  C   UNL     1      34.580 -21.412 -19.438  0.00  0.00    -0.003 C 
ATOM      4  C   UNL     1      36.810 -20.692 -18.851  0.00  0.00    -0.000 C 
ATOM      5  C   UNL     1      35.666 -22.320 -17.480  0.00  0.00    -0.003 C 
ATOM      6  C   UNL     1      36.791 -21.536 -17.741  0.00  0.00    -0.000 C 
ENDROOT
BRANCH   1   8
ATOM      7  N   UNL     1      33.779 -18.652 -23.827  0.00  0.00    -0.312 N 
ATOM      8  C   UNL     1      35.724 -19.751 -20.849  0.00  0.00    +0.001 C 
ATOM      9  C   UNL     1      34.691 -18.874 -22.820  0.00  0.00    +0.048 C 
ATOM     10  C   UNL     1      35.786 -18.043 -23.067  0.00  0.00    +0.015 C 
ATOM     11  C   UNL     1      34.632 -19.737 -21.721  0.00  0.00    +0.015 C 
ATOM     12  C   UNL     1      36.831 -18.933 -21.071  0.00  0.00    +0.000 C 
ATOM     13  C   UNL     1      36.877 -18.075 -22.175  0.00  0.00    +0.001 C 
ATOM     14  C   UNL     1      35.498 -17.316 -24.256  0.00  0.00    +0.017 C 
ATOM     15  C   UNL     1      34.258 -17.713 -24.699  0.00  0.00    +0.062 C 
ATOM     16  H   UNL     1      32.908 -19.103 -23.907  0.00  0.00    +0.152 HD
ENDBRANCH   1   8
BRANCH   2  17
ATOM     17  C   UNL     1      33.359 -23.095 -18.049  0.00  0.00    +0.114 C 
BRANCH  17  18
ATOM     18  N   UNL     1      32.346 -22.371 -17.324  0.00  0.00    -0.327 N 
ATOM     19  H   UNL     1      31.940 -21.584 -17.755  0.00  0.00    +0.147 HD
BRANCH  18  21
ATOM     20  N   UNL     1      30.093 -23.178 -14.497  0.00  0.00    -0.228 NA
ATOM     21  C   UNL     1      31.908 -22.719 -16.053  0.00  0.00    +0.077 C 
ATOM     22  C   UNL     1      30.557 -22.840 -15.721  0.00  0.00    +0.139 C 
ATOM     23  C   UNL     1      32.830 -22.971 -15.028  0.00  0.00    +0.019 C 
ATOM     24  C   UNL     1      32.390 -23.320 -13.756  0.00  0.00    +0.022 C 
ATOM     25  C   UNL     1      31.023 -23.410 -13.544  0.00  0.00    +0.100 C 
ATOM     26  N   UNL     1      29.606 -22.589 -16.741  0.00  0.00    -0.342 N 
ATOM     27  H   UNL     1      28.644 -22.664 -16.545  0.00  0.00    +0.144 HD
ATOM     28  H   UNL     1      29.906 -22.340 -17.645  0.00  0.00    +0.144 HD
ENDBRANCH  18  21
ENDBRANCH  17  18
ENDBRANCH   2  17
TORSDOF 4
ENDMDL
MODEL 5
REMARK VINA RESULT:     -11.0      3.738      6.899
REMARK  Name = 11507920
REMARK  4 active torsions:
REMARK  status: ('A' for Active; 'I' for Inactive)
REMARK    1  A    between atoms: C_1  and  C_8
REMARK    2  A    between atoms: C_2  and  C_17
REMARK    3  A    between atoms: C_17  and  N_18
REMARK    4  A    between atoms: N_18  and  C_21
REMARK                            x       y       z     vdW  Elec       q    Type
REMARK                         _______ _______ _______ _____ _____    ______ ____
ROOT
ATOM      1  C   UNL     1      34.747 -22.673 -16.353  0.00  0.00    -0.000 C 
ATOM      2  C   UNL     1      35.862 -21.771 -18.296  0.00  0.00    -0.003 C 
ATOM      3  C   UNL     1      34.728 -22.326 -17.703  0.00  0.00    -0.003 C 
ATOM      4  C   UNL     1      35.898 -22.466 -15.594  0.00  0.00    -0.000 C 
ATOM      5  C   UNL     1      37.015 -21.564 -17.538  0.00  0.00    -0.003 C 
ATOM      6  C   UNL     1      37.033 -21.913 -16.187  0.00  0.00    -0.000 C 
ENDROOT
BRANCH   1   8
ATOM      7  N   UNL     1      29.873 -23.574 -16.037  0.00  0.00    -0.312 N 
ATOM      8  C   UNL     1      33.569 -23.250 -15.738  0.00  0.00    +0.001 C 
ATOM      9  C   UNL     1      31.205 -23.613 -15.695  0.00  0.00    +0.048 C 
ATOM     10  C   UNL     1      31.308 -24.377 -14.530  0.00  0.00    +0.015 C 
ATOM     11  C   UNL     1      32.317 -23.038 -16.321  0.00  0.00    +0.015 C 
ATOM     12  C   UNL     1      33.702 -24.008 -14.576  0.00  0.00    +0.000 C 
ATOM     13  C   UNL     1      32.582 -24.577 -13.960  0.00  0.00    +0.001 C 
ATOM     14  C   UNL     1      29.992 -24.793 -14.187  0.00  0.00    +0.017 C 
ATOM     15  C   UNL     1      29.132 -24.284 -15.131  0.00  0.00    +0.062 C 
ATOM     16  H   UNL     1      29.505 -23.102 -16.820  0.00  0.00    +0.152 HD
ENDBRANCH   1   8
BRANCH   2  17
ATOM     17  C   UNL     1      35.844 -21.400 -19.741  0.00  0.00    +0.114 C 
BRANCH  17  18
ATOM     18  N   UNL     1      35.317 -20.077 -19.958  0.00  0.00    -0.327 N 
ATOM     19  H   UNL     1      34.823 -19.647 -19.223  0.00  0.00    +0.147 HD
BRANCH  18  21
ATOM     20  N   UNL     1      36.774 -17.905 -22.581  0.00  0.00    -0.228 NA
ATOM     21  C   UNL     1      35.465 -19.373 -21.146  0.00  0.00    +0.077 C 
ATOM     22  C   UNL     1      36.593 -18.603 -21.437  0.00  0.00    +0.139 C 
ATOM     23  C   UNL     1      34.464 -19.411 -22.125  0.00  0.00    +0.019 C 
ATOM     24  C   UNL     1      34.614 -18.705 -23.313  0.00  0.00    +0.022 C 
ATOM     25  C   UNL     1      35.777 -17.975 -23.492  0.00  0.00    +0.100 C 
ATOM     26  N   UNL     1      37.620 -18.548 -20.462  0.00  0.00    -0.342 N 
ATOM     27  H   UNL     1      38.431 -18.015 -20.631  0.00  0.00    +0.144 HD
ATOM     28  H   UNL     1      37.524 -19.042 -19.616  0.00  0.00    +0.144 HD
ENDBRANCH  18  21
ENDBRANCH  17  18
ENDBRANCH   2  17
TORSDOF 4
ENDMDL
MODEL 6
REMARK VINA RESULT:     -10.9      2.690      5.716
REMARK  Name = 11507920
REMARK  4 active torsions:
REMARK  status: ('A' for Active; 'I' for Inactive)
REMARK    1  A    between atoms: C_1  and  C_8
REMARK    2  A    between atoms: C_2  and  C_17
REMARK    3  A    between atoms: C_17  and  N_18
REMARK    4  A    between atoms: N_18  and  C_21
REMARK                            x       y       z     vdW  Elec       q    Type
REMARK                         _______ _______ _______ _____ _____    ______ ____
ROOT
ATOM      1  C   UNL     1      34.015 -22.076 -17.818  0.00  0.00    -0.000 C 
ATOM      2  C   UNL     1      34.392 -20.790 -19.828  0.00  0.00    -0.003 C 
ATOM      3  C   UNL     1      33.514 -21.363 -18.907  0.00  0.00    -0.003 C 
ATOM      4  C   UNL     1      35.391 -22.217 -17.648  0.00  0.00    -0.000 C 
ATOM      5  C   UNL     1      35.769 -20.931 -19.659  0.00  0.00    -0.003 C 
ATOM      6  C   UNL     1      36.269 -21.645 -18.569  0.00  0.00    -0.000 C 
ENDROOT
BRANCH   1   8
ATOM      7  N   UNL     1      32.913 -24.775 -13.798  0.00  0.00    -0.312 N 
ATOM      8  C   UNL     1      33.104 -22.672 -16.863  0.00  0.00    +0.001 C 
ATOM      9  C   UNL     1      32.701 -23.993 -14.910  0.00  0.00    +0.048 C 
ATOM     10  C   UNL     1      31.321 -23.814 -15.030  0.00  0.00    +0.015 C 
ATOM     11  C   UNL     1      33.616 -23.435 -15.810  0.00  0.00    +0.015 C 
ATOM     12  C   UNL     1      31.731 -22.476 -17.008  0.00  0.00    +0.000 C 
ATOM     13  C   UNL     1      30.828 -23.041 -16.101  0.00  0.00    +0.001 C 
ATOM     14  C   UNL     1      30.714 -24.516 -13.951  0.00  0.00    +0.017 C 
ATOM     15  C   UNL     1      31.718 -25.096 -13.212  0.00  0.00    +0.062 C 
ATOM     16  H   UNL     1      33.796 -25.063 -13.470  0.00  0.00    +0.152 HD
ENDBRANCH   1   8
BRANCH   2  17
ATOM     17  C   UNL     1      33.858 -20.028 -20.993  0.00  0.00    +0.114 C 
BRANCH  17  18
ATOM     18  N   UNL     1      34.876 -19.741 -21.971  0.00  0.00    -0.327 N 
ATOM     19  H   UNL     1      35.580 -20.413 -22.119  0.00  0.00    +0.147 HD
BRANCH  18  21
ATOM     20  N   UNL     1      35.505 -16.216 -22.917  0.00  0.00    -0.228 NA
ATOM     21  C   UNL     1      34.922 -18.571 -22.718  0.00  0.00    +0.077 C 
ATOM     22  C   UNL     1      35.442 -17.374 -22.222  0.00  0.00    +0.139 C 
ATOM     23  C   UNL     1      34.439 -18.547 -24.032  0.00  0.00    +0.019 C 
ATOM     24  C   UNL     1      34.486 -17.374 -24.778  0.00  0.00    +0.022 C 
ATOM     25  C   UNL     1      35.025 -16.246 -24.180  0.00  0.00    +0.100 C 
ATOM     26  N   UNL     1      35.936 -17.373 -20.893  0.00  0.00    -0.342 N 
ATOM     27  H   UNL     1      36.310 -16.548 -20.509  0.00  0.00    +0.144 HD
ATOM     28  H   UNL     1      35.907 -18.197 -20.356  0.00  0.00    +0.144 HD
ENDBRANCH  18  21
ENDBRANCH  17  18
ENDBRANCH   2  17
TORSDOF 4
ENDMDL
MODEL 7
REMARK VINA RESULT:     -10.8      1.599      2.263
REMARK  Name = 11507920
REMARK  4 active torsions:
REMARK  status: ('A' for Active; 'I' for Inactive)
REMARK    1  A    between atoms: C_1  and  C_8
REMARK    2  A    between atoms: C_2  and  C_17
REMARK    3  A    between atoms: C_17  and  N_18
REMARK    4  A    between atoms: N_18  and  C_21
REMARK                            x       y       z     vdW  Elec       q    Type
REMARK                         _______ _______ _______ _____ _____    ______ ____
ROOT
ATOM      1  C   UNL     1      34.888 -18.526 -22.419  0.00  0.00    -0.000 C 
ATOM      2  C   UNL     1      35.050 -16.270 -23.266  0.00  0.00    -0.003 C 
ATOM      3  C   UNL     1      34.963 -17.153 -22.189  0.00  0.00    -0.003 C 
ATOM      4  C   UNL     1      34.900 -19.018 -23.724  0.00  0.00    -0.000 C 
ATOM      5  C   UNL     1      35.062 -16.761 -24.572  0.00  0.00    -0.003 C 
ATOM      6  C   UNL     1      34.986 -18.136 -24.801  0.00  0.00    -0.000 C 
ENDROOT
BRANCH   1   8
ATOM      7  N   UNL     1      36.783 -21.263 -18.733  0.00  0.00    -0.312 N 
ATOM      8  C   UNL     1      34.796 -19.443 -21.302  0.00  0.00    +0.001 C 
ATOM      9  C   UNL     1      35.828 -20.718 -19.561  0.00  0.00    +0.048 C 
ATOM     10  C   UNL     1      34.591 -21.216 -19.144  0.00  0.00    +0.015 C 
ATOM     11  C   UNL     1      35.961 -19.831 -20.635  0.00  0.00    +0.015 C 
ATOM     12  C   UNL     1      33.548 -19.924 -20.908  0.00  0.00    +0.000 C 
ATOM     13  C   UNL     1      33.430 -20.811 -19.832  0.00  0.00    +0.001 C 
ATOM     14  C   UNL     1      34.839 -22.077 -18.039  0.00  0.00    +0.017 C 
ATOM     15  C   UNL     1      36.196 -22.085 -17.811  0.00  0.00    +0.062 C 
ATOM     16  H   UNL     1      37.750 -21.086 -18.796  0.00  0.00    +0.152 HD
ENDBRANCH   1   8
BRANCH   2  17
ATOM     17  C   UNL     1      35.130 -14.801 -23.022  0.00  0.00    +0.114 C 
BRANCH  17  18
ATOM     18  N   UNL     1      33.831 -14.179 -23.000  0.00  0.00    -0.327 N 
ATOM     19  H   UNL     1      33.041 -14.757 -22.895  0.00  0.00    +0.147 HD
BRANCH  18  21
ATOM     20  N   UNL     1      32.558 -10.761 -22.353  0.00  0.00    -0.228 NA
ATOM     21  C   UNL     1      33.628 -12.811 -23.118  0.00  0.00    +0.077 C 
ATOM     22  C   UNL     1      32.781 -12.092 -22.271  0.00  0.00    +0.139 C 
ATOM     23  C   UNL     1      34.284 -12.078 -24.116  0.00  0.00    +0.019 C 
ATOM     24  C   UNL     1      34.079 -10.707 -24.232  0.00  0.00    +0.022 C 
ATOM     25  C   UNL     1      33.215 -10.101 -23.334  0.00  0.00    +0.100 C 
ATOM     26  N   UNL     1      32.105 -12.812 -21.255  0.00  0.00    -0.342 N 
ATOM     27  H   UNL     1      31.499 -12.341 -20.638  0.00  0.00    +0.144 HD
ATOM     28  H   UNL     1      32.241 -13.783 -21.164  0.00  0.00    +0.144 HD
ENDBRANCH  18  21
ENDBRANCH  17  18
ENDBRANCH   2  17
TORSDOF 4
ENDMDL
MODEL 8
REMARK VINA RESULT:     -10.8      2.394      4.885
REMARK  Name = 11507920
REMARK  4 active torsions:
REMARK  status: ('A' for Active; 'I' for Inactive)
REMARK    1  A    between atoms: C_1  and  C_8
REMARK    2  A    between atoms: C_2  and  C_17
REMARK    3  A    between atoms: C_17  and  N_18
REMARK    4  A    between atoms: N_18  and  C_21
REMARK                            x       y       z     vdW  Elec       q    Type
REMARK                         _______ _______ _______ _____ _____    ______ ____
ROOT
ATOM      1  C   UNL     1      34.428 -21.792 -18.243  0.00  0.00    -0.000 C 
ATOM      2  C   UNL     1      34.842 -20.452 -20.209  0.00  0.00    -0.003 C 
ATOM      3  C   UNL     1      33.948 -21.042 -19.315  0.00  0.00    -0.003 C 
ATOM      4  C   UNL     1      35.801 -21.953 -18.062  0.00  0.00    -0.000 C 
ATOM      5  C   UNL     1      36.216 -20.612 -20.029  0.00  0.00    -0.003 C 
ATOM      6  C   UNL     1      36.696 -21.364 -18.956  0.00  0.00    -0.000 C 
ENDROOT
BRANCH   1   8
ATOM      7  N   UNL     1      29.893 -22.773 -16.472  0.00  0.00    -0.312 N 
ATOM      8  C   UNL     1      33.500 -22.406 -17.316  0.00  0.00    +0.001 C 
ATOM      9  C   UNL     1      31.266 -22.804 -16.559  0.00  0.00    +0.048 C 
ATOM     10  C   UNL     1      31.726 -23.604 -15.511  0.00  0.00    +0.015 C 
ATOM     11  C   UNL     1      32.128 -22.193 -17.476  0.00  0.00    +0.015 C 
ATOM     12  C   UNL     1      33.988 -23.199 -16.278  0.00  0.00    +0.000 C 
ATOM     13  C   UNL     1      33.114 -23.804 -15.368  0.00  0.00    +0.001 C 
ATOM     14  C   UNL     1      30.581 -24.050 -14.794  0.00  0.00    +0.017 C 
ATOM     15  C   UNL     1      29.470 -23.522 -15.409  0.00  0.00    +0.062 C 
ATOM     16  H   UNL     1      29.300 -22.282 -17.087  0.00  0.00    +0.152 HD
ENDBRANCH   1   8
BRANCH   2  17
ATOM     17  C   UNL     1      34.330 -19.649 -21.357  0.00  0.00    +0.114 C 
BRANCH  17  18
ATOM     18  N   UNL     1      35.393 -19.054 -22.125  0.00  0.00    -0.327 N 
ATOM     19  H   UNL     1      36.282 -19.474 -22.090  0.00  0.00    +0.147 HD
BRANCH  18  21
ATOM     20  N   UNL     1      34.691 -16.898 -25.054  0.00  0.00    -0.228 NA
ATOM     21  C   UNL     1      35.235 -17.921 -22.913  0.00  0.00    +0.077 C 
ATOM     22  C   UNL     1      34.855 -17.976 -24.256  0.00  0.00    +0.139 C 
ATOM     23  C   UNL     1      35.455 -16.646 -22.377  0.00  0.00    +0.019 C 
ATOM     24  C   UNL     1      35.296 -15.513 -23.167  0.00  0.00    +0.022 C 
ATOM     25  C   UNL     1      34.916 -15.691 -24.487  0.00  0.00    +0.100 C 
ATOM     26  N   UNL     1      34.629 -19.256 -24.822  0.00  0.00    -0.342 N 
ATOM     27  H   UNL     1      34.360 -19.336 -25.765  0.00  0.00    +0.144 HD
ATOM     28  H   UNL     1      34.739 -20.065 -24.272  0.00  0.00    +0.144 HD
ENDBRANCH  18  21
ENDBRANCH  17  18
ENDBRANCH   2  17
TORSDOF 4
ENDMDL
MODEL 9
REMARK VINA RESULT:     -10.8      4.070     10.185
REMARK  Name = 11507920
REMARK  4 active torsions:
REMARK  status: ('A' for Active; 'I' for Inactive)
REMARK    1  A    between atoms: C_1  and  C_8
REMARK    2  A    between atoms: C_2  and  C_17
REMARK    3  A    between atoms: C_17  and  N_18
REMARK    4  A    between atoms: N_18  and  C_21
REMARK                            x       y       z     vdW  Elec       q    Type
REMARK                         _______ _______ _______ _____ _____    ______ ____
ROOT
ATOM      1  C   UNL     1      35.896 -21.639 -17.932  0.00  0.00    -0.000 C 
ATOM      2  C   UNL     1      35.331 -23.086 -16.083  0.00  0.00    -0.003 C 
ATOM      3  C   UNL     1      34.958 -22.406 -17.243  0.00  0.00    -0.003 C 
ATOM      4  C   UNL     1      37.206 -21.549 -17.465  0.00  0.00    -0.000 C 
ATOM      5  C   UNL     1      36.642 -22.998 -15.614  0.00  0.00    -0.003 C 
ATOM      6  C   UNL     1      37.579 -22.228 -16.305  0.00  0.00    -0.000 C 
ENDROOT
BRANCH   1   8
ATOM      7  N   UNL     1      36.785 -18.849 -21.944  0.00  0.00    -0.312 N 
ATOM      8  C   UNL     1      35.507 -20.931 -19.135  0.00  0.00    +0.001 C 
ATOM      9  C   UNL     1      36.063 -19.585 -21.033  0.00  0.00    +0.048 C 
ATOM     10  C   UNL     1      34.732 -19.571 -21.457  0.00  0.00    +0.015 C 
ATOM     11  C   UNL     1      36.479 -20.255 -19.878  0.00  0.00    +0.015 C 
ATOM     12  C   UNL     1      34.172 -20.935 -19.534  0.00  0.00    +0.000 C 
ATOM     13  C   UNL     1      33.769 -20.259 -20.692  0.00  0.00    +0.001 C 
ATOM     14  C   UNL     1      34.683 -18.802 -22.653  0.00  0.00    +0.017 C 
ATOM     15  C   UNL     1      35.961 -18.372 -22.926  0.00  0.00    +0.062 C 
ATOM     16  H   UNL     1      37.756 -18.689 -21.896  0.00  0.00    +0.152 HD
ENDBRANCH   1   8
BRANCH   2  17
ATOM     17  C   UNL     1      34.329 -23.907 -15.344  0.00  0.00    +0.114 C 
BRANCH  17  18
ATOM     18  N   UNL     1      33.168 -23.143 -14.966  0.00  0.00    -0.327 N 
ATOM     19  H   UNL     1      33.300 -22.213 -14.674  0.00  0.00    +0.147 HD
BRANCH  18  21
ATOM     20  N   UNL     1      29.661 -23.729 -16.003  0.00  0.00    -0.228 NA
ATOM     21  C   UNL     1      31.873 -23.644 -14.990  0.00  0.00    +0.077 C 
ATOM     22  C   UNL     1      30.929 -23.264 -15.946  0.00  0.00    +0.139 C 
ATOM     23  C   UNL     1      31.454 -24.577 -14.032  0.00  0.00    +0.019 C 
ATOM     24  C   UNL     1      30.157 -25.077 -14.058  0.00  0.00    +0.022 C 
ATOM     25  C   UNL     1      29.307 -24.626 -15.055  0.00  0.00    +0.100 C 
ATOM     26  N   UNL     1      31.329 -22.320 -16.924  0.00  0.00    -0.342 N 
ATOM     27  H   UNL     1      30.692 -22.027 -17.615  0.00  0.00    +0.144 HD
ATOM     28  H   UNL     1      32.245 -21.958 -16.915  0.00  0.00    +0.144 HD
ENDBRANCH  18  21
ENDBRANCH  17  18
ENDBRANCH   2  17
TORSDOF 4
ENDMDL
