MODEL 1
REMARK VINA RESULT:     -11.9      0.000      0.000
REMARK  Name = 5567
REMARK  8 active torsions:
REMARK  status: ('A' for Active; 'I' for Inactive)
REMARK    1  A    between atoms: N_1  and  C_20
REMARK    2  A    between atoms: C_2  and  C_8
REMARK    3  A    between atoms: C_2  and  O_18
REMARK    4  A    between atoms: C_11  and  C_17
REMARK    5  A    between atoms: C_20  and  C_21
REMARK    6  A    between atoms: C_21  and  C_22
REMARK    7  A    between atoms: C_22  and  C_24
REMARK    8  A    between atoms: C_24  and  C_26
REMARK                            x       y       z     vdW  Elec       q    Type
REMARK                         _______ _______ _______ _____ _____    ______ ____
ROOT
ATOM      1  N   UNL     1      35.490 -20.042 -20.105  0.00  0.00    +0.387 N 
ATOM      2  C   UNL     1      34.117 -22.171 -18.552  0.00  0.00    +0.103 C 
ATOM      3  C   UNL     1      33.384 -20.990 -19.226  0.00  0.00    +0.008 C 
ATOM      4  C   UNL     1      35.594 -21.773 -18.329  0.00  0.00    +0.008 C 
ATOM      5  C   UNL     1      34.123 -20.446 -20.454  0.00  0.00    -0.075 C 
ATOM      6  C   UNL     1      36.256 -21.176 -19.578  0.00  0.00    -0.075 C 
ATOM      7  H   UNL     1      35.430 -19.334 -19.373  0.00  0.00    -0.080 HD
ENDROOT
BRANCH   2   8
ATOM      8  C   UNL     1      33.489 -22.659 -17.246  0.00  0.00    +0.002 C 
ATOM      9  C   UNL     1      32.114 -22.542 -17.048  0.00  0.00    +0.002 C 
ATOM     10  C   UNL     1      34.293 -23.223 -16.257  0.00  0.00    -0.002 C 
ATOM     11  C   UNL     1      31.541 -22.989 -15.856  0.00  0.00    +0.071 C 
ATOM     12  C   UNL     1      33.720 -23.670 -15.066  0.00  0.00    -0.000 C 
ATOM     13  C   UNL     1      32.345 -23.552 -14.865  0.00  0.00    +0.004 C 
BRANCH  11  17
ATOM     14  F   UNL     1      29.741 -22.185 -14.501  0.00  0.00    -0.166 F 
ATOM     15  F   UNL     1      29.428 -22.199 -16.648  0.00  0.00    -0.166 F 
ATOM     16  F   UNL     1      29.448 -24.072 -15.543  0.00  0.00    -0.166 F 
ATOM     17  C   UNL     1      30.071 -22.862 -15.642  0.00  0.00    +0.419 C 
ENDBRANCH  11  17
ENDBRANCH   2   8
BRANCH   2  18
ATOM     18  O   UNL     1      34.055 -23.292 -19.448  0.00  0.00    -0.383 OA
ATOM     19  H   UNL     1      34.956 -23.569 -19.681  0.00  0.00    +0.211 HD
ENDBRANCH   2  18
BRANCH   1  20
ATOM     20  C   UNL     1      36.165 -19.460 -21.264  0.00  0.00    -0.077 C 
BRANCH  20  21
ATOM     21  C   UNL     1      35.139 -18.860 -22.228  0.00  0.00    -0.015 C 
BRANCH  21  22
ATOM     22  C   UNL     1      35.782 -17.916 -23.247  0.00  0.00    +0.067 C 
BRANCH  22  24
ATOM     23  O   UNL     1      34.164 -17.895 -25.038  0.00  0.00    -0.291 OA
ATOM     24  C   UNL     1      34.776 -17.260 -24.183  0.00  0.00    +0.173 C 
BRANCH  24  26
ATOM     25  F   UNL     1      33.792 -11.792 -23.635  0.00  0.00    -0.204 F 
ATOM     26  C   UNL     1      34.512 -15.801 -24.036  0.00  0.00    +0.035 C 
ATOM     27  C   UNL     1      34.980 -15.154 -22.914  0.00  0.00    +0.005 C 
ATOM     28  C   UNL     1      33.812 -15.153 -25.028  0.00  0.00    +0.005 C 
ATOM     29  C   UNL     1      34.734 -13.787 -22.777  0.00  0.00    +0.030 C 
ATOM     30  C   UNL     1      33.566 -13.786 -24.892  0.00  0.00    +0.030 C 
ATOM     31  C   UNL     1      34.027 -13.103 -23.766  0.00  0.00    +0.140 C 
ENDBRANCH  24  26
ENDBRANCH  22  24
ENDBRANCH  21  22
ENDBRANCH  20  21
ENDBRANCH   1  20
TORSDOF 8
ENDMDL
MODEL 2
REMARK VINA RESULT:     -11.5      3.414      5.872
REMARK  Name = 5567
REMARK  8 active torsions:
REMARK  status: ('A' for Active; 'I' for Inactive)
REMARK    1  A    between atoms: N_1  and  C_20
REMARK    2  A    between atoms: C_2  and  C_8
REMARK    3  A    between atoms: C_2  and  O_18
REMARK    4  A    between atoms: C_11  and  C_17
REMARK    5  A    between atoms: C_20  and  C_21
REMARK    6  A    between atoms: C_21  and  C_22
REMARK    7  A    between atoms: C_22  and  C_24
REMARK    8  A    between atoms: C_24  and  C_26
REMARK                            x       y       z     vdW  Elec       q    Type
REMARK                         _______ _______ _______ _____ _____    ______ ____
ROOT
ATOM      1  N   UNL     1      34.428 -15.992 -23.742  0.00  0.00    +0.387 N 
ATOM      2  C   UNL     1      35.898 -18.064 -22.200  0.00  0.00    +0.103 C 
ATOM      3  C   UNL     1      35.039 -18.368 -23.448  0.00  0.00    +0.008 C 
ATOM      4  C   UNL     1      35.423 -16.725 -21.590  0.00  0.00    +0.008 C 
ATOM      5  C   UNL     1      34.951 -17.184 -24.419  0.00  0.00    -0.075 C 
ATOM      6  C   UNL     1      35.291 -15.600 -22.624  0.00  0.00    -0.075 C 
ATOM      7  H   UNL     1      33.509 -16.224 -23.364  0.00  0.00    -0.080 HD
ENDROOT
BRANCH   2   8
ATOM      8  C   UNL     1      35.906 -19.165 -21.139  0.00  0.00    +0.002 C 
ATOM      9  C   UNL     1      34.725 -19.833 -20.821  0.00  0.00    +0.002 C 
ATOM     10  C   UNL     1      37.095 -19.499 -20.494  0.00  0.00    -0.002 C 
ATOM     11  C   UNL     1      34.732 -20.839 -19.853  0.00  0.00    +0.071 C 
ATOM     12  C   UNL     1      37.102 -20.505 -19.526  0.00  0.00    -0.000 C 
ATOM     13  C   UNL     1      35.921 -21.174 -19.206  0.00  0.00    +0.004 C 
BRANCH  11  17
ATOM     14  F   UNL     1      33.583 -22.915 -19.547  0.00  0.00    -0.166 F 
ATOM     15  F   UNL     1      33.003 -21.269 -18.259  0.00  0.00    -0.166 F 
ATOM     16  F   UNL     1      32.446 -21.250 -20.361  0.00  0.00    -0.166 F 
ATOM     17  C   UNL     1      33.469 -21.554 -19.510  0.00  0.00    +0.419 C 
ENDBRANCH  11  17
ENDBRANCH   2   8
BRANCH   2  18
ATOM     18  O   UNL     1      37.263 -17.935 -22.628  0.00  0.00    -0.383 OA
ATOM     19  H   UNL     1      37.575 -17.035 -22.445  0.00  0.00    +0.211 HD
ENDBRANCH   2  18
BRANCH   1  20
ATOM     20  C   UNL     1      34.279 -14.888 -24.689  0.00  0.00    -0.077 C 
BRANCH  20  21
ATOM     21  C   UNL     1      33.450 -13.764 -24.065  0.00  0.00    -0.015 C 
BRANCH  21  22
ATOM     22  C   UNL     1      34.309 -12.556 -23.677  0.00  0.00    +0.067 C 
BRANCH  22  24
ATOM     23  O   UNL     1      34.034 -11.565 -25.861  0.00  0.00    -0.291 OA
ATOM     24  C   UNL     1      34.194 -11.395 -24.655  0.00  0.00    +0.173 C 
BRANCH  24  26
ATOM     25  F   UNL     1      34.434  -6.188 -22.652  0.00  0.00    -0.204 F 
ATOM     26  C   UNL     1      34.258 -10.004 -24.121  0.00  0.00    +0.035 C 
ATOM     27  C   UNL     1      33.198  -9.531 -23.380  0.00  0.00    +0.005 C 
ATOM     28  C   UNL     1      35.374  -9.245 -24.388  0.00  0.00    +0.005 C 
ATOM     29  C   UNL     1      33.258  -8.230 -22.880  0.00  0.00    +0.030 C 
ATOM     30  C   UNL     1      35.434  -7.944 -23.887  0.00  0.00    +0.030 C 
ATOM     31  C   UNL     1      34.376  -7.436 -23.133  0.00  0.00    +0.140 C 
ENDBRANCH  24  26
ENDBRANCH  22  24
ENDBRANCH  21  22
ENDBRANCH  20  21
ENDBRANCH   1  20
TORSDOF 8
ENDMDL
MODEL 3
REMARK VINA RESULT:     -11.4      3.203     10.723
REMARK  Name = 5567
REMARK  8 active torsions:
REMARK  status: ('A' for Active; 'I' for Inactive)
REMARK    1  A    between atoms: N_1  and  C_20
REMARK    2  A    between atoms: C_2  and  C_8
REMARK    3  A    between atoms: C_2  and  O_18
REMARK    4  A    between atoms: C_11  and  C_17
REMARK    5  A    between atoms: C_20  and  C_21
REMARK    6  A    between atoms: C_21  and  C_22
REMARK    7  A    between atoms: C_22  and  C_24
REMARK    8  A    between atoms: C_24  and  C_26
REMARK                            x       y       z     vdW  Elec       q    Type
REMARK                         _______ _______ _______ _____ _____    ______ ____
ROOT
ATOM      1  N   UNL     1      34.396 -15.864 -23.794  0.00  0.00    +0.387 N 
ATOM      2  C   UNL     1      33.878 -13.029 -23.072  0.00  0.00    +0.103 C 
ATOM      3  C   UNL     1      34.511 -14.059 -22.111  0.00  0.00    +0.008 C 
ATOM      4  C   UNL     1      33.081 -13.791 -24.156  0.00  0.00    +0.008 C 
ATOM      5  C   UNL     1      35.272 -15.173 -22.840  0.00  0.00    -0.075 C 
ATOM      6  C   UNL     1      33.875 -14.934 -24.801  0.00  0.00    -0.075 C 
ATOM      7  H   UNL     1      33.604 -16.243 -23.275  0.00  0.00    -0.080 HD
ENDROOT
BRANCH   2   8
ATOM      8  C   UNL     1      32.996 -11.976 -22.399  0.00  0.00    +0.002 C 
ATOM      9  C   UNL     1      32.988 -10.667 -22.877  0.00  0.00    +0.002 C 
ATOM     10  C   UNL     1      32.201 -12.328 -21.310  0.00  0.00    -0.002 C 
ATOM     11  C   UNL     1      32.182  -9.706 -22.264  0.00  0.00    +0.071 C 
ATOM     12  C   UNL     1      31.395 -11.367 -20.697  0.00  0.00    -0.000 C 
ATOM     13  C   UNL     1      31.387 -10.056 -21.174  0.00  0.00    +0.004 C 
BRANCH  11  17
ATOM     14  F   UNL     1      30.919  -7.803 -22.975  0.00  0.00    -0.166 F 
ATOM     15  F   UNL     1      32.783  -7.414 -21.936  0.00  0.00    -0.166 F 
ATOM     16  F   UNL     1      32.815  -8.177 -23.972  0.00  0.00    -0.166 F 
ATOM     17  C   UNL     1      32.174  -8.304 -22.774  0.00  0.00    +0.419 C 
ENDBRANCH  11  17
ENDBRANCH   2   8
BRANCH   2  18
ATOM     18  O   UNL     1      34.944 -12.294 -23.692  0.00  0.00    -0.383 OA
ATOM     19  H   UNL     1      35.392 -12.860 -24.340  0.00  0.00    +0.211 HD
ENDBRANCH   2  18
BRANCH   1  20
ATOM     20  C   UNL     1      35.107 -16.969 -24.435  0.00  0.00    -0.077 C 
BRANCH  20  21
ATOM     21  C   UNL     1      34.656 -18.305 -23.839  0.00  0.00    -0.015 C 
BRANCH  21  22
ATOM     22  C   UNL     1      35.766 -18.986 -23.034  0.00  0.00    +0.067 C 
BRANCH  22  24
ATOM     23  O   UNL     1      36.044 -17.720 -20.998  0.00  0.00    -0.291 OA
ATOM     24  C   UNL     1      35.654 -18.754 -21.534  0.00  0.00    +0.173 C 
BRANCH  24  26
ATOM     25  F   UNL     1      33.306 -22.721 -18.382  0.00  0.00    -0.204 F 
ATOM     26  C   UNL     1      35.027 -19.814 -20.693  0.00  0.00    +0.035 C 
ATOM     27  C   UNL     1      35.845 -20.673 -19.993  0.00  0.00    +0.005 C 
ATOM     28  C   UNL     1      33.654 -19.894 -20.646  0.00  0.00    +0.005 C 
ATOM     29  C   UNL     1      35.259 -21.664 -19.206  0.00  0.00    +0.030 C 
ATOM     30  C   UNL     1      33.067 -20.885 -19.859  0.00  0.00    +0.030 C 
ATOM     31  C   UNL     1      33.870 -21.770 -19.138  0.00  0.00    +0.140 C 
ENDBRANCH  24  26
ENDBRANCH  22  24
ENDBRANCH  21  22
ENDBRANCH  20  21
ENDBRANCH   1  20
TORSDOF 8
ENDMDL
MODEL 4
REMARK VINA RESULT:     -11.4      1.856      2.543
REMARK  Name = 5567
REMARK  8 active torsions:
REMARK  status: ('A' for Active; 'I' for Inactive)
REMARK    1  A    between atoms: N_1  and  C_20
REMARK    2  A    between atoms: C_2  and  C_8
REMARK    3  A    between atoms: C_2  and  O_18
REMARK    4  A    between atoms: C_11  and  C_17
REMARK    5  A    between atoms: C_20  and  C_21
REMARK    6  A    between atoms: C_21  and  C_22
REMARK    7  A    between atoms: C_22  and  C_24
REMARK    8  A    between atoms: C_24  and  C_26
REMARK                            x       y       z     vdW  Elec       q    Type
REMARK                         _______ _______ _______ _____ _____    ______ ____
ROOT
ATOM      1  N   UNL     1      35.504 -20.047 -20.134  0.00  0.00    +0.387 N 
ATOM      2  C   UNL     1      34.138 -22.157 -18.550  0.00  0.00    +0.103 C 
ATOM      3  C   UNL     1      33.400 -20.999 -19.257  0.00  0.00    +0.008 C 
ATOM      4  C   UNL     1      35.608 -21.737 -18.320  0.00  0.00    +0.008 C 
ATOM      5  C   UNL     1      34.146 -20.474 -20.489  0.00  0.00    -0.075 C 
ATOM      6  C   UNL     1      36.278 -21.160 -19.574  0.00  0.00    -0.075 C 
ATOM      7  H   UNL     1      35.429 -19.324 -19.418  0.00  0.00    -0.080 HD
ENDROOT
BRANCH   2   8
ATOM      8  C   UNL     1      33.502 -22.624 -17.240  0.00  0.00    +0.002 C 
ATOM      9  C   UNL     1      34.305 -23.118 -16.213  0.00  0.00    +0.002 C 
ATOM     10  C   UNL     1      32.120 -22.552 -17.075  0.00  0.00    -0.002 C 
ATOM     11  C   UNL     1      33.725 -23.542 -15.018  0.00  0.00    +0.071 C 
ATOM     12  C   UNL     1      31.539 -22.977 -15.879  0.00  0.00    -0.000 C 
ATOM     13  C   UNL     1      32.342 -23.472 -14.851  0.00  0.00    +0.004 C 
BRANCH  11  17
ATOM     14  F   UNL     1      33.874 -24.528 -12.843  0.00  0.00    -0.166 F 
ATOM     15  F   UNL     1      35.368 -25.123 -14.298  0.00  0.00    -0.166 F 
ATOM     16  F   UNL     1      35.439 -23.135 -13.422  0.00  0.00    -0.166 F 
ATOM     17  C   UNL     1      34.583 -24.073 -13.919  0.00  0.00    +0.419 C 
ENDBRANCH  11  17
ENDBRANCH   2   8
BRANCH   2  18
ATOM     18  O   UNL     1      34.100 -23.298 -19.421  0.00  0.00    -0.383 OA
ATOM     19  H   UNL     1      34.587 -24.032 -19.015  0.00  0.00    +0.211 HD
ENDBRANCH   2  18
BRANCH   1  20
ATOM     20  C   UNL     1      36.186 -19.483 -21.298  0.00  0.00    -0.077 C 
BRANCH  20  21
ATOM     21  C   UNL     1      35.167 -18.873 -22.263  0.00  0.00    -0.015 C 
BRANCH  21  22
ATOM     22  C   UNL     1      35.792 -17.811 -23.172  0.00  0.00    +0.067 C 
BRANCH  22  24
ATOM     23  O   UNL     1      34.207 -17.840 -24.992  0.00  0.00    -0.291 OA
ATOM     24  C   UNL     1      34.798 -17.183 -24.140  0.00  0.00    +0.173 C 
BRANCH  24  26
ATOM     25  F   UNL     1      33.757 -11.713 -23.724  0.00  0.00    -0.204 F 
ATOM     26  C   UNL     1      34.521 -15.722 -24.029  0.00  0.00    +0.035 C 
ATOM     27  C   UNL     1      33.807 -15.107 -25.033  0.00  0.00    +0.005 C 
ATOM     28  C   UNL     1      34.988 -15.042 -22.927  0.00  0.00    +0.005 C 
ATOM     29  C   UNL     1      33.547 -13.740 -24.929  0.00  0.00    +0.030 C 
ATOM     30  C   UNL     1      34.728 -13.676 -22.823  0.00  0.00    +0.030 C 
ATOM     31  C   UNL     1      34.007 -13.024 -23.824  0.00  0.00    +0.140 C 
ENDBRANCH  24  26
ENDBRANCH  22  24
ENDBRANCH  21  22
ENDBRANCH  20  21
ENDBRANCH   1  20
TORSDOF 8
ENDMDL
MODEL 5
REMARK VINA RESULT:     -11.3      3.250     11.178
REMARK  Name = 5567
REMARK  8 active torsions:
REMARK  status: ('A' for Active; 'I' for Inactive)
REMARK    1  A    between atoms: N_1  and  C_20
REMARK    2  A    between atoms: C_2  and  C_8
REMARK    3  A    between atoms: C_2  and  O_18
REMARK    4  A    between atoms: C_11  and  C_17
REMARK    5  A    between atoms: C_20  and  C_21
REMARK    6  A    between atoms: C_21  and  C_22
REMARK    7  A    between atoms: C_22  and  C_24
REMARK    8  A    between atoms: C_24  and  C_26
REMARK                            x       y       z     vdW  Elec       q    Type
REMARK                         _______ _______ _______ _____ _____    ______ ____
ROOT
ATOM      1  N   UNL     1      34.660 -15.624 -24.541  0.00  0.00    +0.387 N 
ATOM      2  C   UNL     1      33.674 -12.926 -23.780  0.00  0.00    +0.103 C 
ATOM      3  C   UNL     1      33.529 -13.527 -25.196  0.00  0.00    +0.008 C 
ATOM      4  C   UNL     1      34.838 -13.642 -23.058  0.00  0.00    +0.008 C 
ATOM      5  C   UNL     1      33.474 -15.060 -25.195  0.00  0.00    -0.075 C 
ATOM      6  C   UNL     1      34.760 -15.172 -23.150  0.00  0.00    -0.075 C 
ATOM      7  H   UNL     1      35.483 -15.289 -25.041  0.00  0.00    -0.080 HD
ENDROOT
BRANCH   2   8
ATOM      8  C   UNL     1      33.869 -11.410 -23.740  0.00  0.00    +0.002 C 
ATOM      9  C   UNL     1      33.024 -10.620 -22.963  0.00  0.00    +0.002 C 
ATOM     10  C   UNL     1      34.895 -10.821 -24.479  0.00  0.00    -0.002 C 
ATOM     11  C   UNL     1      33.203  -9.236 -22.925  0.00  0.00    +0.071 C 
ATOM     12  C   UNL     1      35.074  -9.438 -24.441  0.00  0.00    -0.000 C 
ATOM     13  C   UNL     1      34.227  -8.646 -23.664  0.00  0.00    +0.004 C 
BRANCH  11  17
ATOM     14  F   UNL     1      31.546  -9.103 -21.205  0.00  0.00    -0.166 F 
ATOM     15  F   UNL     1      32.955  -7.459 -21.344  0.00  0.00    -0.166 F 
ATOM     16  F   UNL     1      31.401  -7.686 -22.848  0.00  0.00    -0.166 F 
ATOM     17  C   UNL     1      32.297  -8.390 -22.097  0.00  0.00    +0.419 C 
ENDBRANCH  11  17
ENDBRANCH   2   8
BRANCH   2  18
ATOM     18  O   UNL     1      32.450 -13.172 -23.072  0.00  0.00    -0.383 OA
ATOM     19  H   UNL     1      31.875 -13.742 -23.608  0.00  0.00    +0.211 HD
ENDBRANCH   2  18
BRANCH   1  20
ATOM     20  C   UNL     1      34.635 -17.085 -24.606  0.00  0.00    -0.077 C 
BRANCH  20  21
ATOM     21  C   UNL     1      35.680 -17.674 -23.656  0.00  0.00    -0.015 C 
BRANCH  21  22
ATOM     22  C   UNL     1      35.147 -18.885 -22.885  0.00  0.00    +0.067 C 
BRANCH  22  24
ATOM     23  O   UNL     1      35.828 -17.781 -20.849  0.00  0.00    -0.291 OA
ATOM     24  C   UNL     1      35.355 -18.782 -21.380  0.00  0.00    +0.173 C 
BRANCH  24  26
ATOM     25  F   UNL     1      33.829 -23.093 -18.176  0.00  0.00    -0.204 F 
ATOM     26  C   UNL     1      34.948 -19.932 -20.524  0.00  0.00    +0.035 C 
ATOM     27  C   UNL     1      33.605 -20.195 -20.365  0.00  0.00    +0.005 C 
ATOM     28  C   UNL     1      35.928 -20.690 -19.925  0.00  0.00    +0.005 C 
ATOM     29  C   UNL     1      33.224 -21.272 -19.564  0.00  0.00    +0.030 C 
ATOM     30  C   UNL     1      35.547 -21.767 -19.125  0.00  0.00    +0.030 C 
ATOM     31  C   UNL     1      34.195 -22.059 -18.944  0.00  0.00    +0.140 C 
ENDBRANCH  24  26
ENDBRANCH  22  24
ENDBRANCH  21  22
ENDBRANCH  20  21
ENDBRANCH   1  20
TORSDOF 8
ENDMDL
MODEL 6
REMARK VINA RESULT:     -10.9      3.465      5.893
REMARK  Name = 5567
REMARK  8 active torsions:
REMARK  status: ('A' for Active; 'I' for Inactive)
REMARK    1  A    between atoms: N_1  and  C_20
REMARK    2  A    between atoms: C_2  and  C_8
REMARK    3  A    between atoms: C_2  and  O_18
REMARK    4  A    between atoms: C_11  and  C_17
REMARK    5  A    between atoms: C_20  and  C_21
REMARK    6  A    between atoms: C_21  and  C_22
REMARK    7  A    between atoms: C_22  and  C_24
REMARK    8  A    between atoms: C_24  and  C_26
REMARK                            x       y       z     vdW  Elec       q    Type
REMARK                         _______ _______ _______ _____ _____    ______ ____
ROOT
ATOM      1  N   UNL     1      34.387 -15.827 -23.514  0.00  0.00    +0.387 N 
ATOM      2  C   UNL     1      35.865 -17.994 -22.117  0.00  0.00    +0.103 C 
ATOM      3  C   UNL     1      34.945 -18.228 -23.336  0.00  0.00    +0.008 C 
ATOM      4  C   UNL     1      35.455 -16.668 -21.436  0.00  0.00    +0.008 C 
ATOM      5  C   UNL     1      34.847 -17.006 -24.257  0.00  0.00    -0.075 C 
ATOM      6  C   UNL     1      35.310 -15.500 -22.422  0.00  0.00    -0.075 C 
ATOM      7  H   UNL     1      33.480 -16.049 -23.104  0.00  0.00    -0.080 HD
ENDROOT
BRANCH   2   8
ATOM      8  C   UNL     1      35.889 -19.135 -21.098  0.00  0.00    +0.002 C 
ATOM      9  C   UNL     1      34.712 -19.812 -20.785  0.00  0.00    +0.002 C 
ATOM     10  C   UNL     1      37.089 -19.496 -20.488  0.00  0.00    -0.002 C 
ATOM     11  C   UNL     1      34.734 -20.854 -19.857  0.00  0.00    +0.071 C 
ATOM     12  C   UNL     1      37.110 -20.538 -19.560  0.00  0.00    -0.000 C 
ATOM     13  C   UNL     1      35.933 -21.216 -19.244  0.00  0.00    +0.004 C 
BRANCH  11  17
ATOM     14  F   UNL     1      33.601 -22.939 -19.549  0.00  0.00    -0.166 F 
ATOM     15  F   UNL     1      32.999 -21.293 -18.271  0.00  0.00    -0.166 F 
ATOM     16  F   UNL     1      32.455 -21.287 -20.376  0.00  0.00    -0.166 F 
ATOM     17  C   UNL     1      33.475 -21.578 -19.518  0.00  0.00    +0.419 C 
ENDBRANCH  11  17
ENDBRANCH   2   8
BRANCH   2  18
ATOM     18  O   UNL     1      37.213 -17.885 -22.600  0.00  0.00    -0.383 OA
ATOM     19  H   UNL     1      37.324 -17.038 -23.061  0.00  0.00    +0.211 HD
ENDBRANCH   2  18
BRANCH   1  20
ATOM     20  C   UNL     1      34.228 -14.684 -24.412  0.00  0.00    -0.077 C 
BRANCH  20  21
ATOM     21  C   UNL     1      34.195 -13.382 -23.609  0.00  0.00    -0.015 C 
BRANCH  21  22
ATOM     22  C   UNL     1      32.776 -13.005 -23.173  0.00  0.00    +0.067 C 
BRANCH  22  24
ATOM     23  O   UNL     1      32.741 -13.754 -20.878  0.00  0.00    -0.291 OA
ATOM     24  C   UNL     1      32.636 -12.819 -21.668  0.00  0.00    +0.173 C 
BRANCH  24  26
ATOM     25  F   UNL     1      31.684  -7.686 -19.689  0.00  0.00    -0.204 F 
ATOM     26  C   UNL     1      32.383 -11.449 -21.140  0.00  0.00    +0.035 C 
ATOM     27  C   UNL     1      32.348 -10.394 -22.025  0.00  0.00    +0.005 C 
ATOM     28  C   UNL     1      32.192 -11.287 -19.786  0.00  0.00    +0.005 C 
ATOM     29  C   UNL     1      32.111  -9.112 -21.530  0.00  0.00    +0.030 C 
ATOM     30  C   UNL     1      31.954 -10.005 -19.291  0.00  0.00    +0.030 C 
ATOM     31  C   UNL     1      31.913  -8.917 -20.164  0.00  0.00    +0.140 C 
ENDBRANCH  24  26
ENDBRANCH  22  24
ENDBRANCH  21  22
ENDBRANCH  20  21
ENDBRANCH   1  20
TORSDOF 8
ENDMDL
MODEL 7
REMARK VINA RESULT:     -10.8      3.931      6.069
REMARK  Name = 5567
REMARK  8 active torsions:
REMARK  status: ('A' for Active; 'I' for Inactive)
REMARK    1  A    between atoms: N_1  and  C_20
REMARK    2  A    between atoms: C_2  and  C_8
REMARK    3  A    between atoms: C_2  and  O_18
REMARK    4  A    between atoms: C_11  and  C_17
REMARK    5  A    between atoms: C_20  and  C_21
REMARK    6  A    between atoms: C_21  and  C_22
REMARK    7  A    between atoms: C_22  and  C_24
REMARK    8  A    between atoms: C_24  and  C_26
REMARK                            x       y       z     vdW  Elec       q    Type
REMARK                         _______ _______ _______ _____ _____    ______ ____
ROOT
ATOM      1  N   UNL     1      34.509 -16.049 -23.743  0.00  0.00    +0.387 N 
ATOM      2  C   UNL     1      35.298 -18.398 -22.104  0.00  0.00    +0.103 C 
ATOM      3  C   UNL     1      34.497 -18.499 -23.421  0.00  0.00    +0.008 C 
ATOM      4  C   UNL     1      35.115 -16.977 -21.523  0.00  0.00    +0.008 C 
ATOM      5  C   UNL     1      34.779 -17.341 -24.386  0.00  0.00    -0.075 C 
ATOM      6  C   UNL     1      35.347 -15.866 -22.555  0.00  0.00    -0.075 C 
ATOM      7  H   UNL     1      33.533 -16.046 -23.445  0.00  0.00    -0.080 HD
ENDROOT
BRANCH   2   8
ATOM      8  C   UNL     1      34.951 -19.455 -21.055  0.00  0.00    +0.002 C 
ATOM      9  C   UNL     1      35.943 -19.950 -20.211  0.00  0.00    +0.002 C 
ATOM     10  C   UNL     1      33.641 -19.920 -20.943  0.00  0.00    -0.002 C 
ATOM     11  C   UNL     1      35.627 -20.914 -19.252  0.00  0.00    +0.071 C 
ATOM     12  C   UNL     1      33.325 -20.883 -19.985  0.00  0.00    -0.000 C 
ATOM     13  C   UNL     1      34.317 -21.380 -19.140  0.00  0.00    +0.004 C 
BRANCH  11  17
ATOM     14  F   UNL     1      37.616 -22.216 -18.993  0.00  0.00    -0.166 F 
ATOM     15  F   UNL     1      37.409 -20.472 -17.720  0.00  0.00    -0.166 F 
ATOM     16  F   UNL     1      36.186 -22.233 -17.355  0.00  0.00    -0.166 F 
ATOM     17  C   UNL     1      36.688 -21.446 -18.350  0.00  0.00    +0.419 C 
ENDBRANCH  11  17
ENDBRANCH   2   8
BRANCH   2  18
ATOM     18  O   UNL     1      36.683 -18.611 -22.416  0.00  0.00    -0.383 OA
ATOM     19  H   UNL     1      36.838 -19.556 -22.573  0.00  0.00    +0.211 HD
ENDBRANCH   2  18
BRANCH   1  20
ATOM     20  C   UNL     1      34.712 -14.953 -24.690  0.00  0.00    -0.077 C 
BRANCH  20  21
ATOM     21  C   UNL     1      33.658 -13.865 -24.473  0.00  0.00    -0.015 C 
BRANCH  21  22
ATOM     22  C   UNL     1      34.252 -12.597 -23.853  0.00  0.00    +0.067 C 
BRANCH  22  24
ATOM     23  O   UNL     1      34.155 -11.521 -26.011  0.00  0.00    -0.291 OA
ATOM     24  C   UNL     1      34.231 -11.399 -24.791  0.00  0.00    +0.173 C 
BRANCH  24  26
ATOM     25  F   UNL     1      34.424  -6.272 -22.587  0.00  0.00    -0.204 F 
ATOM     26  C   UNL     1      34.283 -10.031 -24.202  0.00  0.00    +0.035 C 
ATOM     27  C   UNL     1      35.392  -9.249 -24.441  0.00  0.00    +0.005 C 
ATOM     28  C   UNL     1      33.220  -9.597 -23.442  0.00  0.00    +0.005 C 
ATOM     29  C   UNL     1      35.440  -7.968 -23.890  0.00  0.00    +0.030 C 
ATOM     30  C   UNL     1      33.268  -8.317 -22.891  0.00  0.00    +0.030 C 
ATOM     31  C   UNL     1      34.378  -7.502 -23.116  0.00  0.00    +0.140 C 
ENDBRANCH  24  26
ENDBRANCH  22  24
ENDBRANCH  21  22
ENDBRANCH  20  21
ENDBRANCH   1  20
TORSDOF 8
ENDMDL
MODEL 8
REMARK VINA RESULT:     -10.8      3.330     10.501
REMARK  Name = 5567
REMARK  8 active torsions:
REMARK  status: ('A' for Active; 'I' for Inactive)
REMARK    1  A    between atoms: N_1  and  C_20
REMARK    2  A    between atoms: C_2  and  C_8
REMARK    3  A    between atoms: C_2  and  O_18
REMARK    4  A    between atoms: C_11  and  C_17
REMARK    5  A    between atoms: C_20  and  C_21
REMARK    6  A    between atoms: C_21  and  C_22
REMARK    7  A    between atoms: C_22  and  C_24
REMARK    8  A    between atoms: C_24  and  C_26
REMARK                            x       y       z     vdW  Elec       q    Type
REMARK                         _______ _______ _______ _____ _____    ______ ____
ROOT
ATOM      1  N   UNL     1      34.086 -15.615 -24.105  0.00  0.00    +0.387 N 
ATOM      2  C   UNL     1      34.049 -12.660 -23.799  0.00  0.00    +0.103 C 
ATOM      3  C   UNL     1      34.600 -13.629 -22.729  0.00  0.00    +0.008 C 
ATOM      4  C   UNL     1      33.064 -13.435 -24.705  0.00  0.00    +0.008 C 
ATOM      5  C   UNL     1      35.128 -14.941 -23.321  0.00  0.00    -0.075 C 
ATOM      6  C   UNL     1      33.628 -14.770 -25.211  0.00  0.00    -0.075 C 
ATOM      7  H   UNL     1      33.292 -15.787 -23.488  0.00  0.00    -0.080 HD
ENDROOT
BRANCH   2   8
ATOM      8  C   UNL     1      33.389 -11.396 -23.247  0.00  0.00    +0.002 C 
ATOM      9  C   UNL     1      32.701 -11.443 -22.035  0.00  0.00    +0.002 C 
ATOM     10  C   UNL     1      33.479 -10.199 -23.955  0.00  0.00    -0.002 C 
ATOM     11  C   UNL     1      32.100 -10.289 -21.530  0.00  0.00    +0.071 C 
ATOM     12  C   UNL     1      32.878  -9.045 -23.450  0.00  0.00    -0.000 C 
ATOM     13  C   UNL     1      32.188  -9.091 -22.238  0.00  0.00    +0.004 C 
BRANCH  11  17
ATOM     14  F   UNL     1      30.057 -10.723 -20.365  0.00  0.00    -0.166 F 
ATOM     15  F   UNL     1      31.901 -11.208 -19.331  0.00  0.00    -0.166 F 
ATOM     16  F   UNL     1      31.326  -9.129 -19.605  0.00  0.00    -0.166 F 
ATOM     17  C   UNL     1      31.361 -10.338 -20.236  0.00  0.00    +0.419 C 
ENDBRANCH  11  17
ENDBRANCH   2   8
BRANCH   2  18
ATOM     18  O   UNL     1      35.158 -12.199 -24.586  0.00  0.00    -0.383 OA
ATOM     19  H   UNL     1      35.954 -12.702 -24.350  0.00  0.00    +0.211 HD
ENDBRANCH   2  18
BRANCH   1  20
ATOM     20  C   UNL     1      34.574 -16.899 -24.607  0.00  0.00    -0.077 C 
BRANCH  20  21
ATOM     21  C   UNL     1      35.642 -17.464 -23.669  0.00  0.00    -0.015 C 
BRANCH  21  22
ATOM     22  C   UNL     1      35.171 -18.729 -22.946  0.00  0.00    +0.067 C 
BRANCH  22  24
ATOM     23  O   UNL     1      35.661 -17.616 -20.861  0.00  0.00    -0.291 OA
ATOM     24  C   UNL     1      35.284 -18.636 -21.431  0.00  0.00    +0.173 C 
BRANCH  24  26
ATOM     25  F   UNL     1      33.845 -23.076 -18.366  0.00  0.00    -0.204 F 
ATOM     26  C   UNL     1      34.900 -19.822 -20.614  0.00  0.00    +0.035 C 
ATOM     27  C   UNL     1      35.896 -20.622 -20.099  0.00  0.00    +0.005 C 
ATOM     28  C   UNL     1      33.563 -20.074 -20.402  0.00  0.00    +0.005 C 
ATOM     29  C   UNL     1      35.537 -21.731 -19.333  0.00  0.00    +0.030 C 
ATOM     30  C   UNL     1      33.204 -21.184 -19.636  0.00  0.00    +0.030 C 
ATOM     31  C   UNL     1      34.191 -22.012 -19.101  0.00  0.00    +0.140 C 
ENDBRANCH  24  26
ENDBRANCH  22  24
ENDBRANCH  21  22
ENDBRANCH  20  21
ENDBRANCH   1  20
TORSDOF 8
ENDMDL
MODEL 9
REMARK VINA RESULT:     -10.7      3.641      9.762
REMARK  Name = 5567
REMARK  8 active torsions:
REMARK  status: ('A' for Active; 'I' for Inactive)
REMARK    1  A    between atoms: N_1  and  C_20
REMARK    2  A    between atoms: C_2  and  C_8
REMARK    3  A    between atoms: C_2  and  O_18
REMARK    4  A    between atoms: C_11  and  C_17
REMARK    5  A    between atoms: C_20  and  C_21
REMARK    6  A    between atoms: C_21  and  C_22
REMARK    7  A    between atoms: C_22  and  C_24
REMARK    8  A    between atoms: C_24  and  C_26
REMARK                            x       y       z     vdW  Elec       q    Type
REMARK                         _______ _______ _______ _____ _____    ______ ____
ROOT
ATOM      1  N   UNL     1      34.455 -23.121 -15.561  0.00  0.00    +0.387 N 
ATOM      2  C   UNL     1      34.407 -22.283 -18.411  0.00  0.00    +0.103 C 
ATOM      3  C   UNL     1      35.633 -22.118 -17.486  0.00  0.00    +0.008 C 
ATOM      4  C   UNL     1      33.138 -22.388 -17.533  0.00  0.00    +0.008 C 
ATOM      5  C   UNL     1      35.683 -23.160 -16.362  0.00  0.00    -0.075 C 
ATOM      6  C   UNL     1      33.276 -23.399 -16.387  0.00  0.00    -0.075 C 
ATOM      7  H   UNL     1      34.358 -22.179 -15.181  0.00  0.00    -0.080 HD
ENDROOT
BRANCH   2   8
ATOM      8  C   UNL     1      34.241 -21.186 -19.464  0.00  0.00    +0.002 C 
ATOM      9  C   UNL     1      35.361 -20.515 -19.952  0.00  0.00    +0.002 C 
ATOM     10  C   UNL     1      32.970 -20.863 -19.936  0.00  0.00    -0.002 C 
ATOM     11  C   UNL     1      35.209 -19.515 -20.914  0.00  0.00    +0.071 C 
ATOM     12  C   UNL     1      32.819 -19.864 -20.898  0.00  0.00    -0.000 C 
ATOM     13  C   UNL     1      33.938 -19.190 -21.387  0.00  0.00    +0.004 C 
BRANCH  11  17
ATOM     14  F   UNL     1      36.533 -18.855 -22.794  0.00  0.00    -0.166 F 
ATOM     15  F   UNL     1      36.415 -17.462 -21.135  0.00  0.00    -0.166 F 
ATOM     16  F   UNL     1      37.576 -19.290 -20.937  0.00  0.00    -0.166 F 
ATOM     17  C   UNL     1      36.406 -18.794 -21.435  0.00  0.00    +0.419 C 
ENDBRANCH  11  17
ENDBRANCH   2   8
BRANCH   2  18
ATOM     18  O   UNL     1      34.577 -23.501 -19.151  0.00  0.00    -0.383 OA
ATOM     19  H   UNL     1      34.918 -23.297 -20.036  0.00  0.00    +0.211 HD
ENDBRANCH   2  18
BRANCH   1  20
ATOM     20  C   UNL     1      34.538 -24.067 -14.449  0.00  0.00    -0.077 C 
BRANCH  20  21
ATOM     21  C   UNL     1      33.454 -23.762 -13.412  0.00  0.00    -0.015 C 
BRANCH  21  22
ATOM     22  C   UNL     1      32.352 -24.825 -13.393  0.00  0.00    +0.067 C 
BRANCH  22  24
ATOM     23  O   UNL     1      30.510 -24.044 -12.044  0.00  0.00    -0.291 OA
ATOM     24  C   UNL     1      30.961 -24.250 -13.167  0.00  0.00    +0.173 C 
BRANCH  24  26
ATOM     25  F   UNL     1      27.852 -22.962 -17.623  0.00  0.00    -0.204 F 
ATOM     26  C   UNL     1      30.130 -23.906 -14.356  0.00  0.00    +0.035 C 
ATOM     27  C   UNL     1      29.992 -22.581 -14.706  0.00  0.00    +0.005 C 
ATOM     28  C   UNL     1      29.532 -24.925 -15.062  0.00  0.00    +0.005 C 
ATOM     29  C   UNL     1      29.215 -22.259 -15.819  0.00  0.00    +0.030 C 
ATOM     30  C   UNL     1      28.756 -24.604 -16.175  0.00  0.00    +0.030 C 
ATOM     31  C   UNL     1      28.597 -23.270 -16.554  0.00  0.00    +0.140 C 
ENDBRANCH  24  26
ENDBRANCH  22  24
ENDBRANCH  21  22
ENDBRANCH  20  21
ENDBRANCH   1  20
TORSDOF 8
ENDMDL
