MODEL 1
REMARK VINA RESULT:     -11.9      0.000      0.000
REMARK  Name = 52920501
REMARK  9 active torsions:
REMARK  status: ('A' for Active; 'I' for Inactive)
REMARK    1  A    between atoms: N_1  and  C_12
REMARK    2  A    between atoms: C_5  and  O_27
REMARK    3  A    between atoms: C_9  and  C_15
REMARK    4  A    between atoms: C_15  and  S_16
REMARK    5  A    between atoms: S_16  and  N_19
REMARK    6  A    between atoms: N_19  and  C_21
REMARK    7  A    between atoms: C_21  and  C_22
REMARK    8  A    between atoms: C_22  and  N_23
REMARK    9  A    between atoms: O_27  and  C_35
REMARK                            x       y       z     vdW  Elec       q    Type
REMARK                         _______ _______ _______ _____ _____    ______ ____
ROOT
ATOM      1  N   UNL     1      34.321 -23.598 -13.251  0.00  0.00    -0.247 N 
ATOM      2  N   UNL     1      34.484 -23.404 -15.583  0.00  0.00    -0.300 NA
ATOM      3  N   UNL     1      32.378 -23.077 -14.459  0.00  0.00    -0.170 NA
ATOM      4  C   UNL     1      33.697 -23.347 -14.492  0.00  0.00    +0.152 C 
ATOM      5  C   UNL     1      33.855 -23.160 -16.752  0.00  0.00    +0.295 C 
ATOM      6  C   UNL     1      32.510 -22.870 -16.853  0.00  0.00    +0.094 C 
ATOM      7  C   UNL     1      31.814 -22.842 -15.662  0.00  0.00    +0.118 C 
ATOM      8  H   UNL     1      33.708 -23.546 -12.481  0.00  0.00    +0.165 HD
ENDROOT
BRANCH   1  12
ATOM      9  C   UNL     1      37.713 -25.080 -13.341  0.00  0.00    +0.004 C 
ATOM     10  C   UNL     1      36.398 -24.774 -13.692  0.00  0.00    +0.013 C 
ATOM     11  C   UNL     1      38.277 -24.520 -12.195  0.00  0.00    -0.002 C 
ATOM     12  C   UNL     1      35.647 -23.908 -12.898  0.00  0.00    +0.057 C 
ATOM     13  C   UNL     1      37.527 -23.653 -11.400  0.00  0.00    +0.001 C 
ATOM     14  C   UNL     1      36.212 -23.348 -11.751  0.00  0.00    +0.015 C 
BRANCH   9  15
ATOM     15  C   UNL     1      38.515 -26.006 -14.192  0.00  0.00    +0.195 C 
BRANCH  15  16
ATOM     16  S   UNL     1      39.894 -25.105 -14.822  0.00  0.00    +0.045 S 
ATOM     17  O   UNL     1      39.413 -23.844 -15.362  0.00  0.00    -0.157 OA
ATOM     18  O   UNL     1      40.937 -25.117 -13.809  0.00  0.00    -0.157 OA
BRANCH  16  19
ATOM     19  N   UNL     1      40.389 -26.121 -16.106  0.00  0.00    -0.185 NA
ATOM     20  H   UNL     1      41.405 -26.048 -16.171  0.00  0.00    +0.148 HD
BRANCH  19  21
ATOM     21  C   UNL     1      40.064 -27.558 -16.047  0.00  0.00    +0.068 C 
BRANCH  21  22
ATOM     22  C   UNL     1      41.331 -28.348 -15.757  0.00  0.00    -0.058 C 
BRANCH  22  23
ATOM     23  N   UNL     1      41.325 -29.603 -16.499  0.00  0.00    +0.385 N 
ATOM     24  C   UNL     1      40.240 -29.615 -17.482  0.00  0.00    -0.101 C 
ATOM     25  C   UNL     1      42.612 -29.819 -17.161  0.00  0.00    -0.101 C 
ATOM     26  H   UNL     1      41.170 -30.363 -15.836  0.00  0.00    -0.080 HD
ENDBRANCH  22  23
ENDBRANCH  21  22
ENDBRANCH  19  21
ENDBRANCH  16  19
ENDBRANCH  15  16
ENDBRANCH   9  15
ENDBRANCH   1  12
BRANCH   5  27
ATOM     27  O   UNL     1      34.623 -23.206 -17.903  0.00  0.00    -0.427 OA
BRANCH  27  35
ATOM     28  N   UNL     1      34.569 -18.934 -21.339  0.00  0.00    -0.316 N 
ATOM     29  C   UNL     1      35.638 -20.464 -20.116  0.00  0.00    +0.017 C 
ATOM     30  C   UNL     1      34.375 -19.995 -20.485  0.00  0.00    +0.048 C 
ATOM     31  C   UNL     1      35.907 -18.716 -21.525  0.00  0.00    +0.026 C 
ATOM     32  C   UNL     1      36.595 -19.647 -20.780  0.00  0.00    +0.012 C 
ATOM     33  C   UNL     1      35.725 -21.559 -19.235  0.00  0.00    +0.039 C 
ATOM     34  C   UNL     1      33.190 -20.571 -20.013  0.00  0.00    +0.018 C 
ATOM     35  C   UNL     1      34.548 -22.145 -18.756  0.00  0.00    +0.148 C 
ATOM     36  C   UNL     1      33.301 -21.657 -19.140  0.00  0.00    +0.039 C 
ATOM     37  C   UNL     1      36.394 -17.632 -22.398  0.00  0.00    +0.047 C 
ATOM     38  H   UNL     1      33.849 -18.408 -21.758  0.00  0.00    +0.152 HD
ENDBRANCH  27  35
ENDBRANCH   5  27
TORSDOF 9
ENDMDL
MODEL 2
REMARK VINA RESULT:     -11.6      3.220      9.602
REMARK  Name = 52920501
REMARK  9 active torsions:
REMARK  status: ('A' for Active; 'I' for Inactive)
REMARK    1  A    between atoms: N_1  and  C_12
REMARK    2  A    between atoms: C_5  and  O_27
REMARK    3  A    between atoms: C_9  and  C_15
REMARK    4  A    between atoms: C_15  and  S_16
REMARK    5  A    between atoms: S_16  and  N_19
REMARK    6  A    between atoms: N_19  and  C_21
REMARK    7  A    between atoms: C_21  and  C_22
REMARK    8  A    between atoms: C_22  and  N_23
REMARK    9  A    between atoms: O_27  and  C_35
REMARK                            x       y       z     vdW  Elec       q    Type
REMARK                         _______ _______ _______ _____ _____    ______ ____
ROOT
ATOM      1  N   UNL     1      32.798 -22.138 -18.376  0.00  0.00    -0.247 N 
ATOM      2  N   UNL     1      33.384 -22.644 -16.161  0.00  0.00    -0.300 NA
ATOM      3  N   UNL     1      31.156 -23.066 -16.980  0.00  0.00    -0.170 NA
ATOM      4  C   UNL     1      32.428 -22.641 -17.110  0.00  0.00    +0.152 C 
ATOM      5  C   UNL     1      32.996 -23.131 -14.964  0.00  0.00    +0.295 C 
ATOM      6  C   UNL     1      31.724 -23.597 -14.701  0.00  0.00    +0.094 C 
ATOM      7  C   UNL     1      30.837 -23.539 -15.757  0.00  0.00    +0.118 C 
ATOM      8  H   UNL     1      32.069 -22.155 -19.038  0.00  0.00    +0.165 HD
ENDROOT
BRANCH   1  12
ATOM      9  C   UNL     1      35.202 -20.335 -20.539  0.00  0.00    +0.004 C 
ATOM     10  C   UNL     1      34.005 -20.850 -20.042  0.00  0.00    +0.013 C 
ATOM     11  C   UNL     1      36.401 -20.590 -19.872  0.00  0.00    -0.002 C 
ATOM     12  C   UNL     1      34.005 -21.619 -18.878  0.00  0.00    +0.057 C 
ATOM     13  C   UNL     1      36.402 -21.359 -18.707  0.00  0.00    +0.001 C 
ATOM     14  C   UNL     1      35.204 -21.873 -18.211  0.00  0.00    +0.015 C 
BRANCH   9  15
ATOM     15  C   UNL     1      35.201 -19.513 -21.783  0.00  0.00    +0.195 C 
BRANCH  15  16
ATOM     16  S   UNL     1      36.305 -18.158 -21.538  0.00  0.00    +0.045 S 
ATOM     17  O   UNL     1      35.670 -17.202 -20.646  0.00  0.00    -0.157 OA
ATOM     18  O   UNL     1      37.615 -18.701 -21.216  0.00  0.00    -0.157 OA
BRANCH  16  19
ATOM     19  N   UNL     1      36.375 -17.504 -23.117  0.00  0.00    -0.185 NA
ATOM     20  H   UNL     1      36.844 -18.193 -23.706  0.00  0.00    +0.148 HD
BRANCH  19  21
ATOM     21  C   UNL     1      35.118 -17.142 -23.797  0.00  0.00    +0.068 C 
BRANCH  21  22
ATOM     22  C   UNL     1      35.205 -15.702 -24.280  0.00  0.00    -0.058 C 
BRANCH  22  23
ATOM     23  N   UNL     1      34.136 -14.905 -23.690  0.00  0.00    +0.385 N 
ATOM     24  C   UNL     1      34.609 -14.214 -22.489  0.00  0.00    -0.101 C 
ATOM     25  C   UNL     1      33.617 -13.939 -24.660  0.00  0.00    -0.101 C 
ATOM     26  H   UNL     1      33.379 -15.536 -23.424  0.00  0.00    -0.080 HD
ENDBRANCH  22  23
ENDBRANCH  21  22
ENDBRANCH  19  21
ENDBRANCH  16  19
ENDBRANCH  15  16
ENDBRANCH   9  15
ENDBRANCH   1  12
BRANCH   5  27
ATOM     27  O   UNL     1      33.944 -23.155 -13.956  0.00  0.00    -0.427 OA
BRANCH  27  35
ATOM     28  N   UNL     1      39.040 -24.676 -15.291  0.00  0.00    -0.316 N 
ATOM     29  C   UNL     1      36.971 -25.127 -14.588  0.00  0.00    +0.017 C 
ATOM     30  C   UNL     1      37.823 -24.101 -15.004  0.00  0.00    +0.048 C 
ATOM     31  C   UNL     1      38.988 -26.026 -15.071  0.00  0.00    +0.026 C 
ATOM     32  C   UNL     1      37.720 -26.336 -14.635  0.00  0.00    +0.012 C 
ATOM     33  C   UNL     1      35.647 -24.806 -14.229  0.00  0.00    +0.039 C 
ATOM     34  C   UNL     1      37.414 -22.765 -15.081  0.00  0.00    +0.018 C 
ATOM     35  C   UNL     1      35.224 -23.474 -14.301  0.00  0.00    +0.148 C 
ATOM     36  C   UNL     1      36.096 -22.471 -14.720  0.00  0.00    +0.039 C 
ATOM     37  C   UNL     1      40.164 -26.886 -15.301  0.00  0.00    +0.047 C 
ATOM     38  H   UNL     1      39.833 -24.188 -15.610  0.00  0.00    +0.152 HD
ENDBRANCH  27  35
ENDBRANCH   5  27
TORSDOF 9
ENDMDL
MODEL 3
REMARK VINA RESULT:     -11.2      3.712      5.978
REMARK  Name = 52920501
REMARK  9 active torsions:
REMARK  status: ('A' for Active; 'I' for Inactive)
REMARK    1  A    between atoms: N_1  and  C_12
REMARK    2  A    between atoms: C_5  and  O_27
REMARK    3  A    between atoms: C_9  and  C_15
REMARK    4  A    between atoms: C_15  and  S_16
REMARK    5  A    between atoms: S_16  and  N_19
REMARK    6  A    between atoms: N_19  and  C_21
REMARK    7  A    between atoms: C_21  and  C_22
REMARK    8  A    between atoms: C_22  and  N_23
REMARK    9  A    between atoms: O_27  and  C_35
REMARK                            x       y       z     vdW  Elec       q    Type
REMARK                         _______ _______ _______ _____ _____    ______ ____
ROOT
ATOM      1  N   UNL     1      34.391 -22.453 -17.424  0.00  0.00    -0.247 N 
ATOM      2  N   UNL     1      35.251 -20.990 -19.045  0.00  0.00    -0.300 NA
ATOM      3  N   UNL     1      32.919 -21.601 -19.042  0.00  0.00    -0.170 NA
ATOM      4  C   UNL     1      34.177 -21.641 -18.560  0.00  0.00    +0.152 C 
ATOM      5  C   UNL     1      35.010 -20.225 -20.130  0.00  0.00    +0.295 C 
ATOM      6  C   UNL     1      33.769 -20.099 -20.720  0.00  0.00    +0.094 C 
ATOM      7  C   UNL     1      32.751 -20.817 -20.127  0.00  0.00    +0.118 C 
ATOM      8  H   UNL     1      33.579 -22.908 -17.104  0.00  0.00    +0.165 HD
ENDROOT
BRANCH   1  12
ATOM      9  C   UNL     1      36.646 -24.036 -14.952  0.00  0.00    +0.004 C 
ATOM     10  C   UNL     1      35.509 -23.756 -15.709  0.00  0.00    +0.013 C 
ATOM     11  C   UNL     1      37.813 -23.295 -15.145  0.00  0.00    -0.002 C 
ATOM     12  C   UNL     1      35.538 -22.736 -16.660  0.00  0.00    +0.057 C 
ATOM     13  C   UNL     1      37.842 -22.275 -16.096  0.00  0.00    +0.001 C 
ATOM     14  C   UNL     1      36.704 -21.995 -16.853  0.00  0.00    +0.015 C 
BRANCH   9  15
ATOM     15  C   UNL     1      36.615 -25.127 -13.936  0.00  0.00    +0.195 C 
BRANCH  15  16
ATOM     16  S   UNL     1      36.193 -24.408 -12.381  0.00  0.00    +0.045 S 
ATOM     17  O   UNL     1      36.912 -25.118 -11.335  0.00  0.00    -0.157 OA
ATOM     18  O   UNL     1      36.322 -22.965 -12.506  0.00  0.00    -0.157 OA
BRANCH  16  19
ATOM     19  N   UNL     1      34.528 -24.787 -12.286  0.00  0.00    -0.185 NA
ATOM     20  H   UNL     1      34.275 -24.778 -11.298  0.00  0.00    +0.148 HD
BRANCH  19  21
ATOM     21  C   UNL     1      33.559 -23.926 -12.987  0.00  0.00    +0.068 C 
BRANCH  21  22
ATOM     22  C   UNL     1      32.526 -24.798 -13.686  0.00  0.00    -0.058 C 
BRANCH  22  23
ATOM     23  N   UNL     1      31.877 -24.053 -14.757  0.00  0.00    +0.385 N 
ATOM     24  C   UNL     1      30.465 -24.426 -14.863  0.00  0.00    -0.101 C 
ATOM     25  C   UNL     1      32.005 -22.611 -14.535  0.00  0.00    -0.101 C 
ATOM     26  H   UNL     1      32.341 -24.289 -15.635  0.00  0.00    -0.080 HD
ENDBRANCH  22  23
ENDBRANCH  21  22
ENDBRANCH  19  21
ENDBRANCH  16  19
ENDBRANCH  15  16
ENDBRANCH   9  15
ENDBRANCH   1  12
BRANCH   5  27
ATOM     27  O   UNL     1      36.084 -19.535 -20.666  0.00  0.00    -0.427 OA
BRANCH  27  35
ATOM     28  N   UNL     1      34.963 -15.322 -23.990  0.00  0.00    -0.316 N 
ATOM     29  C   UNL     1      35.237 -16.211 -21.963  0.00  0.00    +0.017 C 
ATOM     30  C   UNL     1      35.266 -16.491 -23.331  0.00  0.00    +0.048 C 
ATOM     31  C   UNL     1      34.743 -14.315 -23.090  0.00  0.00    +0.026 C 
ATOM     32  C   UNL     1      34.905 -14.834 -21.826  0.00  0.00    +0.012 C 
ATOM     33  C   UNL     1      35.516 -17.249 -21.051  0.00  0.00    +0.039 C 
ATOM     34  C   UNL     1      35.562 -17.763 -23.835  0.00  0.00    +0.018 C 
ATOM     35  C   UNL     1      35.813 -18.526 -21.541  0.00  0.00    +0.148 C 
ATOM     36  C   UNL     1      35.835 -18.777 -22.912  0.00  0.00    +0.039 C 
ATOM     37  C   UNL     1      34.397 -12.952 -23.534  0.00  0.00    +0.047 C 
ATOM     38  H   UNL     1      34.911 -15.224 -24.969  0.00  0.00    +0.152 HD
ENDBRANCH  27  35
ENDBRANCH   5  27
TORSDOF 9
ENDMDL
MODEL 4
REMARK VINA RESULT:     -11.1      6.950     14.269
REMARK  Name = 52920501
REMARK  9 active torsions:
REMARK  status: ('A' for Active; 'I' for Inactive)
REMARK    1  A    between atoms: N_1  and  C_12
REMARK    2  A    between atoms: C_5  and  O_27
REMARK    3  A    between atoms: C_9  and  C_15
REMARK    4  A    between atoms: C_15  and  S_16
REMARK    5  A    between atoms: S_16  and  N_19
REMARK    6  A    between atoms: N_19  and  C_21
REMARK    7  A    between atoms: C_21  and  C_22
REMARK    8  A    between atoms: C_22  and  N_23
REMARK    9  A    between atoms: O_27  and  C_35
REMARK                            x       y       z     vdW  Elec       q    Type
REMARK                         _______ _______ _______ _____ _____    ______ ____
ROOT
ATOM      1  N   UNL     1      33.216 -15.141 -25.172  0.00  0.00    -0.247 N 
ATOM      2  N   UNL     1      34.617 -16.378 -23.754  0.00  0.00    -0.300 NA
ATOM      3  N   UNL     1      33.202 -17.479 -25.365  0.00  0.00    -0.170 NA
ATOM      4  C   UNL     1      33.702 -16.394 -24.742  0.00  0.00    +0.152 C 
ATOM      5  C   UNL     1      35.059 -17.593 -23.368  0.00  0.00    +0.295 C 
ATOM      6  C   UNL     1      34.627 -18.779 -23.924  0.00  0.00    +0.094 C 
ATOM      7  C   UNL     1      33.688 -18.660 -24.929  0.00  0.00    +0.118 C 
ATOM      8  H   UNL     1      32.550 -15.200 -25.896  0.00  0.00    +0.165 HD
ENDROOT
BRANCH   1  12
ATOM      9  C   UNL     1      33.764 -12.180 -23.018  0.00  0.00    +0.004 C 
ATOM     10  C   UNL     1      33.485 -13.487 -23.416  0.00  0.00    +0.013 C 
ATOM     11  C   UNL     1      34.053 -11.206 -23.975  0.00  0.00    -0.002 C 
ATOM     12  C   UNL     1      33.497 -13.822 -24.770  0.00  0.00    +0.057 C 
ATOM     13  C   UNL     1      34.065 -11.541 -25.329  0.00  0.00    +0.001 C 
ATOM     14  C   UNL     1      33.786 -12.848 -25.726  0.00  0.00    +0.015 C 
BRANCH   9  15
ATOM     15  C   UNL     1      33.752 -11.823 -21.570  0.00  0.00    +0.195 C 
BRANCH  15  16
ATOM     16  S   UNL     1      32.099 -11.999 -20.982  0.00  0.00    +0.045 S 
ATOM     17  O   UNL     1      31.201 -11.366 -21.933  0.00  0.00    -0.157 OA
ATOM     18  O   UNL     1      31.903 -13.390 -20.606  0.00  0.00    -0.157 OA
BRANCH  16  19
ATOM     19  N   UNL     1      32.160 -11.066 -19.549  0.00  0.00    -0.185 NA
ATOM     20  H   UNL     1      33.144 -10.882 -19.354  0.00  0.00    +0.148 HD
BRANCH  19  21
ATOM     21  C   UNL     1      31.464  -9.767 -19.512  0.00  0.00    +0.068 C 
BRANCH  21  22
ATOM     22  C   UNL     1      32.457  -8.656 -19.816  0.00  0.00    -0.058 C 
BRANCH  22  23
ATOM     23  N   UNL     1      32.041  -7.915 -21.001  0.00  0.00    +0.385 N 
ATOM     24  C   UNL     1      32.023  -6.476 -20.730  0.00  0.00    -0.101 C 
ATOM     25  C   UNL     1      32.925  -8.208 -22.130  0.00  0.00    -0.101 C 
ATOM     26  H   UNL     1      31.095  -8.211 -21.244  0.00  0.00    -0.080 HD
ENDBRANCH  22  23
ENDBRANCH  21  22
ENDBRANCH  19  21
ENDBRANCH  16  19
ENDBRANCH  15  16
ENDBRANCH   9  15
ENDBRANCH   1  12
BRANCH   5  27
ATOM     27  O   UNL     1      36.001 -17.628 -22.354  0.00  0.00    -0.427 OA
BRANCH  27  35
ATOM     28  N   UNL     1      35.469 -21.759 -18.789  0.00  0.00    -0.316 N 
ATOM     29  C   UNL     1      34.618 -20.245 -20.190  0.00  0.00    +0.017 C 
ATOM     30  C   UNL     1      35.807 -20.740 -19.650  0.00  0.00    +0.048 C 
ATOM     31  C   UNL     1      34.111 -21.927 -18.766  0.00  0.00    +0.026 C 
ATOM     32  C   UNL     1      33.556 -21.004 -19.624  0.00  0.00    +0.012 C 
ATOM     33  C   UNL     1      34.682 -19.183 -21.113  0.00  0.00    +0.039 C 
ATOM     34  C   UNL     1      37.063 -20.222 -19.988  0.00  0.00    +0.018 C 
ATOM     35  C   UNL     1      35.931 -18.656 -21.461  0.00  0.00    +0.148 C 
ATOM     36  C   UNL     1      37.101 -19.168 -20.906  0.00  0.00    +0.039 C 
ATOM     37  C   UNL     1      33.480 -22.957 -17.921  0.00  0.00    +0.047 C 
ATOM     38  H   UNL     1      36.111 -22.291 -18.265  0.00  0.00    +0.152 HD
ENDBRANCH  27  35
ENDBRANCH   5  27
TORSDOF 9
ENDMDL
MODEL 5
REMARK VINA RESULT:     -11.0      3.939      9.680
REMARK  Name = 52920501
REMARK  9 active torsions:
REMARK  status: ('A' for Active; 'I' for Inactive)
REMARK    1  A    between atoms: N_1  and  C_12
REMARK    2  A    between atoms: C_5  and  O_27
REMARK    3  A    between atoms: C_9  and  C_15
REMARK    4  A    between atoms: C_15  and  S_16
REMARK    5  A    between atoms: S_16  and  N_19
REMARK    6  A    between atoms: N_19  and  C_21
REMARK    7  A    between atoms: C_21  and  C_22
REMARK    8  A    between atoms: C_22  and  N_23
REMARK    9  A    between atoms: O_27  and  C_35
REMARK                            x       y       z     vdW  Elec       q    Type
REMARK                         _______ _______ _______ _____ _____    ______ ____
ROOT
ATOM      1  N   UNL     1      36.812 -21.590 -17.488  0.00  0.00    -0.247 N 
ATOM      2  N   UNL     1      35.732 -23.225 -16.197  0.00  0.00    -0.300 NA
ATOM      3  N   UNL     1      37.967 -22.500 -15.659  0.00  0.00    -0.170 NA
ATOM      4  C   UNL     1      36.838 -22.482 -16.394  0.00  0.00    +0.152 C 
ATOM      5  C   UNL     1      35.792 -24.067 -15.144  0.00  0.00    +0.295 C 
ATOM      6  C   UNL     1      36.888 -24.180 -14.314  0.00  0.00    +0.094 C 
ATOM      7  C   UNL     1      37.957 -23.364 -14.623  0.00  0.00    +0.118 C 
ATOM      8  H   UNL     1      37.640 -21.067 -17.593  0.00  0.00    +0.165 HD
ENDROOT
BRANCH   1  12
ATOM      9  C   UNL     1      35.225 -20.395 -20.612  0.00  0.00    +0.004 C 
ATOM     10  C   UNL     1      36.196 -20.682 -19.653  0.00  0.00    +0.013 C 
ATOM     11  C   UNL     1      33.890 -20.725 -20.374  0.00  0.00    -0.002 C 
ATOM     12  C   UNL     1      35.833 -21.299 -18.456  0.00  0.00    +0.057 C 
ATOM     13  C   UNL     1      33.527 -21.342 -19.177  0.00  0.00    +0.001 C 
ATOM     14  C   UNL     1      34.498 -21.629 -18.218  0.00  0.00    +0.015 C 
BRANCH   9  15
ATOM     15  C   UNL     1      35.613 -19.735 -21.892  0.00  0.00    +0.195 C 
BRANCH  15  16
ATOM     16  S   UNL     1      36.367 -18.189 -21.498  0.00  0.00    +0.045 S 
ATOM     17  O   UNL     1      35.451 -17.429 -20.663  0.00  0.00    -0.157 OA
ATOM     18  O   UNL     1      37.722 -18.456 -21.042  0.00  0.00    -0.157 OA
BRANCH  16  19
ATOM     19  N   UNL     1      36.459 -17.467 -23.046  0.00  0.00    -0.185 NA
ATOM     20  H   UNL     1      37.055 -18.064 -23.619  0.00  0.00    +0.148 HD
BRANCH  19  21
ATOM     21  C   UNL     1      35.216 -17.243 -23.805  0.00  0.00    +0.068 C 
BRANCH  21  22
ATOM     22  C   UNL     1      35.232 -15.838 -24.391  0.00  0.00    -0.058 C 
BRANCH  22  23
ATOM     23  N   UNL     1      34.165 -15.034 -23.806  0.00  0.00    +0.385 N 
ATOM     24  C   UNL     1      34.642 -14.337 -22.610  0.00  0.00    -0.101 C 
ATOM     25  C   UNL     1      33.650 -14.072 -24.782  0.00  0.00    -0.101 C 
ATOM     26  H   UNL     1      33.407 -15.661 -23.536  0.00  0.00    -0.080 HD
ENDBRANCH  22  23
ENDBRANCH  21  22
ENDBRANCH  19  21
ENDBRANCH  16  19
ENDBRANCH  15  16
ENDBRANCH   9  15
ENDBRANCH   1  12
BRANCH   5  27
ATOM     27  O   UNL     1      34.678 -24.851 -14.900  0.00  0.00    -0.427 OA
BRANCH  27  35
ATOM     28  N   UNL     1      29.825 -22.353 -14.381  0.00  0.00    -0.316 N 
ATOM     29  C   UNL     1      31.333 -23.500 -15.559  0.00  0.00    +0.017 C 
ATOM     30  C   UNL     1      31.076 -22.923 -14.313  0.00  0.00    +0.048 C 
ATOM     31  C   UNL     1      29.283 -22.547 -15.622  0.00  0.00    +0.026 C 
ATOM     32  C   UNL     1      30.194 -23.254 -16.375  0.00  0.00    +0.012 C 
ATOM     33  C   UNL     1      32.562 -24.158 -15.762  0.00  0.00    +0.039 C 
ATOM     34  C   UNL     1      31.990 -22.974 -13.255  0.00  0.00    +0.018 C 
ATOM     35  C   UNL     1      33.486 -24.216 -14.712  0.00  0.00    +0.148 C 
ATOM     36  C   UNL     1      33.203 -23.632 -13.479  0.00  0.00    +0.039 C 
ATOM     37  C   UNL     1      27.945 -22.033 -15.964  0.00  0.00    +0.047 C 
ATOM     38  H   UNL     1      29.383 -21.874 -13.642  0.00  0.00    +0.152 HD
ENDBRANCH  27  35
ENDBRANCH   5  27
TORSDOF 9
ENDMDL
MODEL 6
REMARK VINA RESULT:     -10.8      5.331      9.921
REMARK  Name = 52920501
REMARK  9 active torsions:
REMARK  status: ('A' for Active; 'I' for Inactive)
REMARK    1  A    between atoms: N_1  and  C_12
REMARK    2  A    between atoms: C_5  and  O_27
REMARK    3  A    between atoms: C_9  and  C_15
REMARK    4  A    between atoms: C_15  and  S_16
REMARK    5  A    between atoms: S_16  and  N_19
REMARK    6  A    between atoms: N_19  and  C_21
REMARK    7  A    between atoms: C_21  and  C_22
REMARK    8  A    between atoms: C_22  and  N_23
REMARK    9  A    between atoms: O_27  and  C_35
REMARK                            x       y       z     vdW  Elec       q    Type
REMARK                         _______ _______ _______ _____ _____    ______ ____
ROOT
ATOM      1  N   UNL     1      34.780 -18.807 -23.149  0.00  0.00    -0.247 N 
ATOM      2  N   UNL     1      34.894 -16.531 -22.589  0.00  0.00    -0.300 NA
ATOM      3  N   UNL     1      34.313 -17.228 -24.821  0.00  0.00    -0.170 NA
ATOM      4  C   UNL     1      34.656 -17.455 -23.538  0.00  0.00    +0.152 C 
ATOM      5  C   UNL     1      34.767 -15.251 -22.996  0.00  0.00    +0.295 C 
ATOM      6  C   UNL     1      34.421 -14.885 -24.280  0.00  0.00    +0.094 C 
ATOM      7  C   UNL     1      34.204 -15.927 -25.159  0.00  0.00    +0.118 C 
ATOM      8  H   UNL     1      34.597 -19.447 -23.875  0.00  0.00    +0.165 HD
ENDROOT
BRANCH   1  12
ATOM      9  C   UNL     1      34.442 -20.565 -19.908  0.00  0.00    +0.004 C 
ATOM     10  C   UNL     1      34.111 -19.960 -21.120  0.00  0.00    +0.013 C 
ATOM     11  C   UNL     1      35.775 -20.628 -19.501  0.00  0.00    -0.002 C 
ATOM     12  C   UNL     1      35.112 -19.418 -21.926  0.00  0.00    +0.057 C 
ATOM     13  C   UNL     1      36.777 -20.086 -20.306  0.00  0.00    +0.001 C 
ATOM     14  C   UNL     1      36.445 -19.481 -21.519  0.00  0.00    +0.015 C 
BRANCH   9  15
ATOM     15  C   UNL     1      33.371 -21.145 -19.048  0.00  0.00    +0.195 C 
BRANCH  15  16
ATOM     16  S   UNL     1      33.957 -22.684 -18.415  0.00  0.00    +0.045 S 
ATOM     17  O   UNL     1      34.092 -23.616 -19.522  0.00  0.00    -0.157 OA
ATOM     18  O   UNL     1      35.093 -22.408 -17.549  0.00  0.00    -0.157 OA
BRANCH  16  19
ATOM     19  N   UNL     1      32.641 -23.156 -17.430  0.00  0.00    -0.185 NA
ATOM     20  H   UNL     1      32.238 -23.993 -17.851  0.00  0.00    +0.148 HD
BRANCH  19  21
ATOM     21  C   UNL     1      32.886 -23.463 -16.009  0.00  0.00    +0.068 C 
BRANCH  21  22
ATOM     22  C   UNL     1      31.852 -22.745 -15.154  0.00  0.00    -0.058 C 
BRANCH  22  23
ATOM     23  N   UNL     1      31.129 -23.701 -14.326  0.00  0.00    +0.385 N 
ATOM     24  C   UNL     1      30.129 -24.419 -15.120  0.00  0.00    -0.101 C 
ATOM     25  C   UNL     1      32.055 -24.648 -13.701  0.00  0.00    -0.101 C 
ATOM     26  H   UNL     1      30.648 -23.184 -13.590  0.00  0.00    -0.080 HD
ENDBRANCH  22  23
ENDBRANCH  21  22
ENDBRANCH  19  21
ENDBRANCH  16  19
ENDBRANCH  15  16
ENDBRANCH   9  15
ENDBRANCH   1  12
BRANCH   5  27
ATOM     27  O   UNL     1      35.001 -14.264 -22.054  0.00  0.00    -0.427 OA
BRANCH  27  35
ATOM     28  N   UNL     1      31.410 -10.130 -21.771  0.00  0.00    -0.316 N 
ATOM     29  C   UNL     1      33.240 -11.095 -22.606  0.00  0.00    +0.017 C 
ATOM     30  C   UNL     1      32.194 -11.259 -21.696  0.00  0.00    +0.048 C 
ATOM     31  C   UNL     1      31.922  -9.260 -22.695  0.00  0.00    +0.026 C 
ATOM     32  C   UNL     1      33.056  -9.829 -23.229  0.00  0.00    +0.012 C 
ATOM     33  C   UNL     1      34.199 -12.119 -22.730  0.00  0.00    +0.039 C 
ATOM     34  C   UNL     1      32.059 -12.402 -20.899  0.00  0.00    +0.018 C 
ATOM     35  C   UNL     1      34.077 -13.268 -21.940  0.00  0.00    +0.148 C 
ATOM     36  C   UNL     1      33.022 -13.405 -21.039  0.00  0.00    +0.039 C 
ATOM     37  C   UNL     1      31.272  -7.967 -22.972  0.00  0.00    +0.047 C 
ATOM     38  H   UNL     1      30.597  -9.972 -21.238  0.00  0.00    +0.152 HD
ENDBRANCH  27  35
ENDBRANCH   5  27
TORSDOF 9
ENDMDL
MODEL 7
REMARK VINA RESULT:     -10.4      4.208      9.225
REMARK  Name = 52920501
REMARK  9 active torsions:
REMARK  status: ('A' for Active; 'I' for Inactive)
REMARK    1  A    between atoms: N_1  and  C_12
REMARK    2  A    between atoms: C_5  and  O_27
REMARK    3  A    between atoms: C_9  and  C_15
REMARK    4  A    between atoms: C_15  and  S_16
REMARK    5  A    between atoms: S_16  and  N_19
REMARK    6  A    between atoms: N_19  and  C_21
REMARK    7  A    between atoms: C_21  and  C_22
REMARK    8  A    between atoms: C_22  and  N_23
REMARK    9  A    between atoms: O_27  and  C_35
REMARK                            x       y       z     vdW  Elec       q    Type
REMARK                         _______ _______ _______ _____ _____    ______ ____
ROOT
ATOM      1  N   UNL     1      36.118 -23.048 -16.123  0.00  0.00    -0.247 N 
ATOM      2  N   UNL     1      34.541 -23.224 -14.395  0.00  0.00    -0.300 NA
ATOM      3  N   UNL     1      36.820 -23.938 -14.068  0.00  0.00    -0.170 NA
ATOM      4  C   UNL     1      35.811 -23.422 -14.797  0.00  0.00    +0.152 C 
ATOM      5  C   UNL     1      34.283 -23.593 -13.123  0.00  0.00    +0.295 C 
ATOM      6  C   UNL     1      35.227 -24.133 -12.274  0.00  0.00    +0.094 C 
ATOM      7  C   UNL     1      36.491 -24.284 -12.806  0.00  0.00    +0.118 C 
ATOM      8  H   UNL     1      37.057 -23.210 -16.374  0.00  0.00    +0.165 HD
ENDROOT
BRANCH   1  12
ATOM      9  C   UNL     1      35.203 -21.303 -19.258  0.00  0.00    +0.004 C 
ATOM     10  C   UNL     1      35.969 -21.857 -18.233  0.00  0.00    +0.013 C 
ATOM     11  C   UNL     1      33.811 -21.381 -19.207  0.00  0.00    -0.002 C 
ATOM     12  C   UNL     1      35.345 -22.489 -17.158  0.00  0.00    +0.057 C 
ATOM     13  C   UNL     1      33.186 -22.014 -18.132  0.00  0.00    +0.001 C 
ATOM     14  C   UNL     1      33.953 -22.567 -17.108  0.00  0.00    +0.015 C 
BRANCH   9  15
ATOM     15  C   UNL     1      35.871 -20.627 -20.407  0.00  0.00    +0.195 C 
BRANCH  15  16
ATOM     16  S   UNL     1      34.740 -19.450 -21.076  0.00  0.00    +0.045 S 
ATOM     17  O   UNL     1      33.387 -19.935 -20.858  0.00  0.00    -0.157 OA
ATOM     18  O   UNL     1      35.130 -18.133 -20.597  0.00  0.00    -0.157 OA
BRANCH  16  19
ATOM     19  N   UNL     1      35.117 -19.543 -22.742  0.00  0.00    -0.185 NA
ATOM     20  H   UNL     1      34.252 -19.770 -23.232  0.00  0.00    +0.148 HD
BRANCH  19  21
ATOM     21  C   UNL     1      35.695 -18.363 -23.410  0.00  0.00    +0.068 C 
BRANCH  21  22
ATOM     22  C   UNL     1      34.575 -17.534 -24.021  0.00  0.00    -0.058 C 
BRANCH  22  23
ATOM     23  N   UNL     1      34.984 -16.140 -24.139  0.00  0.00    +0.385 N 
ATOM     24  C   UNL     1      34.007 -15.379 -24.920  0.00  0.00    -0.101 C 
ATOM     25  C   UNL     1      35.154 -15.538 -22.815  0.00  0.00    -0.101 C 
ATOM     26  H   UNL     1      35.881 -16.112 -24.625  0.00  0.00    -0.080 HD
ENDBRANCH  22  23
ENDBRANCH  21  22
ENDBRANCH  19  21
ENDBRANCH  16  19
ENDBRANCH  15  16
ENDBRANCH   9  15
ENDBRANCH   1  12
BRANCH   5  27
ATOM     27  O   UNL     1      32.990 -23.408 -12.664  0.00  0.00    -0.427 OA
BRANCH  27  35
ATOM     28  N   UNL     1      28.864 -24.372 -16.143  0.00  0.00    -0.316 N 
ATOM     29  C   UNL     1      30.295 -23.002 -15.117  0.00  0.00    +0.017 C 
ATOM     30  C   UNL     1      29.898 -24.336 -15.236  0.00  0.00    +0.048 C 
ATOM     31  C   UNL     1      28.594 -23.112 -16.602  0.00  0.00    +0.026 C 
ATOM     32  C   UNL     1      29.463 -22.241 -15.985  0.00  0.00    +0.012 C 
ATOM     33  C   UNL     1      31.350 -22.683 -14.240  0.00  0.00    +0.039 C 
ATOM     34  C   UNL     1      30.506 -25.371 -14.517  0.00  0.00    +0.018 C 
ATOM     35  C   UNL     1      31.968 -23.709 -13.515  0.00  0.00    +0.148 C 
ATOM     36  C   UNL     1      31.551 -25.031 -13.652  0.00  0.00    +0.039 C 
ATOM     37  C   UNL     1      27.525 -22.867 -17.588  0.00  0.00    +0.047 C 
ATOM     38  H   UNL     1      28.388 -25.188 -16.423  0.00  0.00    +0.152 HD
ENDBRANCH  27  35
ENDBRANCH   5  27
TORSDOF 9
ENDMDL
MODEL 8
REMARK VINA RESULT:     -10.2      7.257     14.209
REMARK  Name = 52920501
REMARK  9 active torsions:
REMARK  status: ('A' for Active; 'I' for Inactive)
REMARK    1  A    between atoms: N_1  and  C_12
REMARK    2  A    between atoms: C_5  and  O_27
REMARK    3  A    between atoms: C_9  and  C_15
REMARK    4  A    between atoms: C_15  and  S_16
REMARK    5  A    between atoms: S_16  and  N_19
REMARK    6  A    between atoms: N_19  and  C_21
REMARK    7  A    between atoms: C_21  and  C_22
REMARK    8  A    between atoms: C_22  and  N_23
REMARK    9  A    between atoms: O_27  and  C_35
REMARK                            x       y       z     vdW  Elec       q    Type
REMARK                         _______ _______ _______ _____ _____    ______ ____
ROOT
ATOM      1  N   UNL     1      34.305 -15.780 -24.114  0.00  0.00    -0.247 N 
ATOM      2  N   UNL     1      35.161 -17.530 -22.806  0.00  0.00    -0.300 NA
ATOM      3  N   UNL     1      34.691 -17.851 -25.148  0.00  0.00    -0.170 NA
ATOM      4  C   UNL     1      34.741 -17.119 -24.018  0.00  0.00    +0.152 C 
ATOM      5  C   UNL     1      35.569 -18.815 -22.750  0.00  0.00    +0.295 C 
ATOM      6  C   UNL     1      35.568 -19.668 -23.835  0.00  0.00    +0.094 C 
ATOM      7  C   UNL     1      35.114 -19.126 -25.020  0.00  0.00    +0.118 C 
ATOM      8  H   UNL     1      34.008 -15.523 -25.017  0.00  0.00    +0.165 HD
ENDROOT
BRANCH   1  12
ATOM      9  C   UNL     1      33.475 -12.519 -22.569  0.00  0.00    +0.004 C 
ATOM     10  C   UNL     1      33.565 -13.550 -23.504  0.00  0.00    +0.013 C 
ATOM     11  C   UNL     1      34.036 -12.676 -21.302  0.00  0.00    -0.002 C 
ATOM     12  C   UNL     1      34.214 -14.739 -23.172  0.00  0.00    +0.057 C 
ATOM     13  C   UNL     1      34.686 -13.865 -20.968  0.00  0.00    +0.001 C 
ATOM     14  C   UNL     1      34.775 -14.896 -21.904  0.00  0.00    +0.015 C 
BRANCH   9  15
ATOM     15  C   UNL     1      32.780 -11.249 -22.925  0.00  0.00    +0.195 C 
BRANCH  15  16
ATOM     16  S   UNL     1      33.816 -10.357 -24.040  0.00  0.00    +0.045 S 
ATOM     17  O   UNL     1      35.179 -10.401 -23.538  0.00  0.00    -0.157 OA
ATOM     18  O   UNL     1      33.519 -10.814 -25.389  0.00  0.00    -0.157 OA
BRANCH  16  19
ATOM     19  N   UNL     1      33.196  -8.773 -23.868  0.00  0.00    -0.185 NA
ATOM     20  H   UNL     1      32.428  -8.678 -24.533  0.00  0.00    +0.148 HD
BRANCH  19  21
ATOM     21  C   UNL     1      32.683  -8.346 -22.553  0.00  0.00    +0.068 C 
BRANCH  21  22
ATOM     22  C   UNL     1      33.601  -7.277 -21.979  0.00  0.00    -0.058 C 
BRANCH  22  23
ATOM     23  N   UNL     1      33.216  -6.963 -20.608  0.00  0.00    +0.385 N 
ATOM     24  C   UNL     1      32.389  -5.756 -20.568  0.00  0.00    -0.101 C 
ATOM     25  C   UNL     1      32.501  -8.088 -20.002  0.00  0.00    -0.101 C 
ATOM     26  H   UNL     1      34.066  -6.792 -20.070  0.00  0.00    -0.080 HD
ENDBRANCH  22  23
ENDBRANCH  21  22
ENDBRANCH  19  21
ENDBRANCH  16  19
ENDBRANCH  15  16
ENDBRANCH   9  15
ENDBRANCH   1  12
BRANCH   5  27
ATOM     27  O   UNL     1      36.011 -19.284 -21.525  0.00  0.00    -0.427 OA
BRANCH  27  35
ATOM     28  N   UNL     1      32.584 -22.024 -18.237  0.00  0.00    -0.316 N 
ATOM     29  C   UNL     1      34.633 -21.481 -18.932  0.00  0.00    +0.017 C 
ATOM     30  C   UNL     1      33.272 -21.256 -19.149  0.00  0.00    +0.048 C 
ATOM     31  C   UNL     1      33.460 -22.724 -17.452  0.00  0.00    +0.026 C 
ATOM     32  C   UNL     1      34.737 -22.409 -17.859  0.00  0.00    +0.012 C 
ATOM     33  C   UNL     1      35.570 -20.809 -19.742  0.00  0.00    +0.039 C 
ATOM     34  C   UNL     1      32.799 -20.389 -20.140  0.00  0.00    +0.018 C 
ATOM     35  C   UNL     1      35.111 -19.938 -20.737  0.00  0.00    +0.148 C 
ATOM     36  C   UNL     1      33.746 -19.733 -20.932  0.00  0.00    +0.039 C 
ATOM     37  C   UNL     1      32.983 -23.628 -16.390  0.00  0.00    +0.047 C 
ATOM     38  H   UNL     1      31.603 -22.063 -18.159  0.00  0.00    +0.152 HD
ENDBRANCH  27  35
ENDBRANCH   5  27
TORSDOF 9
ENDMDL
MODEL 9
REMARK VINA RESULT:     -10.1      2.312      3.274
REMARK  Name = 52920501
REMARK  9 active torsions:
REMARK  status: ('A' for Active; 'I' for Inactive)
REMARK    1  A    between atoms: N_1  and  C_12
REMARK    2  A    between atoms: C_5  and  O_27
REMARK    3  A    between atoms: C_9  and  C_15
REMARK    4  A    between atoms: C_15  and  S_16
REMARK    5  A    between atoms: S_16  and  N_19
REMARK    6  A    between atoms: N_19  and  C_21
REMARK    7  A    between atoms: C_21  and  C_22
REMARK    8  A    between atoms: C_22  and  N_23
REMARK    9  A    between atoms: O_27  and  C_35
REMARK                            x       y       z     vdW  Elec       q    Type
REMARK                         _______ _______ _______ _____ _____    ______ ____
ROOT
ATOM      1  N   UNL     1      33.757 -23.577 -12.970  0.00  0.00    -0.247 N 
ATOM      2  N   UNL     1      33.998 -23.484 -15.302  0.00  0.00    -0.300 NA
ATOM      3  N   UNL     1      31.892 -22.960 -14.253  0.00  0.00    -0.170 NA
ATOM      4  C   UNL     1      33.188 -23.328 -14.238  0.00  0.00    +0.152 C 
ATOM      5  C   UNL     1      33.421 -23.238 -16.497  0.00  0.00    +0.295 C 
ATOM      6  C   UNL     1      32.105 -22.855 -16.649  0.00  0.00    +0.094 C 
ATOM      7  C   UNL     1      31.380 -22.731 -15.481  0.00  0.00    +0.118 C 
ATOM      8  H   UNL     1      33.129 -23.451 -12.221  0.00  0.00    +0.165 HD
ENDROOT
BRANCH   1  12
ATOM      9  C   UNL     1      36.920 -25.486 -12.729  0.00  0.00    +0.004 C 
ATOM     10  C   UNL     1      35.642 -25.098 -13.130  0.00  0.00    +0.013 C 
ATOM     11  C   UNL     1      37.603 -24.746 -11.764  0.00  0.00    -0.002 C 
ATOM     12  C   UNL     1      35.047 -23.970 -12.566  0.00  0.00    +0.057 C 
ATOM     13  C   UNL     1      37.008 -23.617 -11.199  0.00  0.00    +0.001 C 
ATOM     14  C   UNL     1      35.730 -23.230 -11.601  0.00  0.00    +0.015 C 
BRANCH   9  15
ATOM     15  C   UNL     1      37.556 -26.692 -13.333  0.00  0.00    +0.195 C 
BRANCH  15  16
ATOM     16  S   UNL     1      38.869 -26.147 -14.378  0.00  0.00    +0.045 S 
ATOM     17  O   UNL     1      39.895 -25.535 -13.548  0.00  0.00    -0.157 OA
ATOM     18  O   UNL     1      39.210 -27.240 -15.275  0.00  0.00    -0.157 OA
BRANCH  16  19
ATOM     19  N   UNL     1      38.079 -24.936 -15.291  0.00  0.00    -0.185 NA
ATOM     20  H   UNL     1      37.076 -25.088 -15.185  0.00  0.00    +0.148 HD
BRANCH  19  21
ATOM     21  C   UNL     1      38.337 -23.520 -14.975  0.00  0.00    +0.068 C 
BRANCH  21  22
ATOM     22  C   UNL     1      38.476 -22.733 -16.270  0.00  0.00    -0.058 C 
BRANCH  22  23
ATOM     23  N   UNL     1      37.378 -21.784 -16.405  0.00  0.00    +0.385 N 
ATOM     24  C   UNL     1      36.597 -21.719 -15.167  0.00  0.00    -0.101 C 
ATOM     25  C   UNL     1      37.884 -20.455 -16.756  0.00  0.00    -0.101 C 
ATOM     26  H   UNL     1      36.768 -22.108 -17.156  0.00  0.00    -0.080 HD
ENDBRANCH  22  23
ENDBRANCH  21  22
ENDBRANCH  19  21
ENDBRANCH  16  19
ENDBRANCH  15  16
ENDBRANCH   9  15
ENDBRANCH   1  12
BRANCH   5  27
ATOM     27  O   UNL     1      34.215 -23.384 -17.622  0.00  0.00    -0.427 OA
BRANCH  27  35
ATOM     28  N   UNL     1      34.725 -19.184 -21.108  0.00  0.00    -0.316 N 
ATOM     29  C   UNL     1      35.586 -20.793 -19.825  0.00  0.00    +0.017 C 
ATOM     30  C   UNL     1      34.392 -20.206 -20.249  0.00  0.00    +0.048 C 
ATOM     31  C   UNL     1      36.085 -19.103 -21.242  0.00  0.00    +0.026 C 
ATOM     32  C   UNL     1      36.646 -20.087 -20.459  0.00  0.00    +0.012 C 
ATOM     33  C   UNL     1      35.528 -21.878 -18.928  0.00  0.00    +0.039 C 
ATOM     34  C   UNL     1      33.137 -20.652 -19.819  0.00  0.00    +0.018 C 
ATOM     35  C   UNL     1      34.280 -22.335 -18.489  0.00  0.00    +0.148 C 
ATOM     36  C   UNL     1      33.104 -21.730 -18.929  0.00  0.00    +0.039 C 
ATOM     37  C   UNL     1      36.712 -18.088 -22.108  0.00  0.00    +0.047 C 
ATOM     38  H   UNL     1      34.079 -18.595 -21.561  0.00  0.00    +0.152 HD
ENDBRANCH  27  35
ENDBRANCH   5  27
TORSDOF 9
ENDMDL
