MODEL 1
REMARK VINA RESULT:     -11.8      0.000      0.000
REMARK  Name = 118513932
REMARK  2 active torsions:
REMARK  status: ('A' for Active; 'I' for Inactive)
REMARK    1  A    between atoms: C_4  and  N_24
REMARK    2  A    between atoms: C_10  and  C_15
REMARK                            x       y       z     vdW  Elec       q    Type
REMARK                         _______ _______ _______ _____ _____    ______ ____
ROOT
ATOM      1  O   UNL     1      32.704 -22.404 -18.376  0.00  0.00    -0.274 OA
ATOM      2  N   UNL     1      34.954 -21.963 -17.858  0.00  0.00    -0.209 N 
ATOM      3  N   UNL     1      36.180 -20.465 -19.255  0.00  0.00    -0.389 NA
ATOM      4  C   UNL     1      36.044 -22.979 -15.970  0.00  0.00    +0.063 C 
ATOM      5  C   UNL     1      34.961 -22.796 -16.744  0.00  0.00    +0.089 C 
ATOM      6  C   UNL     1      37.256 -22.270 -16.321  0.00  0.00    +0.020 C 
ATOM      7  C   UNL     1      37.314 -21.456 -17.380  0.00  0.00    +0.050 C 
ATOM      8  C   UNL     1      36.108 -21.260 -18.230  0.00  0.00    +0.193 C 
ATOM      9  C   UNL     1      33.773 -21.841 -18.601  0.00  0.00    +0.242 C 
ATOM     10  C   UNL     1      35.043 -20.325 -19.999  0.00  0.00    +0.139 C 
ATOM     11  C   UNL     1      33.873 -20.930 -19.766  0.00  0.00    +0.146 C 
ENDROOT
BRANCH  10  15
ATOM     12  N   UNL     1      35.155 -17.453 -22.181  0.00  0.00    -0.178 N 
ATOM     13  N   UNL     1      35.097 -18.139 -21.011  0.00  0.00    -0.173 NA
ATOM     14  N   UNL     1      35.257 -17.020 -24.364  0.00  0.00    -0.392 NA
ATOM     15  C   UNL     1      35.099 -19.434 -21.161  0.00  0.00    +0.124 C 
ATOM     16  C   UNL     1      35.158 -20.137 -22.479  0.00  0.00    +0.023 C 
ATOM     17  C   UNL     1      35.213 -19.399 -23.603  0.00  0.00    +0.025 C 
ATOM     18  C   UNL     1      35.212 -17.979 -23.459  0.00  0.00    +0.198 C 
ATOM     19  C   UNL     1      35.166 -16.089 -22.304  0.00  0.00    +0.173 C 
ATOM     20  C   UNL     1      35.230 -15.848 -23.654  0.00  0.00    +0.111 C 
ATOM     21  C   UNL     1      35.272 -20.085 -24.943  0.00  0.00    +0.035 C 
ATOM     22  C   UNL     1      35.268 -14.552 -24.348  0.00  0.00    +0.063 C 
ENDBRANCH  10  15
BRANCH   4  24
ATOM     23  N   UNL     1      35.944 -24.849 -12.210  0.00  0.00    +0.389 N 
ATOM     24  N   UNL     1      36.066 -23.792 -14.873  0.00  0.00    -0.311 N 
ATOM     25  C   UNL     1      37.147 -24.136 -12.710  0.00  0.00    -0.027 C 
ATOM     26  C   UNL     1      38.400 -24.179 -11.863  0.00  0.00    -0.020 C 
ATOM     27  C   UNL     1      37.616 -22.905 -11.963  0.00  0.00    -0.020 C 
ATOM     28  C   UNL     1      37.320 -24.171 -14.215  0.00  0.00    +0.071 C 
ATOM     29  C   UNL     1      34.743 -24.343 -12.879  0.00  0.00    -0.060 C 
ATOM     30  C   UNL     1      34.864 -24.483 -14.397  0.00  0.00    +0.067 C 
ATOM     31  H   UNL     1      35.857 -24.702 -11.205  0.00  0.00    -0.084 HD
ATOM     32  H   UNL     1      36.040 -25.845 -12.408  0.00  0.00    -0.084 HD
ENDBRANCH   4  24
TORSDOF 2
ENDMDL
MODEL 2
REMARK VINA RESULT:     -11.8      6.201     11.104
REMARK  Name = 118513932
REMARK  2 active torsions:
REMARK  status: ('A' for Active; 'I' for Inactive)
REMARK    1  A    between atoms: C_4  and  N_24
REMARK    2  A    between atoms: C_10  and  C_15
REMARK                            x       y       z     vdW  Elec       q    Type
REMARK                         _______ _______ _______ _____ _____    ______ ____
ROOT
ATOM      1  O   UNL     1      33.985 -13.006 -26.524  0.00  0.00    -0.274 OA
ATOM      2  N   UNL     1      34.324 -13.387 -24.229  0.00  0.00    -0.209 N 
ATOM      3  N   UNL     1      34.108 -11.551 -22.717  0.00  0.00    -0.389 NA
ATOM      4  C   UNL     1      34.882 -15.564 -23.373  0.00  0.00    +0.063 C 
ATOM      5  C   UNL     1      34.592 -14.741 -24.395  0.00  0.00    +0.089 C 
ATOM      6  C   UNL     1      34.915 -15.003 -22.039  0.00  0.00    +0.020 C 
ATOM      7  C   UNL     1      34.667 -13.708 -21.813  0.00  0.00    +0.050 C 
ATOM      8  C   UNL     1      34.346 -12.806 -22.953  0.00  0.00    +0.193 C 
ATOM      9  C   UNL     1      34.034 -12.613 -25.360  0.00  0.00    +0.242 C 
ATOM     10  C   UNL     1      33.820 -10.772 -23.802  0.00  0.00    +0.139 C 
ATOM     11  C   UNL     1      33.763 -11.184 -25.072  0.00  0.00    +0.146 C 
ENDROOT
BRANCH  10  15
ATOM     12  N   UNL     1      32.371  -7.630 -22.773  0.00  0.00    -0.178 N 
ATOM     13  N   UNL     1      32.479  -8.976 -22.915  0.00  0.00    -0.173 NA
ATOM     14  N   UNL     1      32.831  -5.455 -22.917  0.00  0.00    -0.392 NA
ATOM     15  C   UNL     1      33.547  -9.352 -23.561  0.00  0.00    +0.124 C 
ATOM     16  C   UNL     1      34.580  -8.421 -24.111  0.00  0.00    +0.023 C 
ATOM     17  C   UNL     1      34.414  -7.097 -23.937  0.00  0.00    +0.025 C 
ATOM     18  C   UNL     1      33.250  -6.666 -23.232  0.00  0.00    +0.198 C 
ATOM     19  C   UNL     1      31.349  -6.977 -22.138  0.00  0.00    +0.173 C 
ATOM     20  C   UNL     1      31.655  -5.642 -22.239  0.00  0.00    +0.111 C 
ATOM     21  C   UNL     1      35.441  -6.139 -24.482  0.00  0.00    +0.035 C 
ATOM     22  C   UNL     1      30.895  -4.491 -21.727  0.00  0.00    +0.063 C 
ENDBRANCH  10  15
BRANCH   4  24
ATOM     23  N   UNL     1      35.002 -19.760 -23.533  0.00  0.00    +0.389 N 
ATOM     24  N   UNL     1      35.146 -16.895 -23.521  0.00  0.00    -0.311 N 
ATOM     25  C   UNL     1      35.336 -19.003 -22.299  0.00  0.00    -0.027 C 
ATOM     26  C   UNL     1      35.826 -19.783 -21.099  0.00  0.00    -0.020 C 
ATOM     27  C   UNL     1      34.451 -19.183 -21.083  0.00  0.00    -0.020 C 
ATOM     28  C   UNL     1      35.949 -17.639 -22.544  0.00  0.00    +0.071 C 
ATOM     29  C   UNL     1      34.140 -18.955 -24.401  0.00  0.00    -0.060 C 
ATOM     30  C   UNL     1      34.805 -17.622 -24.747  0.00  0.00    +0.067 C 
ATOM     31  H   UNL     1      34.517 -20.620 -23.281  0.00  0.00    -0.084 HD
ATOM     32  H   UNL     1      35.864 -19.980 -24.032  0.00  0.00    -0.084 HD
ENDBRANCH   4  24
TORSDOF 2
ENDMDL
MODEL 3
REMARK VINA RESULT:     -11.2      6.504     11.310
REMARK  Name = 118513932
REMARK  2 active torsions:
REMARK  status: ('A' for Active; 'I' for Inactive)
REMARK    1  A    between atoms: C_4  and  N_24
REMARK    2  A    between atoms: C_10  and  C_15
REMARK                            x       y       z     vdW  Elec       q    Type
REMARK                         _______ _______ _______ _____ _____    ______ ____
ROOT
ATOM      1  O   UNL     1      34.051 -12.523 -26.242  0.00  0.00    -0.274 OA
ATOM      2  N   UNL     1      34.104 -13.074 -23.957  0.00  0.00    -0.209 N 
ATOM      3  N   UNL     1      33.519 -11.398 -22.360  0.00  0.00    -0.389 NA
ATOM      4  C   UNL     1      34.728 -15.268 -23.194  0.00  0.00    +0.063 C 
ATOM      5  C   UNL     1      34.510 -14.384 -24.184  0.00  0.00    +0.089 C 
ATOM      6  C   UNL     1      34.527 -14.823 -21.831  0.00  0.00    +0.020 C 
ATOM      7  C   UNL     1      34.137 -13.576 -21.548  0.00  0.00    +0.050 C 
ATOM      8  C   UNL     1      33.898 -12.606 -22.652  0.00  0.00    +0.193 C 
ATOM      9  C   UNL     1      33.904 -12.230 -25.057  0.00  0.00    +0.242 C 
ATOM     10  C   UNL     1      33.316 -10.552 -23.413  0.00  0.00    +0.139 C 
ATOM     11  C   UNL     1      33.472 -10.856 -24.705  0.00  0.00    +0.146 C 
ENDROOT
BRANCH  10  15
ATOM     12  N   UNL     1      32.308  -7.093 -23.620  0.00  0.00    -0.178 N 
ATOM     13  N   UNL     1      32.704  -8.314 -24.063  0.00  0.00    -0.173 NA
ATOM     14  N   UNL     1      31.716  -5.443 -22.245  0.00  0.00    -0.392 NA
ATOM     15  C   UNL     1      32.889  -9.183 -23.109  0.00  0.00    +0.124 C 
ATOM     16  C   UNL     1      32.696  -8.903 -21.654  0.00  0.00    +0.023 C 
ATOM     17  C   UNL     1      32.302  -7.671 -21.280  0.00  0.00    +0.025 C 
ATOM     18  C   UNL     1      32.094  -6.705 -22.310  0.00  0.00    +0.198 C 
ATOM     19  C   UNL     1      32.046  -6.006 -24.412  0.00  0.00    +0.173 C 
ATOM     20  C   UNL     1      31.684  -5.005 -23.544  0.00  0.00    +0.111 C 
ATOM     21  C   UNL     1      32.101  -7.365 -19.819  0.00  0.00    +0.035 C 
ATOM     22  C   UNL     1      31.297  -3.622 -23.857  0.00  0.00    +0.063 C 
ENDBRANCH  10  15
BRANCH   4  24
ATOM     23  N   UNL     1      35.261 -19.417 -23.577  0.00  0.00    +0.389 N 
ATOM     24  N   UNL     1      35.126 -16.557 -23.401  0.00  0.00    -0.311 N 
ATOM     25  C   UNL     1      35.466 -18.705 -22.288  0.00  0.00    -0.027 C 
ATOM     26  C   UNL     1      35.977 -19.505 -21.110  0.00  0.00    -0.020 C 
ATOM     27  C   UNL     1      34.551 -19.040 -21.129  0.00  0.00    -0.020 C 
ATOM     28  C   UNL     1      35.954 -17.278 -22.428  0.00  0.00    +0.071 C 
ATOM     29  C   UNL     1      34.364 -18.647 -24.441  0.00  0.00    -0.060 C 
ATOM     30  C   UNL     1      34.911 -17.239 -24.681  0.00  0.00    +0.067 C 
ATOM     31  H   UNL     1      34.852 -20.332 -23.396  0.00  0.00    -0.084 HD
ATOM     32  H   UNL     1      36.162 -19.525 -24.044  0.00  0.00    -0.084 HD
ENDBRANCH   4  24
TORSDOF 2
ENDMDL
MODEL 4
REMARK VINA RESULT:     -10.5      7.717     14.412
REMARK  Name = 118513932
REMARK  2 active torsions:
REMARK  status: ('A' for Active; 'I' for Inactive)
REMARK    1  A    between atoms: C_4  and  N_24
REMARK    2  A    between atoms: C_10  and  C_15
REMARK                            x       y       z     vdW  Elec       q    Type
REMARK                         _______ _______ _______ _____ _____    ______ ____
ROOT
ATOM      1  O   UNL     1      35.506  -9.091 -24.922  0.00  0.00    -0.274 OA
ATOM      2  N   UNL     1      33.780  -9.385 -23.353  0.00  0.00    -0.209 N 
ATOM      3  N   UNL     1      33.104 -11.606 -22.795  0.00  0.00    -0.389 NA
ATOM      4  C   UNL     1      32.686  -7.517 -22.305  0.00  0.00    +0.063 C 
ATOM      5  C   UNL     1      33.600  -8.021 -23.153  0.00  0.00    +0.089 C 
ATOM      6  C   UNL     1      31.855  -8.448 -21.572  0.00  0.00    +0.020 C 
ATOM      7  C   UNL     1      31.979  -9.771 -21.721  0.00  0.00    +0.050 C 
ATOM      8  C   UNL     1      32.995 -10.318 -22.661  0.00  0.00    +0.193 C 
ATOM      9  C   UNL     1      34.760  -9.810 -24.260  0.00  0.00    +0.242 C 
ATOM     10  C   UNL     1      34.052 -12.049 -23.673  0.00  0.00    +0.139 C 
ATOM     11  C   UNL     1      34.870 -11.281 -24.399  0.00  0.00    +0.146 C 
ENDROOT
BRANCH  10  15
ATOM     12  N   UNL     1      35.022 -15.512 -23.364  0.00  0.00    -0.178 N 
ATOM     13  N   UNL     1      35.006 -14.183 -23.086  0.00  0.00    -0.173 NA
ATOM     14  N   UNL     1      34.555 -17.467 -24.325  0.00  0.00    -0.392 NA
ATOM     15  C   UNL     1      34.193 -13.499 -23.841  0.00  0.00    +0.124 C 
ATOM     16  C   UNL     1      33.344 -14.082 -24.923  0.00  0.00    +0.023 C 
ATOM     17  C   UNL     1      33.406 -15.408 -25.149  0.00  0.00    +0.025 C 
ATOM     18  C   UNL     1      34.290 -16.175 -24.332  0.00  0.00    +0.198 C 
ATOM     19  C   UNL     1      35.785 -16.450 -22.721  0.00  0.00    +0.173 C 
ATOM     20  C   UNL     1      35.480 -17.643 -23.329  0.00  0.00    +0.111 C 
ATOM     21  C   UNL     1      32.559 -16.019 -26.235  0.00  0.00    +0.035 C 
ATOM     22  C   UNL     1      36.013 -18.981 -23.031  0.00  0.00    +0.063 C 
ENDBRANCH  10  15
BRANCH   4  24
ATOM     23  N   UNL     1      31.475  -3.501 -22.074  0.00  0.00    +0.389 N 
ATOM     24  N   UNL     1      32.498  -6.181 -22.097  0.00  0.00    -0.311 N 
ATOM     25  C   UNL     1      32.222  -4.039 -23.240  0.00  0.00    -0.027 C 
ATOM     26  C   UNL     1      32.635  -3.071 -24.326  0.00  0.00    -0.020 C 
ATOM     27  C   UNL     1      31.535  -4.055 -24.589  0.00  0.00    -0.020 C 
ATOM     28  C   UNL     1      33.179  -5.167 -22.909  0.00  0.00    +0.071 C 
ATOM     29  C   UNL     1      30.776  -4.585 -21.380  0.00  0.00    -0.060 C 
ATOM     30  C   UNL     1      31.755  -5.674 -20.940  0.00  0.00    +0.067 C 
ATOM     31  H   UNL     1      30.796  -2.813 -22.396  0.00  0.00    -0.084 HD
ATOM     32  H   UNL     1      32.134  -3.064 -21.430  0.00  0.00    -0.084 HD
ENDBRANCH   4  24
TORSDOF 2
ENDMDL
MODEL 5
REMARK VINA RESULT:     -10.2      1.382      1.730
REMARK  Name = 118513932
REMARK  2 active torsions:
REMARK  status: ('A' for Active; 'I' for Inactive)
REMARK    1  A    between atoms: C_4  and  N_24
REMARK    2  A    between atoms: C_10  and  C_15
REMARK                            x       y       z     vdW  Elec       q    Type
REMARK                         _______ _______ _______ _____ _____    ______ ____
ROOT
ATOM      1  O   UNL     1      32.717 -22.877 -17.877  0.00  0.00    -0.274 OA
ATOM      2  N   UNL     1      34.924 -22.438 -17.196  0.00  0.00    -0.209 N 
ATOM      3  N   UNL     1      36.275 -21.000 -18.540  0.00  0.00    -0.389 NA
ATOM      4  C   UNL     1      35.848 -23.395 -15.192  0.00  0.00    +0.063 C 
ATOM      5  C   UNL     1      34.832 -23.231 -16.057  0.00  0.00    +0.089 C 
ATOM      6  C   UNL     1      37.092 -22.710 -15.469  0.00  0.00    +0.020 C 
ATOM      7  C   UNL     1      37.244 -21.933 -16.547  0.00  0.00    +0.050 C 
ATOM      8  C   UNL     1      36.112 -21.758 -17.498  0.00  0.00    +0.193 C 
ATOM      9  C   UNL     1      33.808 -22.332 -18.036  0.00  0.00    +0.242 C 
ATOM     10  C   UNL     1      35.202 -20.877 -19.378  0.00  0.00    +0.139 C 
ATOM     11  C   UNL     1      34.011 -21.463 -19.219  0.00  0.00    +0.146 C 
ENDROOT
BRANCH  10  15
ATOM     12  N   UNL     1      34.665 -18.994 -22.410  0.00  0.00    -0.178 N 
ATOM     13  N   UNL     1      34.358 -19.800 -21.361  0.00  0.00    -0.173 NA
ATOM     14  N   UNL     1      35.830 -17.694 -23.794  0.00  0.00    -0.392 NA
ATOM     15  C   UNL     1      35.362 -20.027 -20.562  0.00  0.00    +0.124 C 
ATOM     16  C   UNL     1      36.737 -19.472 -20.745  0.00  0.00    +0.023 C 
ATOM     17  C   UNL     1      36.977 -18.679 -21.806  0.00  0.00    +0.025 C 
ATOM     18  C   UNL     1      35.890 -18.419 -22.694  0.00  0.00    +0.198 C 
ATOM     19  C   UNL     1      33.796 -18.601 -23.392  0.00  0.00    +0.173 C 
ATOM     20  C   UNL     1      34.535 -17.802 -24.231  0.00  0.00    +0.111 C 
ATOM     21  C   UNL     1      38.357 -18.108 -22.012  0.00  0.00    +0.035 C 
ATOM     22  C   UNL     1      34.097 -17.112 -25.453  0.00  0.00    +0.063 C 
ENDBRANCH  10  15
BRANCH   4  24
ATOM     23  N   UNL     1      35.960 -25.194 -11.398  0.00  0.00    +0.389 N 
ATOM     24  N   UNL     1      35.772 -24.170 -14.070  0.00  0.00    -0.311 N 
ATOM     25  C   UNL     1      37.117 -25.234 -12.330  0.00  0.00    -0.027 C 
ATOM     26  C   UNL     1      38.332 -26.036 -11.919  0.00  0.00    -0.020 C 
ATOM     27  C   UNL     1      38.397 -24.538 -11.917  0.00  0.00    -0.020 C 
ATOM     28  C   UNL     1      36.742 -25.235 -13.798  0.00  0.00    +0.071 C 
ATOM     29  C   UNL     1      35.098 -24.053 -11.712  0.00  0.00    -0.060 C 
ATOM     30  C   UNL     1      34.622 -24.111 -13.164  0.00  0.00    +0.067 C 
ATOM     31  H   UNL     1      36.300 -25.106 -10.441  0.00  0.00    -0.084 HD
ATOM     32  H   UNL     1      35.422 -26.055 -11.498  0.00  0.00    -0.084 HD
ENDBRANCH   4  24
TORSDOF 2
ENDMDL
MODEL 6
REMARK VINA RESULT:     -10.1      7.393     14.522
REMARK  Name = 118513932
REMARK  2 active torsions:
REMARK  status: ('A' for Active; 'I' for Inactive)
REMARK    1  A    between atoms: C_4  and  N_24
REMARK    2  A    between atoms: C_10  and  C_15
REMARK                            x       y       z     vdW  Elec       q    Type
REMARK                         _______ _______ _______ _____ _____    ______ ____
ROOT
ATOM      1  O   UNL     1      31.436 -10.245 -21.603  0.00  0.00    -0.274 OA
ATOM      2  N   UNL     1      33.269  -9.619 -22.936  0.00  0.00    -0.209 N 
ATOM      3  N   UNL     1      34.629 -11.332 -23.894  0.00  0.00    -0.389 NA
ATOM      4  C   UNL     1      33.804  -7.311 -23.355  0.00  0.00    +0.063 C 
ATOM      5  C   UNL     1      33.035  -8.256 -22.786  0.00  0.00    +0.089 C 
ATOM      6  C   UNL     1      34.927  -7.745 -24.159  0.00  0.00    +0.020 C 
ATOM      7  C   UNL     1      35.205  -9.040 -24.341  0.00  0.00    +0.050 C 
ATOM      8  C   UNL     1      34.346 -10.077 -23.707  0.00  0.00    +0.193 C 
ATOM      9  C   UNL     1      32.409 -10.524 -22.302  0.00  0.00    +0.242 C 
ATOM     10  C   UNL     1      33.806 -12.238 -23.287  0.00  0.00    +0.139 C 
ATOM     11  C   UNL     1      32.746 -11.950 -22.526  0.00  0.00    +0.146 C 
ENDROOT
BRANCH  10  15
ATOM     12  N   UNL     1      35.121 -15.588 -23.017  0.00  0.00    -0.178 N 
ATOM     13  N   UNL     1      34.955 -14.276 -22.710  0.00  0.00    -0.173 NA
ATOM     14  N   UNL     1      34.900 -17.555 -24.041  0.00  0.00    -0.392 NA
ATOM     15  C   UNL     1      34.105 -13.660 -23.483  0.00  0.00    +0.124 C 
ATOM     16  C   UNL     1      33.364 -14.300 -24.611  0.00  0.00    +0.023 C 
ATOM     17  C   UNL     1      33.574 -15.605 -24.865  0.00  0.00    +0.025 C 
ATOM     18  C   UNL     1      34.501 -16.297 -24.030  0.00  0.00    +0.198 C 
ATOM     19  C   UNL     1      35.953 -16.459 -22.365  0.00  0.00    +0.173 C 
ATOM     20  C   UNL     1      35.799 -17.661 -23.012  0.00  0.00    +0.111 C 
ATOM     21  C   UNL     1      32.838 -16.272 -25.998  0.00  0.00    +0.035 C 
ATOM     22  C   UNL     1      36.457 -18.943 -22.722  0.00  0.00    +0.063 C 
ENDBRANCH  10  15
BRANCH   4  24
ATOM     23  N   UNL     1      32.479  -3.326 -23.289  0.00  0.00    +0.389 N 
ATOM     24  N   UNL     1      33.587  -5.971 -23.218  0.00  0.00    -0.311 N 
ATOM     25  C   UNL     1      33.162  -3.916 -24.469  0.00  0.00    -0.027 C 
ATOM     26  C   UNL     1      33.466  -3.008 -25.640  0.00  0.00    -0.020 C 
ATOM     27  C   UNL     1      32.384  -4.039 -25.763  0.00  0.00    -0.020 C 
ATOM     28  C   UNL     1      34.175  -4.992 -24.138  0.00  0.00    +0.071 C 
ATOM     29  C   UNL     1      31.866  -4.382 -22.481  0.00  0.00    -0.060 C 
ATOM     30  C   UNL     1      32.908  -5.412 -22.044  0.00  0.00    +0.067 C 
ATOM     31  H   UNL     1      31.757  -2.680 -23.604  0.00  0.00    -0.084 HD
ATOM     32  H   UNL     1      33.166  -2.829 -22.721  0.00  0.00    -0.084 HD
ENDBRANCH   4  24
TORSDOF 2
ENDMDL
MODEL 7
REMARK VINA RESULT:     -10.1      6.468     11.356
REMARK  Name = 118513932
REMARK  2 active torsions:
REMARK  status: ('A' for Active; 'I' for Inactive)
REMARK    1  A    between atoms: C_4  and  N_24
REMARK    2  A    between atoms: C_10  and  C_15
REMARK                            x       y       z     vdW  Elec       q    Type
REMARK                         _______ _______ _______ _____ _____    ______ ____
ROOT
ATOM      1  O   UNL     1      32.426 -13.467 -20.480  0.00  0.00    -0.274 OA
ATOM      2  N   UNL     1      33.489 -13.218 -22.561  0.00  0.00    -0.209 N 
ATOM      3  N   UNL     1      33.540 -11.056 -23.573  0.00  0.00    -0.389 NA
ATOM      4  C   UNL     1      34.519 -15.076 -23.691  0.00  0.00    +0.063 C 
ATOM      5  C   UNL     1      33.842 -14.560 -22.650  0.00  0.00    +0.089 C 
ATOM      6  C   UNL     1      34.892 -14.182 -24.766  0.00  0.00    +0.020 C 
ATOM      7  C   UNL     1      34.582 -12.881 -24.741  0.00  0.00    +0.050 C 
ATOM      8  C   UNL     1      33.834 -12.321 -23.582  0.00  0.00    +0.193 C 
ATOM      9  C   UNL     1      32.783 -12.779 -21.434  0.00  0.00    +0.242 C 
ATOM     10  C   UNL     1      32.852 -10.599 -22.484  0.00  0.00    +0.139 C 
ATOM     11  C   UNL     1      32.458 -11.333 -21.439  0.00  0.00    +0.146 C 
ENDROOT
BRANCH  10  15
ATOM     12  N   UNL     1      32.003  -7.200 -23.354  0.00  0.00    -0.178 N 
ATOM     13  N   UNL     1      32.315  -8.507 -23.553  0.00  0.00    -0.173 NA
ATOM     14  N   UNL     1      31.567  -5.274 -22.323  0.00  0.00    -0.392 NA
ATOM     15  C   UNL     1      32.509  -9.174 -22.450  0.00  0.00    +0.124 C 
ATOM     16  C   UNL     1      32.408  -8.594 -21.077  0.00  0.00    +0.023 C 
ATOM     17  C   UNL     1      32.096  -7.291 -20.947  0.00  0.00    +0.025 C 
ATOM     18  C   UNL     1      31.880  -6.543 -22.143  0.00  0.00    +0.198 C 
ATOM     19  C   UNL     1      31.752  -6.283 -24.339  0.00  0.00    +0.173 C 
ATOM     20  C   UNL     1      31.486  -5.108 -23.681  0.00  0.00    +0.111 C 
ATOM     21  C   UNL     1      31.989  -6.683 -19.572  0.00  0.00    +0.035 C 
ATOM     22  C   UNL     1      31.150  -3.796 -24.255  0.00  0.00    +0.063 C 
ENDBRANCH  10  15
BRANCH   4  24
ATOM     23  N   UNL     1      34.973 -19.251 -23.602  0.00  0.00    +0.389 N 
ATOM     24  N   UNL     1      34.872 -16.391 -23.791  0.00  0.00    -0.311 N 
ATOM     25  C   UNL     1      35.410 -18.381 -22.480  0.00  0.00    -0.027 C 
ATOM     26  C   UNL     1      36.128 -19.030 -21.317  0.00  0.00    -0.020 C 
ATOM     27  C   UNL     1      34.723 -18.536 -21.139  0.00  0.00    -0.020 C 
ATOM     28  C   UNL     1      35.864 -16.997 -22.896  0.00  0.00    +0.071 C 
ATOM     29  C   UNL     1      33.932 -18.580 -24.384  0.00  0.00    -0.060 C 
ATOM     30  C   UNL     1      34.426 -17.230 -24.907  0.00  0.00    +0.067 C 
ATOM     31  H   UNL     1      34.603 -20.124 -23.228  0.00  0.00    -0.084 HD
ATOM     32  H   UNL     1      35.773 -19.442 -24.206  0.00  0.00    -0.084 HD
ENDBRANCH   4  24
TORSDOF 2
ENDMDL
MODEL 8
REMARK VINA RESULT:     -10.0      6.363     13.322
REMARK  Name = 118513932
REMARK  2 active torsions:
REMARK  status: ('A' for Active; 'I' for Inactive)
REMARK    1  A    between atoms: C_4  and  N_24
REMARK    2  A    between atoms: C_10  and  C_15
REMARK                            x       y       z     vdW  Elec       q    Type
REMARK                         _______ _______ _______ _____ _____    ______ ____
ROOT
ATOM      1  O   UNL     1      31.546 -11.599 -20.813  0.00  0.00    -0.274 OA
ATOM      2  N   UNL     1      33.044 -10.968 -22.511  0.00  0.00    -0.209 N 
ATOM      3  N   UNL     1      34.542 -12.608 -23.387  0.00  0.00    -0.389 NA
ATOM      4  C   UNL     1      33.107  -8.725 -23.379  0.00  0.00    +0.063 C 
ATOM      5  C   UNL     1      32.598  -9.651 -22.548  0.00  0.00    +0.089 C 
ATOM      6  C   UNL     1      34.170  -9.130 -24.275  0.00  0.00    +0.020 C 
ATOM      7  C   UNL     1      34.643 -10.380 -24.288  0.00  0.00    +0.050 C 
ATOM      8  C   UNL     1      34.072 -11.397 -23.363  0.00  0.00    +0.193 C 
ATOM      9  C   UNL     1      32.449 -11.856 -21.606  0.00  0.00    +0.242 C 
ATOM     10  C   UNL     1      33.980 -13.497 -22.516  0.00  0.00    +0.139 C 
ATOM     11  C   UNL     1      32.997 -13.233 -21.649  0.00  0.00    +0.146 C 
ENDROOT
BRANCH  10  15
ATOM     12  N   UNL     1      35.417 -16.682 -21.613  0.00  0.00    -0.178 N 
ATOM     13  N   UNL     1      34.984 -15.407 -21.442  0.00  0.00    -0.173 NA
ATOM     14  N   UNL     1      35.891 -18.632 -22.579  0.00  0.00    -0.392 NA
ATOM     15  C   UNL     1      34.494 -14.870 -22.524  0.00  0.00    +0.124 C 
ATOM     16  C   UNL     1      34.399 -15.559 -23.847  0.00  0.00    +0.023 C 
ATOM     17  C   UNL     1      34.846 -16.825 -23.950  0.00  0.00    +0.025 C 
ATOM     18  C   UNL     1      35.387 -17.430 -22.776  0.00  0.00    +0.198 C 
ATOM     19  C   UNL     1      35.972 -17.470 -20.640  0.00  0.00    +0.173 C 
ATOM     20  C   UNL     1      36.255 -18.664 -21.258  0.00  0.00    +0.111 C 
ATOM     21  C   UNL     1      34.761 -17.540 -25.274  0.00  0.00    +0.035 C 
ATOM     22  C   UNL     1      36.862 -19.870 -20.677  0.00  0.00    +0.063 C 
ENDBRANCH  10  15
BRANCH   4  24
ATOM     23  N   UNL     1      32.341  -4.611 -23.021  0.00  0.00    +0.389 N 
ATOM     24  N   UNL     1      32.679  -7.430 -23.427  0.00  0.00    -0.311 N 
ATOM     25  C   UNL     1      31.793  -5.607 -22.063  0.00  0.00    -0.027 C 
ATOM     26  C   UNL     1      30.853  -5.113 -20.987  0.00  0.00    -0.020 C 
ATOM     27  C   UNL     1      32.243  -5.538 -20.619  0.00  0.00    -0.020 C 
ATOM     28  C   UNL     1      31.515  -6.970 -22.663  0.00  0.00    +0.071 C 
ATOM     29  C   UNL     1      33.539  -5.143 -23.672  0.00  0.00    -0.060 C 
ATOM     30  C   UNL     1      33.236  -6.464 -24.379  0.00  0.00    +0.067 C 
ATOM     31  H   UNL     1      32.581  -3.757 -22.519  0.00  0.00    -0.084 HD
ATOM     32  H   UNL     1      31.637  -4.411 -23.731  0.00  0.00    -0.084 HD
ENDBRANCH   4  24
TORSDOF 2
ENDMDL
MODEL 9
REMARK VINA RESULT:      -9.6      6.393     13.259
REMARK  Name = 118513932
REMARK  2 active torsions:
REMARK  status: ('A' for Active; 'I' for Inactive)
REMARK    1  A    between atoms: C_4  and  N_24
REMARK    2  A    between atoms: C_10  and  C_15
REMARK                            x       y       z     vdW  Elec       q    Type
REMARK                         _______ _______ _______ _____ _____    ______ ____
ROOT
ATOM      1  O   UNL     1      34.666 -11.256 -25.792  0.00  0.00    -0.274 OA
ATOM      2  N   UNL     1      33.524 -11.156 -23.740  0.00  0.00    -0.209 N 
ATOM      3  N   UNL     1      33.476 -13.102 -22.357  0.00  0.00    -0.389 NA
ATOM      4  C   UNL     1      32.409  -9.155 -23.005  0.00  0.00    +0.063 C 
ATOM      5  C   UNL     1      33.139  -9.830 -23.909  0.00  0.00    +0.089 C 
ATOM      6  C   UNL     1      32.008  -9.852 -21.801  0.00  0.00    +0.020 C 
ATOM      7  C   UNL     1      32.346 -11.127 -21.579  0.00  0.00    +0.050 C 
ATOM      8  C   UNL     1      33.156 -11.864 -22.587  0.00  0.00    +0.193 C 
ATOM      9  C   UNL     1      34.284 -11.770 -24.743  0.00  0.00    +0.242 C 
ATOM     10  C   UNL     1      34.219 -13.727 -23.318  0.00  0.00    +0.139 C 
ATOM     11  C   UNL     1      34.641 -13.182 -24.463  0.00  0.00    +0.146 C 
ENDROOT
BRANCH  10  15
ATOM     12  N   UNL     1      35.407 -16.819 -21.884  0.00  0.00    -0.178 N 
ATOM     13  N   UNL     1      35.119 -15.493 -21.948  0.00  0.00    -0.173 NA
ATOM     14  N   UNL     1      35.601 -18.961 -22.465  0.00  0.00    -0.392 NA
ATOM     15  C   UNL     1      34.592 -15.125 -23.082  0.00  0.00    +0.124 C 
ATOM     16  C   UNL     1      34.316 -16.042 -24.229  0.00  0.00    +0.023 C 
ATOM     17  C   UNL     1      34.625 -17.346 -24.102  0.00  0.00    +0.025 C 
ATOM     18  C   UNL     1      35.203 -17.769 -22.868  0.00  0.00    +0.198 C 
ATOM     19  C   UNL     1      35.963 -17.461 -20.810  0.00  0.00    +0.173 C 
ATOM     20  C   UNL     1      36.072 -18.776 -21.191  0.00  0.00    +0.111 C 
ATOM     21  C   UNL     1      34.356 -18.290 -25.245  0.00  0.00    +0.035 C 
ATOM     22  C   UNL     1      36.605 -19.908 -20.419  0.00  0.00    +0.063 C 
ENDBRANCH  10  15
BRANCH   4  24
ATOM     23  N   UNL     1      31.909  -4.988 -23.181  0.00  0.00    +0.389 N 
ATOM     24  N   UNL     1      32.024  -7.854 -23.157  0.00  0.00    -0.311 N 
ATOM     25  C   UNL     1      31.648  -5.767 -21.943  0.00  0.00    -0.027 C 
ATOM     26  C   UNL     1      31.093  -5.030 -20.744  0.00  0.00    -0.020 C 
ATOM     27  C   UNL     1      32.516  -5.502 -20.730  0.00  0.00    -0.020 C 
ATOM     28  C   UNL     1      31.161  -7.182 -22.180  0.00  0.00    +0.071 C 
ATOM     29  C   UNL     1      32.838  -5.715 -24.048  0.00  0.00    -0.060 C 
ATOM     30  C   UNL     1      32.295  -7.104 -24.387  0.00  0.00    +0.067 C 
ATOM     31  H   UNL     1      32.314  -4.086 -22.933  0.00  0.00    -0.084 HD
ATOM     32  H   UNL     1      31.029  -4.849 -23.678  0.00  0.00    -0.084 HD
ENDBRANCH   4  24
TORSDOF 2
ENDMDL
