MODEL 1
REMARK VINA RESULT:     -12.5      0.000      0.000
REMARK  Name = 5288711
REMARK  4 active torsions:
REMARK  status: ('A' for Active; 'I' for Inactive)
REMARK    1  A    between atoms: C_1  and  S_7
REMARK    2  A    between atoms: C_2  and  N_17
REMARK    3  A    between atoms: S_7  and  N_11
REMARK    4  A    between atoms: N_17  and  C_25
REMARK                            x       y       z     vdW  Elec       q    Type
REMARK                         _______ _______ _______ _____ _____    ______ ____
ROOT
ATOM      1  C   UNL     1      34.523 -21.711 -19.006  0.00  0.00    +0.125 C 
ATOM      2  C   UNL     1      35.668 -19.790 -20.683  0.00  0.00    +0.048 C 
ATOM      3  C   UNL     1      33.709 -20.898 -19.794  0.00  0.00    +0.021 C 
ATOM      4  C   UNL     1      35.909 -21.566 -19.055  0.00  0.00    +0.021 C 
ATOM      5  C   UNL     1      34.280 -19.940 -20.630  0.00  0.00    +0.016 C 
ATOM      6  C   UNL     1      36.481 -20.608 -19.892  0.00  0.00    +0.016 C 
ENDROOT
BRANCH   1   7
ATOM      7  S   UNL     1      33.809 -22.911 -17.958  0.00  0.00    +0.075 S 
ATOM      8  O   UNL     1      33.636 -24.143 -18.717  0.00  0.00    -0.150 OA
ATOM      9  O   UNL     1      34.579 -22.933 -16.721  0.00  0.00    -0.150 OA
BRANCH   7  11
ATOM     10  S   UNL     1      29.940 -22.912 -16.315  0.00  0.00    -0.050 S 
ATOM     11  N   UNL     1      32.262 -22.220 -17.667  0.00  0.00    -0.194 N 
ATOM     12  N   UNL     1      32.305 -22.705 -15.293  0.00  0.00    -0.221 NA
ATOM     13  C   UNL     1      31.613 -22.599 -16.393  0.00  0.00    +0.179 C 
ATOM     14  C   UNL     1      30.120 -23.228 -14.639  0.00  0.00    +0.059 C 
ATOM     15  C   UNL     1      31.441 -23.068 -14.278  0.00  0.00    +0.108 C 
ATOM     16  H   UNL     1      31.834 -21.607 -18.308  0.00  0.00    +0.176 HD
ENDBRANCH   7  11
ENDBRANCH   1   7
BRANCH   2  17
ATOM     17  N   UNL     1      36.243 -18.824 -21.525  0.00  0.00    -0.311 N 
ATOM     18  H   UNL     1      37.029 -19.120 -22.040  0.00  0.00    +0.152 HD
BRANCH  17  25
ATOM     19  O   UNL     1      35.149 -18.998 -24.205  0.00  0.00    -0.270 OA
ATOM     20  N   UNL     1      34.363 -16.880 -24.898  0.00  0.00    -0.280 N 
ATOM     21  C   UNL     1      34.863 -15.631 -23.032  0.00  0.00    +0.019 C 
ATOM     22  C   UNL     1      35.280 -17.011 -22.805  0.00  0.00    +0.069 C 
ATOM     23  C   UNL     1      34.313 -15.608 -24.317  0.00  0.00    +0.051 C 
ATOM     24  C   UNL     1      34.947 -17.811 -24.031  0.00  0.00    +0.251 C 
ATOM     25  C   UNL     1      35.860 -17.537 -21.724  0.00  0.00    +0.066 C 
ATOM     26  C   UNL     1      34.921 -14.482 -22.268  0.00  0.00    +0.001 C 
ATOM     27  C   UNL     1      33.807 -14.455 -24.884  0.00  0.00    +0.015 C 
ATOM     28  C   UNL     1      34.412 -13.302 -22.822  0.00  0.00    +0.000 C 
ATOM     29  C   UNL     1      33.861 -13.289 -24.117  0.00  0.00    +0.001 C 
ATOM     30  H   UNL     1      34.032 -17.094 -25.799  0.00  0.00    +0.155 HD
ENDBRANCH  17  25
ENDBRANCH   2  17
TORSDOF 4
ENDMDL
MODEL 2
REMARK VINA RESULT:     -11.4      2.042      2.281
REMARK  Name = 5288711
REMARK  4 active torsions:
REMARK  status: ('A' for Active; 'I' for Inactive)
REMARK    1  A    between atoms: C_1  and  S_7
REMARK    2  A    between atoms: C_2  and  N_17
REMARK    3  A    between atoms: S_7  and  N_11
REMARK    4  A    between atoms: N_17  and  C_25
REMARK                            x       y       z     vdW  Elec       q    Type
REMARK                         _______ _______ _______ _____ _____    ______ ____
ROOT
ATOM      1  C   UNL     1      34.165 -21.840 -18.593  0.00  0.00    +0.125 C 
ATOM      2  C   UNL     1      35.496 -20.104 -20.334  0.00  0.00    +0.048 C 
ATOM      3  C   UNL     1      33.436 -21.029 -19.463  0.00  0.00    +0.021 C 
ATOM      4  C   UNL     1      35.558 -21.785 -18.592  0.00  0.00    +0.021 C 
ATOM      5  C   UNL     1      34.100 -20.164 -20.332  0.00  0.00    +0.016 C 
ATOM      6  C   UNL     1      36.223 -20.919 -19.461  0.00  0.00    +0.016 C 
ENDROOT
BRANCH   1   7
ATOM      7  S   UNL     1      33.334 -22.924 -17.505  0.00  0.00    +0.075 S 
ATOM      8  O   UNL     1      31.906 -22.636 -17.568  0.00  0.00    -0.150 OA
ATOM      9  O   UNL     1      33.806 -24.275 -17.780  0.00  0.00    -0.150 OA
BRANCH   7  11
ATOM     10  S   UNL     1      34.620 -23.541 -13.552  0.00  0.00    -0.050 S 
ATOM     11  N   UNL     1      33.937 -22.396 -15.985  0.00  0.00    -0.194 N 
ATOM     12  N   UNL     1      35.622 -24.133 -15.860  0.00  0.00    -0.221 NA
ATOM     13  C   UNL     1      34.762 -23.373 -15.242  0.00  0.00    +0.179 C 
ATOM     14  C   UNL     1      35.827 -24.758 -13.614  0.00  0.00    +0.059 C 
ATOM     15  C   UNL     1      36.239 -24.934 -14.919  0.00  0.00    +0.108 C 
ATOM     16  H   UNL     1      33.746 -21.497 -15.630  0.00  0.00    +0.176 HD
ENDBRANCH   7  11
ENDBRANCH   1   7
BRANCH   2  17
ATOM     17  N   UNL     1      36.165 -19.232 -21.209  0.00  0.00    -0.311 N 
ATOM     18  H   UNL     1      36.977 -19.592 -21.632  0.00  0.00    +0.152 HD
BRANCH  17  25
ATOM     19  O   UNL     1      35.105 -19.642 -23.876  0.00  0.00    -0.270 OA
ATOM     20  N   UNL     1      34.420 -17.579 -24.802  0.00  0.00    -0.280 N 
ATOM     21  C   UNL     1      34.944 -16.162 -23.067  0.00  0.00    +0.019 C 
ATOM     22  C   UNL     1      35.298 -17.526 -22.689  0.00  0.00    +0.069 C 
ATOM     23  C   UNL     1      34.415 -16.251 -24.358  0.00  0.00    +0.051 C 
ATOM     24  C   UNL     1      34.951 -18.436 -23.831  0.00  0.00    +0.251 C 
ATOM     25  C   UNL     1      35.839 -17.959 -21.548  0.00  0.00    +0.066 C 
ATOM     26  C   UNL     1      35.038 -14.942 -22.426  0.00  0.00    +0.001 C 
ATOM     27  C   UNL     1      33.966 -15.145 -25.052  0.00  0.00    +0.015 C 
ATOM     28  C   UNL     1      34.588 -13.807 -23.110  0.00  0.00    +0.000 C 
ATOM     29  C   UNL     1      34.057 -13.908 -24.409  0.00  0.00    +0.001 C 
ATOM     30  H   UNL     1      34.094 -17.872 -25.682  0.00  0.00    +0.155 HD
ENDBRANCH  17  25
ENDBRANCH   2  17
TORSDOF 4
ENDMDL
MODEL 3
REMARK VINA RESULT:     -11.4      2.740      9.559
REMARK  Name = 5288711
REMARK  4 active torsions:
REMARK  status: ('A' for Active; 'I' for Inactive)
REMARK    1  A    between atoms: C_1  and  S_7
REMARK    2  A    between atoms: C_2  and  N_17
REMARK    3  A    between atoms: S_7  and  N_11
REMARK    4  A    between atoms: N_17  and  C_25
REMARK                            x       y       z     vdW  Elec       q    Type
REMARK                         _______ _______ _______ _____ _____    ______ ____
ROOT
ATOM      1  C   UNL     1      35.696 -19.600 -20.626  0.00  0.00    +0.125 C 
ATOM      2  C   UNL     1      34.593 -21.854 -19.395  0.00  0.00    +0.048 C 
ATOM      3  C   UNL     1      34.314 -19.789 -20.626  0.00  0.00    +0.021 C 
ATOM      4  C   UNL     1      36.528 -20.535 -20.011  0.00  0.00    +0.021 C 
ATOM      5  C   UNL     1      33.764 -20.913 -20.011  0.00  0.00    +0.016 C 
ATOM      6  C   UNL     1      35.978 -21.661 -19.396  0.00  0.00    +0.016 C 
ENDROOT
BRANCH   1   7
ATOM      7  S   UNL     1      36.386 -18.192 -21.395  0.00  0.00    +0.075 S 
ATOM      8  O   UNL     1      35.696 -17.009 -20.897  0.00  0.00    -0.150 OA
ATOM      9  O   UNL     1      37.835 -18.284 -21.267  0.00  0.00    -0.150 OA
BRANCH   7  11
ATOM     10  S   UNL     1      33.927 -17.595 -24.750  0.00  0.00    -0.050 S 
ATOM     11  N   UNL     1      35.930 -18.451 -23.032  0.00  0.00    -0.194 N 
ATOM     12  N   UNL     1      35.613 -16.093 -23.493  0.00  0.00    -0.221 NA
ATOM     13  C   UNL     1      35.238 -17.325 -23.696  0.00  0.00    +0.179 C 
ATOM     14  C   UNL     1      33.819 -15.899 -24.983  0.00  0.00    +0.059 C 
ATOM     15  C   UNL     1      34.793 -15.268 -24.237  0.00  0.00    +0.108 C 
ATOM     16  H   UNL     1      36.119 -19.296 -23.500  0.00  0.00    +0.176 HD
ENDBRANCH   7  11
ENDBRANCH   1   7
BRANCH   2  17
ATOM     17  N   UNL     1      34.038 -22.986 -18.776  0.00  0.00    -0.311 N 
ATOM     18  H   UNL     1      34.400 -23.854 -19.070  0.00  0.00    +0.152 HD
BRANCH  17  25
ATOM     19  O   UNL     1      35.649 -23.160 -16.372  0.00  0.00    -0.270 OA
ATOM     20  N   UNL     1      34.255 -23.280 -14.469  0.00  0.00    -0.280 N 
ATOM     21  C   UNL     1      32.188 -23.198 -15.474  0.00  0.00    +0.019 C 
ATOM     22  C   UNL     1      33.219 -23.135 -16.505  0.00  0.00    +0.069 C 
ATOM     23  C   UNL     1      32.871 -23.285 -14.258  0.00  0.00    +0.051 C 
ATOM     24  C   UNL     1      34.560 -23.190 -15.831  0.00  0.00    +0.251 C 
ATOM     25  C   UNL     1      33.069 -23.044 -17.828  0.00  0.00    +0.066 C 
ATOM     26  C   UNL     1      30.807 -23.187 -15.509  0.00  0.00    +0.001 C 
ATOM     27  C   UNL     1      32.215 -23.363 -13.046  0.00  0.00    +0.015 C 
ATOM     28  C   UNL     1      30.121 -23.265 -14.291  0.00  0.00    +0.000 C 
ATOM     29  C   UNL     1      30.819 -23.352 -13.072  0.00  0.00    +0.001 C 
ATOM     30  H   UNL     1      34.926 -23.333 -13.752  0.00  0.00    +0.155 HD
ENDBRANCH  17  25
ENDBRANCH   2  17
TORSDOF 4
ENDMDL
MODEL 4
REMARK VINA RESULT:     -11.3      4.467      6.312
REMARK  Name = 5288711
REMARK  4 active torsions:
REMARK  status: ('A' for Active; 'I' for Inactive)
REMARK    1  A    between atoms: C_1  and  S_7
REMARK    2  A    between atoms: C_2  and  N_17
REMARK    3  A    between atoms: S_7  and  N_11
REMARK    4  A    between atoms: N_17  and  C_25
REMARK                            x       y       z     vdW  Elec       q    Type
REMARK                         _______ _______ _______ _____ _____    ______ ____
ROOT
ATOM      1  C   UNL     1      36.421 -23.159 -14.094  0.00  0.00    +0.125 C 
ATOM      2  C   UNL     1      35.594 -22.492 -16.680  0.00  0.00    +0.048 C 
ATOM      3  C   UNL     1      35.143 -23.509 -14.531  0.00  0.00    +0.021 C 
ATOM      4  C   UNL     1      37.286 -22.476 -14.949  0.00  0.00    +0.021 C 
ATOM      5  C   UNL     1      34.731 -23.178 -15.821  0.00  0.00    +0.016 C 
ATOM      6  C   UNL     1      36.874 -22.143 -16.239  0.00  0.00    +0.016 C 
ENDROOT
BRANCH   1   7
ATOM      7  S   UNL     1      36.937 -23.574 -12.479  0.00  0.00    +0.075 S 
ATOM      8  O   UNL     1      38.137 -22.807 -12.167  0.00  0.00    -0.150 OA
ATOM      9  O   UNL     1      35.776 -23.477 -11.604  0.00  0.00    -0.150 OA
BRANCH   7  11
ATOM     10  S   UNL     1      38.584 -26.787 -14.631  0.00  0.00    -0.050 S 
ATOM     11  N   UNL     1      37.375 -25.224 -12.684  0.00  0.00    -0.194 N 
ATOM     12  N   UNL     1      39.605 -24.709 -13.480  0.00  0.00    -0.221 NA
ATOM     13  C   UNL     1      38.554 -25.479 -13.539  0.00  0.00    +0.179 C 
ATOM     14  C   UNL     1      40.163 -26.305 -15.098  0.00  0.00    +0.059 C 
ATOM     15  C   UNL     1      40.536 -25.187 -14.382  0.00  0.00    +0.108 C 
ATOM     16  H   UNL     1      36.871 -25.954 -12.257  0.00  0.00    +0.176 HD
ENDBRANCH   7  11
ENDBRANCH   1   7
BRANCH   2  17
ATOM     17  N   UNL     1      35.178 -22.158 -17.980  0.00  0.00    -0.311 N 
ATOM     18  H   UNL     1      34.345 -22.584 -18.285  0.00  0.00    +0.152 HD
BRANCH  17  25
ATOM     19  O   UNL     1      32.875 -21.259 -19.494  0.00  0.00    -0.270 OA
ATOM     20  N   UNL     1      33.554 -19.751 -21.182  0.00  0.00    -0.280 N 
ATOM     21  C   UNL     1      35.822 -19.712 -20.804  0.00  0.00    +0.019 C 
ATOM     22  C   UNL     1      35.196 -20.611 -19.839  0.00  0.00    +0.069 C 
ATOM     23  C   UNL     1      34.780 -19.218 -21.594  0.00  0.00    +0.051 C 
ATOM     24  C   UNL     1      33.717 -20.624 -20.101  0.00  0.00    +0.251 C 
ATOM     25  C   UNL     1      35.773 -21.325 -18.871  0.00  0.00    +0.066 C 
ATOM     26  C   UNL     1      37.128 -19.321 -21.031  0.00  0.00    +0.001 C 
ATOM     27  C   UNL     1      34.995 -18.328 -22.627  0.00  0.00    +0.015 C 
ATOM     28  C   UNL     1      37.368 -18.419 -22.073  0.00  0.00    +0.000 C 
ATOM     29  C   UNL     1      36.312 -17.927 -22.863  0.00  0.00    +0.001 C 
ATOM     30  H   UNL     1      32.688 -19.540 -21.599  0.00  0.00    +0.155 HD
ENDBRANCH  17  25
ENDBRANCH   2  17
TORSDOF 4
ENDMDL
MODEL 5
REMARK VINA RESULT:     -11.0      3.934      6.811
REMARK  Name = 5288711
REMARK  4 active torsions:
REMARK  status: ('A' for Active; 'I' for Inactive)
REMARK    1  A    between atoms: C_1  and  S_7
REMARK    2  A    between atoms: C_2  and  N_17
REMARK    3  A    between atoms: S_7  and  N_11
REMARK    4  A    between atoms: N_17  and  C_25
REMARK                            x       y       z     vdW  Elec       q    Type
REMARK                         _______ _______ _______ _____ _____    ______ ____
ROOT
ATOM      1  C   UNL     1      35.284 -16.686 -22.932  0.00  0.00    +0.125 C 
ATOM      2  C   UNL     1      34.147 -14.299 -23.841  0.00  0.00    +0.048 C 
ATOM      3  C   UNL     1      35.127 -15.610 -22.058  0.00  0.00    +0.021 C 
ATOM      4  C   UNL     1      34.873 -16.571 -24.259  0.00  0.00    +0.021 C 
ATOM      5  C   UNL     1      34.560 -14.420 -22.511  0.00  0.00    +0.016 C 
ATOM      6  C   UNL     1      34.305 -15.380 -24.713  0.00  0.00    +0.016 C 
ENDROOT
BRANCH   1   7
ATOM      7  S   UNL     1      35.995 -18.177 -22.365  0.00  0.00    +0.075 S 
ATOM      8  O   UNL     1      35.835 -19.188 -23.402  0.00  0.00    -0.150 OA
ATOM      9  O   UNL     1      37.329 -17.868 -21.864  0.00  0.00    -0.150 OA
BRANCH   7  11
ATOM     10  S   UNL     1      33.997 -20.853 -19.814  0.00  0.00    -0.050 S 
ATOM     11  N   UNL     1      34.956 -18.562 -21.051  0.00  0.00    -0.194 N 
ATOM     12  N   UNL     1      36.479 -20.193 -20.105  0.00  0.00    -0.221 NA
ATOM     13  C   UNL     1      35.250 -19.828 -20.344  0.00  0.00    +0.179 C 
ATOM     14  C   UNL     1      35.188 -21.917 -19.190  0.00  0.00    +0.059 C 
ATOM     15  C   UNL     1      36.443 -21.402 -19.437  0.00  0.00    +0.108 C 
ATOM     16  H   UNL     1      34.210 -17.977 -20.785  0.00  0.00    +0.176 HD
ENDBRANCH   7  11
ENDBRANCH   1   7
BRANCH   2  17
ATOM     17  N   UNL     1      33.576 -13.100 -24.297  0.00  0.00    -0.311 N 
ATOM     18  H   UNL     1      32.665 -13.173 -24.663  0.00  0.00    +0.152 HD
BRANCH  17  25
ATOM     19  O   UNL     1      31.838 -11.763 -22.401  0.00  0.00    -0.270 OA
ATOM     20  N   UNL     1      32.496  -9.508 -22.149  0.00  0.00    -0.280 N 
ATOM     21  C   UNL     1      34.284  -9.443 -23.594  0.00  0.00    +0.019 C 
ATOM     22  C   UNL     1      33.717 -10.788 -23.601  0.00  0.00    +0.069 C 
ATOM     23  C   UNL     1      33.505  -8.707 -22.697  0.00  0.00    +0.051 C 
ATOM     24  C   UNL     1      32.552 -10.811 -22.654  0.00  0.00    +0.251 C 
ATOM     25  C   UNL     1      34.112 -11.854 -24.300  0.00  0.00    +0.066 C 
ATOM     26  C   UNL     1      35.343  -8.854 -24.258  0.00  0.00    +0.001 C 
ATOM     27  C   UNL     1      33.746  -7.375 -22.428  0.00  0.00    +0.015 C 
ATOM     28  C   UNL     1      35.606  -7.504 -24.001  0.00  0.00    +0.000 C 
ATOM     29  C   UNL     1      34.816  -6.772 -23.095  0.00  0.00    +0.001 C 
ATOM     30  H   UNL     1      31.832  -9.194 -21.495  0.00  0.00    +0.155 HD
ENDBRANCH  17  25
ENDBRANCH   2  17
TORSDOF 4
ENDMDL
MODEL 6
REMARK VINA RESULT:     -10.9      5.237     10.243
REMARK  Name = 5288711
REMARK  4 active torsions:
REMARK  status: ('A' for Active; 'I' for Inactive)
REMARK    1  A    between atoms: C_1  and  S_7
REMARK    2  A    between atoms: C_2  and  N_17
REMARK    3  A    between atoms: S_7  and  N_11
REMARK    4  A    between atoms: N_17  and  C_25
REMARK                            x       y       z     vdW  Elec       q    Type
REMARK                         _______ _______ _______ _____ _____    ______ ____
ROOT
ATOM      1  C   UNL     1      34.391 -13.033 -23.712  0.00  0.00    +0.125 C 
ATOM      2  C   UNL     1      35.158 -15.667 -23.171  0.00  0.00    +0.048 C 
ATOM      3  C   UNL     1      34.610 -13.440 -22.395  0.00  0.00    +0.021 C 
ATOM      4  C   UNL     1      34.556 -13.940 -24.758  0.00  0.00    +0.021 C 
ATOM      5  C   UNL     1      34.993 -14.754 -22.125  0.00  0.00    +0.016 C 
ATOM      6  C   UNL     1      34.939 -15.255 -24.489  0.00  0.00    +0.016 C 
ENDROOT
BRANCH   1   7
ATOM      7  S   UNL     1      33.912 -11.389 -24.050  0.00  0.00    +0.075 S 
ATOM      8  O   UNL     1      35.041 -10.512 -23.767  0.00  0.00    -0.150 OA
ATOM      9  O   UNL     1      33.302 -11.369 -25.374  0.00  0.00    -0.150 OA
BRANCH   7  11
ATOM     10  S   UNL     1      32.162  -9.290 -20.857  0.00  0.00    -0.050 S 
ATOM     11  N   UNL     1      32.706 -11.141 -22.851  0.00  0.00    -0.194 N 
ATOM     12  N   UNL     1      32.423  -8.793 -23.380  0.00  0.00    -0.221 NA
ATOM     13  C   UNL     1      32.445  -9.733 -22.478  0.00  0.00    +0.179 C 
ATOM     14  C   UNL     1      31.988  -7.665 -21.376  0.00  0.00    +0.059 C 
ATOM     15  C   UNL     1      32.158  -7.596 -22.743  0.00  0.00    +0.108 C 
ATOM     16  H   UNL     1      32.217 -11.890 -22.438  0.00  0.00    +0.176 HD
ENDBRANCH   7  11
ENDBRANCH   1   7
BRANCH   2  17
ATOM     17  N   UNL     1      35.543 -16.990 -22.898  0.00  0.00    -0.311 N 
ATOM     18  H   UNL     1      36.402 -17.273 -23.288  0.00  0.00    +0.152 HD
BRANCH  17  25
ATOM     19  O   UNL     1      37.768 -18.261 -21.542  0.00  0.00    -0.270 OA
ATOM     20  N   UNL     1      36.980 -19.996 -20.145  0.00  0.00    -0.280 N 
ATOM     21  C   UNL     1      34.721 -19.845 -20.544  0.00  0.00    +0.019 C 
ATOM     22  C   UNL     1      35.411 -18.830 -21.334  0.00  0.00    +0.069 C 
ATOM     23  C   UNL     1      35.720 -20.524 -19.842  0.00  0.00    +0.051 C 
ATOM     24  C   UNL     1      36.883 -18.943 -21.061  0.00  0.00    +0.251 C 
ATOM     25  C   UNL     1      34.889 -17.929 -22.169  0.00  0.00    +0.066 C 
ATOM     26  C   UNL     1      33.392 -20.198 -20.401  0.00  0.00    +0.001 C 
ATOM     27  C   UNL     1      35.441 -21.567 -18.981  0.00  0.00    +0.015 C 
ATOM     28  C   UNL     1      33.086 -21.252 -19.532  0.00  0.00    +0.000 C 
ATOM     29  C   UNL     1      34.100 -21.929 -18.830  0.00  0.00    +0.001 C 
ATOM     30  H   UNL     1      37.826 -20.323 -19.764  0.00  0.00    +0.155 HD
ENDBRANCH  17  25
ENDBRANCH   2  17
TORSDOF 4
ENDMDL
MODEL 7
REMARK VINA RESULT:     -10.8      3.494      4.613
REMARK  Name = 5288711
REMARK  4 active torsions:
REMARK  status: ('A' for Active; 'I' for Inactive)
REMARK    1  A    between atoms: C_1  and  S_7
REMARK    2  A    between atoms: C_2  and  N_17
REMARK    3  A    between atoms: S_7  and  N_11
REMARK    4  A    between atoms: N_17  and  C_25
REMARK                            x       y       z     vdW  Elec       q    Type
REMARK                         _______ _______ _______ _____ _____    ______ ____
ROOT
ATOM      1  C   UNL     1      35.081 -22.892 -16.245  0.00  0.00    +0.125 C 
ATOM      2  C   UNL     1      35.981 -21.416 -18.442  0.00  0.00    +0.048 C 
ATOM      3  C   UNL     1      36.365 -22.346 -16.241  0.00  0.00    +0.021 C 
ATOM      4  C   UNL     1      34.247 -22.700 -17.346  0.00  0.00    +0.021 C 
ATOM      5  C   UNL     1      36.814 -21.610 -17.337  0.00  0.00    +0.016 C 
ATOM      6  C   UNL     1      34.695 -21.963 -18.442  0.00  0.00    +0.016 C 
ENDROOT
BRANCH   1   7
ATOM      7  S   UNL     1      34.519 -23.815 -14.874  0.00  0.00    +0.075 S 
ATOM      8  O   UNL     1      33.075 -23.650 -14.767  0.00  0.00    -0.150 OA
ATOM      9  O   UNL     1      35.082 -25.155 -14.982  0.00  0.00    -0.150 OA
BRANCH   7  11
ATOM     10  S   UNL     1      36.682 -23.612 -11.276  0.00  0.00    -0.050 S 
ATOM     11  N   UNL     1      35.269 -22.973 -13.577  0.00  0.00    -0.194 N 
ATOM     12  N   UNL     1      37.314 -24.267 -13.695  0.00  0.00    -0.221 NA
ATOM     13  C   UNL     1      36.438 -23.639 -12.962  0.00  0.00    +0.179 C 
ATOM     14  C   UNL     1      38.110 -24.532 -11.511  0.00  0.00    +0.059 C 
ATOM     15  C   UNL     1      38.282 -24.783 -12.856  0.00  0.00    +0.108 C 
ATOM     16  H   UNL     1      34.941 -22.099 -13.262  0.00  0.00    +0.176 HD
ENDBRANCH   7  11
ENDBRANCH   1   7
BRANCH   2  17
ATOM     17  N   UNL     1      36.433 -20.674 -19.546  0.00  0.00    -0.311 N 
ATOM     18  H   UNL     1      37.380 -20.403 -19.520  0.00  0.00    +0.152 HD
BRANCH  17  25
ATOM     19  O   UNL     1      37.934 -18.315 -20.313  0.00  0.00    -0.270 OA
ATOM     20  N   UNL     1      36.983 -17.342 -22.244  0.00  0.00    -0.280 N 
ATOM     21  C   UNL     1      35.238 -18.794 -22.613  0.00  0.00    +0.019 C 
ATOM     22  C   UNL     1      35.975 -19.229 -21.431  0.00  0.00    +0.069 C 
ATOM     23  C   UNL     1      35.892 -17.645 -23.067  0.00  0.00    +0.051 C 
ATOM     24  C   UNL     1      37.109 -18.270 -21.205  0.00  0.00    +0.251 C 
ATOM     25  C   UNL     1      35.739 -20.280 -20.644  0.00  0.00    +0.066 C 
ATOM     26  C   UNL     1      34.128 -19.283 -23.275  0.00  0.00    +0.001 C 
ATOM     27  C   UNL     1      35.472 -16.947 -24.181  0.00  0.00    +0.015 C 
ATOM     28  C   UNL     1      33.684 -18.590 -24.407  0.00  0.00    +0.000 C 
ATOM     29  C   UNL     1      34.350 -17.435 -24.856  0.00  0.00    +0.001 C 
ATOM     30  H   UNL     1      37.583 -16.574 -22.378  0.00  0.00    +0.155 HD
ENDBRANCH  17  25
ENDBRANCH   2  17
TORSDOF 4
ENDMDL
MODEL 8
REMARK VINA RESULT:     -10.8      7.414     12.019
REMARK  Name = 5288711
REMARK  4 active torsions:
REMARK  status: ('A' for Active; 'I' for Inactive)
REMARK    1  A    between atoms: C_1  and  S_7
REMARK    2  A    between atoms: C_2  and  N_17
REMARK    3  A    between atoms: S_7  and  N_11
REMARK    4  A    between atoms: N_17  and  C_25
REMARK                            x       y       z     vdW  Elec       q    Type
REMARK                         _______ _______ _______ _____ _____    ______ ____
ROOT
ATOM      1  C   UNL     1      32.734  -9.707 -22.671  0.00  0.00    +0.125 C 
ATOM      2  C   UNL     1      33.867 -12.109 -23.545  0.00  0.00    +0.048 C 
ATOM      3  C   UNL     1      32.369 -10.911 -22.069  0.00  0.00    +0.021 C 
ATOM      4  C   UNL     1      33.666  -9.701 -23.709  0.00  0.00    +0.021 C 
ATOM      5  C   UNL     1      32.934 -12.109 -22.505  0.00  0.00    +0.016 C 
ATOM      6  C   UNL     1      34.232 -10.899 -24.146  0.00  0.00    +0.016 C 
ENDROOT
BRANCH   1   7
ATOM      7  S   UNL     1      32.027  -8.206 -22.126  0.00  0.00    +0.075 S 
ATOM      8  O   UNL     1      30.821  -7.955 -22.905  0.00  0.00    -0.150 OA
ATOM      9  O   UNL     1      31.944  -8.259 -20.672  0.00  0.00    -0.150 OA
BRANCH   7  11
ATOM     10  S   UNL     1      33.381  -4.769 -24.129  0.00  0.00    -0.050 S 
ATOM     11  N   UNL     1      33.235  -7.078 -22.599  0.00  0.00    -0.194 N 
ATOM     12  N   UNL     1      31.877  -5.144 -22.061  0.00  0.00    -0.221 NA
ATOM     13  C   UNL     1      32.769  -5.694 -22.836  0.00  0.00    +0.179 C 
ATOM     14  C   UNL     1      32.364  -3.480 -23.633  0.00  0.00    +0.059 C 
ATOM     15  C   UNL     1      31.643  -3.863 -22.521  0.00  0.00    +0.108 C 
ATOM     16  H   UNL     1      34.179  -7.337 -22.704  0.00  0.00    +0.176 HD
ENDBRANCH   7  11
ENDBRANCH   1   7
BRANCH   2  17
ATOM     17  N   UNL     1      34.436 -13.315 -23.984  0.00  0.00    -0.311 N 
ATOM     18  H   UNL     1      34.565 -13.398 -24.957  0.00  0.00    +0.152 HD
BRANCH  17  25
ATOM     19  O   UNL     1      33.675 -15.494 -25.739  0.00  0.00    -0.270 OA
ATOM     20  N   UNL     1      34.230 -17.565 -24.748  0.00  0.00    -0.280 N 
ATOM     21  C   UNL     1      35.152 -16.835 -22.772  0.00  0.00    +0.019 C 
ATOM     22  C   UNL     1      34.732 -15.677 -23.555  0.00  0.00    +0.069 C 
ATOM     23  C   UNL     1      34.824 -17.954 -23.542  0.00  0.00    +0.051 C 
ATOM     24  C   UNL     1      34.133 -16.172 -24.840  0.00  0.00    +0.251 C 
ATOM     25  C   UNL     1      34.832 -14.383 -23.246  0.00  0.00    +0.066 C 
ATOM     26  C   UNL     1      35.751 -16.980 -21.535  0.00  0.00    +0.001 C 
ATOM     27  C   UNL     1      35.076 -19.244 -23.118  0.00  0.00    +0.015 C 
ATOM     28  C   UNL     1      36.017 -18.278 -21.085  0.00  0.00    +0.000 C 
ATOM     29  C   UNL     1      35.683 -19.398 -21.869  0.00  0.00    +0.001 C 
ATOM     30  H   UNL     1      33.920 -18.190 -25.442  0.00  0.00    +0.155 HD
ENDBRANCH  17  25
ENDBRANCH   2  17
TORSDOF 4
ENDMDL
MODEL 9
REMARK VINA RESULT:     -10.7      2.481      3.480
REMARK  Name = 5288711
REMARK  4 active torsions:
REMARK  status: ('A' for Active; 'I' for Inactive)
REMARK    1  A    between atoms: C_1  and  S_7
REMARK    2  A    between atoms: C_2  and  N_17
REMARK    3  A    between atoms: S_7  and  N_11
REMARK    4  A    between atoms: N_17  and  C_25
REMARK                            x       y       z     vdW  Elec       q    Type
REMARK                         _______ _______ _______ _____ _____    ______ ____
ROOT
ATOM      1  C   UNL     1      35.126 -22.752 -16.104  0.00  0.00    +0.125 C 
ATOM      2  C   UNL     1      36.088 -21.504 -18.413  0.00  0.00    +0.048 C 
ATOM      3  C   UNL     1      36.427 -22.251 -16.136  0.00  0.00    +0.021 C 
ATOM      4  C   UNL     1      34.304 -22.628 -17.224  0.00  0.00    +0.021 C 
ATOM      5  C   UNL     1      36.907 -21.629 -17.288  0.00  0.00    +0.016 C 
ATOM      6  C   UNL     1      34.783 -22.006 -18.376  0.00  0.00    +0.016 C 
ENDROOT
BRANCH   1   7
ATOM      7  S   UNL     1      34.524 -23.532 -14.662  0.00  0.00    +0.075 S 
ATOM      8  O   UNL     1      34.245 -24.927 -14.975  0.00  0.00    -0.150 OA
ATOM      9  O   UNL     1      35.436 -23.210 -13.572  0.00  0.00    -0.150 OA
BRANCH   7  11
ATOM     10  S   UNL     1      30.417 -22.939 -15.331  0.00  0.00    -0.050 S 
ATOM     11  N   UNL     1      33.033 -22.707 -14.435  0.00  0.00    -0.194 N 
ATOM     12  N   UNL     1      31.770 -24.742 -14.066  0.00  0.00    -0.221 NA
ATOM     13  C   UNL     1      31.812 -23.534 -14.554  0.00  0.00    +0.179 C 
ATOM     14  C   UNL     1      29.647 -24.435 -15.000  0.00  0.00    +0.059 C 
ATOM     15  C   UNL     1      30.517 -25.264 -14.324  0.00  0.00    +0.108 C 
ATOM     16  H   UNL     1      32.994 -21.743 -14.238  0.00  0.00    +0.176 HD
ENDBRANCH   7  11
ENDBRANCH   1   7
BRANCH   2  17
ATOM     17  N   UNL     1      36.572 -20.877 -19.573  0.00  0.00    -0.311 N 
ATOM     18  H   UNL     1      37.544 -20.727 -19.604  0.00  0.00    +0.152 HD
BRANCH  17  25
ATOM     19  O   UNL     1      37.969 -18.407 -20.169  0.00  0.00    -0.270 OA
ATOM     20  N   UNL     1      37.001 -17.364 -22.055  0.00  0.00    -0.280 N 
ATOM     21  C   UNL     1      35.335 -18.872 -22.543  0.00  0.00    +0.019 C 
ATOM     22  C   UNL     1      36.074 -19.343 -21.376  0.00  0.00    +0.069 C 
ATOM     23  C   UNL     1      35.939 -17.668 -22.915  0.00  0.00    +0.051 C 
ATOM     24  C   UNL     1      37.156 -18.347 -21.072  0.00  0.00    +0.251 C 
ATOM     25  C   UNL     1      35.876 -20.450 -20.658  0.00  0.00    +0.066 C 
ATOM     26  C   UNL     1      34.260 -19.371 -23.253  0.00  0.00    +0.001 C 
ATOM     27  C   UNL     1      35.503 -16.923 -23.993  0.00  0.00    +0.015 C 
ATOM     28  C   UNL     1      33.801 -18.633 -24.350  0.00  0.00    +0.000 C 
ATOM     29  C   UNL     1      34.417 -17.421 -24.716  0.00  0.00    +0.001 C 
ATOM     30  H   UNL     1      37.566 -16.562 -22.131  0.00  0.00    +0.155 HD
ENDBRANCH  17  25
ENDBRANCH   2  17
TORSDOF 4
ENDMDL
