MODEL 1
REMARK VINA RESULT:     -11.5      0.000      0.000
REMARK  Name = 16040289
REMARK  6 active torsions:
REMARK  status: ('A' for Active; 'I' for Inactive)
REMARK    1  A    between atoms: N_2  and  C_20
REMARK    2  A    between atoms: C_3  and  C_6
REMARK    3  A    between atoms: N_11  and  C_13
REMARK    4  A    between atoms: C_13  and  C_15
REMARK    5  A    between atoms: C_23  and  O_26
REMARK    6  A    between atoms: O_26  and  C_27
REMARK                            x       y       z     vdW  Elec       q    Type
REMARK                         _______ _______ _______ _____ _____    ______ ____
ROOT
ATOM      1  O   UNL     1      34.246 -23.619 -17.500  0.00  0.00    -0.270 OA
ATOM      2  N   UNL     1      32.987 -21.700 -18.008  0.00  0.00    -0.280 N 
ATOM      3  C   UNL     1      33.298 -22.867 -17.299  0.00  0.00    +0.252 C 
ATOM      4  H   UNL     1      32.183 -21.216 -17.709  0.00  0.00    +0.155 HD
ENDROOT
BRANCH   3   6
ATOM      5  N   UNL     1      31.948 -23.906 -13.955  0.00  0.00    -0.229 NA
ATOM      6  C   UNL     1      32.350 -23.225 -16.212  0.00  0.00    +0.085 C 
ATOM      7  C   UNL     1      32.787 -23.575 -14.962  0.00  0.00    +0.133 C 
ATOM      8  C   UNL     1      31.002 -23.197 -16.487  0.00  0.00    +0.009 C 
ATOM      9  C   UNL     1      30.107 -23.531 -15.477  0.00  0.00    +0.021 C 
ATOM     10  C   UNL     1      30.626 -23.875 -14.239  0.00  0.00    +0.100 C 
ATOM     11  N   UNL     1      34.179 -23.598 -14.695  0.00  0.00    -0.314 N 
ATOM     12  H   UNL     1      34.803 -23.358 -15.418  0.00  0.00    +0.149 HD
BRANCH  11  13
ATOM     13  C   UNL     1      34.712 -23.952 -13.420  0.00  0.00    +0.115 C 
BRANCH  13  15
ATOM     14  N   UNL     1      38.098 -26.541 -13.876  0.00  0.00    -0.242 NA
ATOM     15  C   UNL     1      35.900 -24.861 -13.581  0.00  0.00    +0.000 C 
ATOM     16  C   UNL     1      36.164 -25.433 -14.813  0.00  0.00    +0.018 C 
ATOM     17  C   UNL     1      36.718 -25.116 -12.493  0.00  0.00    +0.018 C 
ATOM     18  C   UNL     1      37.270 -26.262 -14.908  0.00  0.00    +0.099 C 
ATOM     19  C   UNL     1      37.800 -25.959 -12.693  0.00  0.00    +0.099 C 
ENDBRANCH  13  15
ENDBRANCH  11  13
ENDBRANCH   3   6
BRANCH   2  20
ATOM     20  C   UNL     1      33.675 -21.139 -19.084  0.00  0.00    +0.051 C 
ATOM     21  C   UNL     1      32.978 -20.436 -20.067  0.00  0.00    +0.018 C 
ATOM     22  C   UNL     1      35.059 -21.283 -19.177  0.00  0.00    +0.018 C 
ATOM     23  C   UNL     1      35.051 -20.018 -21.237  0.00  0.00    +0.145 C 
ATOM     24  C   UNL     1      33.667 -19.875 -21.143  0.00  0.00    +0.039 C 
ATOM     25  C   UNL     1      35.747 -20.722 -20.254  0.00  0.00    +0.039 C 
BRANCH  23  26
ATOM     26  O   UNL     1      35.722 -19.473 -22.287  0.00  0.00    -0.453 OA
BRANCH  26  27
ATOM     27  C   UNL     1      35.454 -18.153 -22.608  0.00  0.00    +0.145 C 
ATOM     28  C   UNL     1      35.557 -17.186 -21.623  0.00  0.00    +0.037 C 
ATOM     29  C   UNL     1      35.089 -17.835 -23.904  0.00  0.00    +0.037 C 
ATOM     30  C   UNL     1      35.286 -15.856 -21.946  0.00  0.00    +0.003 C 
ATOM     31  C   UNL     1      34.817 -16.505 -24.226  0.00  0.00    +0.003 C 
ATOM     32  C   UNL     1      34.916 -15.516 -23.247  0.00  0.00    +0.000 C 
ENDBRANCH  26  27
ENDBRANCH  23  26
ENDBRANCH   2  20
TORSDOF 6
ENDMDL
MODEL 2
REMARK VINA RESULT:     -11.5      1.325      1.618
REMARK  Name = 16040289
REMARK  6 active torsions:
REMARK  status: ('A' for Active; 'I' for Inactive)
REMARK    1  A    between atoms: N_2  and  C_20
REMARK    2  A    between atoms: C_3  and  C_6
REMARK    3  A    between atoms: N_11  and  C_13
REMARK    4  A    between atoms: C_13  and  C_15
REMARK    5  A    between atoms: C_23  and  O_26
REMARK    6  A    between atoms: O_26  and  C_27
REMARK                            x       y       z     vdW  Elec       q    Type
REMARK                         _______ _______ _______ _____ _____    ______ ____
ROOT
ATOM      1  O   UNL     1      33.966 -23.565 -17.254  0.00  0.00    -0.270 OA
ATOM      2  N   UNL     1      32.753 -21.713 -18.043  0.00  0.00    -0.280 N 
ATOM      3  C   UNL     1      32.981 -22.835 -17.236  0.00  0.00    +0.252 C 
ATOM      4  H   UNL     1      31.902 -21.240 -17.893  0.00  0.00    +0.155 HD
ENDROOT
BRANCH   3   6
ATOM      5  N   UNL     1      31.174 -23.929 -14.134  0.00  0.00    -0.229 NA
ATOM      6  C   UNL     1      31.888 -23.171 -16.287  0.00  0.00    +0.085 C 
ATOM      7  C   UNL     1      32.148 -23.615 -15.018  0.00  0.00    +0.133 C 
ATOM      8  C   UNL     1      30.588 -23.025 -16.713  0.00  0.00    +0.009 C 
ATOM      9  C   UNL     1      29.557 -23.337 -15.833  0.00  0.00    +0.021 C 
ATOM     10  C   UNL     1      29.901 -23.782 -14.565  0.00  0.00    +0.100 C 
ATOM     11  N   UNL     1      33.493 -23.759 -14.595  0.00  0.00    -0.314 N 
ATOM     12  H   UNL     1      34.213 -23.533 -15.228  0.00  0.00    +0.149 HD
BRANCH  11  13
ATOM     13  C   UNL     1      33.845 -24.216 -13.291  0.00  0.00    +0.115 C 
BRANCH  13  15
ATOM     14  N   UNL     1      37.843 -23.021 -12.309  0.00  0.00    -0.242 NA
ATOM     15  C   UNL     1      35.249 -23.797 -12.947  0.00  0.00    +0.000 C 
ATOM     16  C   UNL     1      36.132 -23.464 -13.959  0.00  0.00    +0.018 C 
ATOM     17  C   UNL     1      35.642 -23.748 -11.621  0.00  0.00    +0.018 C 
ATOM     18  C   UNL     1      37.412 -23.084 -13.590  0.00  0.00    +0.099 C 
ATOM     19  C   UNL     1      36.945 -23.354 -11.356  0.00  0.00    +0.099 C 
ENDBRANCH  13  15
ENDBRANCH  11  13
ENDBRANCH   3   6
BRANCH   2  20
ATOM     20  C   UNL     1      33.582 -21.181 -19.030  0.00  0.00    +0.051 C 
ATOM     21  C   UNL     1      33.045 -20.370 -20.030  0.00  0.00    +0.018 C 
ATOM     22  C   UNL     1      34.949 -21.462 -19.018  0.00  0.00    +0.018 C 
ATOM     23  C   UNL     1      35.241 -20.119 -21.006  0.00  0.00    +0.145 C 
ATOM     24  C   UNL     1      33.876 -19.839 -21.018  0.00  0.00    +0.039 C 
ATOM     25  C   UNL     1      35.778 -20.930 -20.006  0.00  0.00    +0.039 C 
BRANCH  23  26
ATOM     26  O   UNL     1      36.051 -19.603 -21.971  0.00  0.00    -0.453 OA
BRANCH  26  27
ATOM     27  C   UNL     1      35.565 -18.545 -22.720  0.00  0.00    +0.145 C 
ATOM     28  C   UNL     1      34.899 -18.808 -23.904  0.00  0.00    +0.037 C 
ATOM     29  C   UNL     1      35.759 -17.252 -22.267  0.00  0.00    +0.037 C 
ATOM     30  C   UNL     1      34.411 -17.742 -24.660  0.00  0.00    +0.003 C 
ATOM     31  C   UNL     1      35.271 -16.186 -23.023  0.00  0.00    +0.003 C 
ATOM     32  C   UNL     1      34.597 -16.431 -24.219  0.00  0.00    +0.000 C 
ENDBRANCH  26  27
ENDBRANCH  23  26
ENDBRANCH   2  20
TORSDOF 6
ENDMDL
MODEL 3
REMARK VINA RESULT:     -10.7      5.877     12.901
REMARK  Name = 16040289
REMARK  6 active torsions:
REMARK  status: ('A' for Active; 'I' for Inactive)
REMARK    1  A    between atoms: N_2  and  C_20
REMARK    2  A    between atoms: C_3  and  C_6
REMARK    3  A    between atoms: N_11  and  C_13
REMARK    4  A    between atoms: C_13  and  C_15
REMARK    5  A    between atoms: C_23  and  O_26
REMARK    6  A    between atoms: O_26  and  C_27
REMARK                            x       y       z     vdW  Elec       q    Type
REMARK                         _______ _______ _______ _____ _____    ______ ____
ROOT
ATOM      1  O   UNL     1      33.851 -13.980 -22.801  0.00  0.00    -0.270 OA
ATOM      2  N   UNL     1      34.656 -15.633 -24.266  0.00  0.00    -0.280 N 
ATOM      3  C   UNL     1      34.083 -14.399 -23.930  0.00  0.00    +0.252 C 
ATOM      4  H   UNL     1      34.770 -15.806 -25.229  0.00  0.00    +0.155 HD
ENDROOT
BRANCH   3   6
ATOM      5  N   UNL     1      33.627 -11.387 -26.121  0.00  0.00    -0.229 NA
ATOM      6  C   UNL     1      33.702 -13.538 -25.079  0.00  0.00    +0.085 C 
ATOM      7  C   UNL     1      33.964 -12.194 -25.090  0.00  0.00    +0.133 C 
ATOM      8  C   UNL     1      33.069 -14.125 -26.151  0.00  0.00    +0.009 C 
ATOM      9  C   UNL     1      32.707 -13.328 -27.231  0.00  0.00    +0.021 C 
ATOM     10  C   UNL     1      33.006 -11.976 -27.167  0.00  0.00    +0.100 C 
ATOM     11  N   UNL     1      34.617 -11.606 -23.978  0.00  0.00    -0.314 N 
ATOM     12  H   UNL     1      34.870 -12.181 -23.220  0.00  0.00    +0.149 HD
BRANCH  11  13
ATOM     13  C   UNL     1      34.925 -10.214 -23.913  0.00  0.00    +0.115 C 
BRANCH  13  15
ATOM     14  N   UNL     1      31.704  -8.047 -22.097  0.00  0.00    -0.242 NA
ATOM     15  C   UNL     1      33.794  -9.454 -23.276  0.00  0.00    +0.000 C 
ATOM     16  C   UNL     1      32.722 -10.144 -22.736  0.00  0.00    +0.018 C 
ATOM     17  C   UNL     1      33.836  -8.071 -23.236  0.00  0.00    +0.018 C 
ATOM     18  C   UNL     1      31.707  -9.398 -22.161  0.00  0.00    +0.099 C 
ATOM     19  C   UNL     1      32.771  -7.417 -22.637  0.00  0.00    +0.099 C 
ENDBRANCH  13  15
ENDBRANCH  11  13
ENDBRANCH   3   6
BRANCH   2  20
ATOM     20  C   UNL     1      35.084 -16.644 -23.407  0.00  0.00    +0.051 C 
ATOM     21  C   UNL     1      35.380 -16.351 -22.076  0.00  0.00    +0.018 C 
ATOM     22  C   UNL     1      35.217 -17.950 -23.881  0.00  0.00    +0.018 C 
ATOM     23  C   UNL     1      35.942 -18.670 -21.690  0.00  0.00    +0.145 C 
ATOM     24  C   UNL     1      35.809 -17.365 -21.218  0.00  0.00    +0.039 C 
ATOM     25  C   UNL     1      35.646 -18.963 -23.021  0.00  0.00    +0.039 C 
BRANCH  23  26
ATOM     26  O   UNL     1      36.362 -19.657 -20.853  0.00  0.00    -0.453 OA
BRANCH  26  27
ATOM     27  C   UNL     1      35.396 -20.373 -20.167  0.00  0.00    +0.145 C 
ATOM     28  C   UNL     1      34.060 -20.098 -20.400  0.00  0.00    +0.037 C 
ATOM     29  C   UNL     1      35.791 -21.344 -19.264  0.00  0.00    +0.037 C 
ATOM     30  C   UNL     1      33.087 -20.819 -19.707  0.00  0.00    +0.003 C 
ATOM     31  C   UNL     1      34.818 -22.064 -18.571  0.00  0.00    +0.003 C 
ATOM     32  C   UNL     1      33.467 -21.801 -18.793  0.00  0.00    +0.000 C 
ENDBRANCH  26  27
ENDBRANCH  23  26
ENDBRANCH   2  20
TORSDOF 6
ENDMDL
MODEL 4
REMARK VINA RESULT:     -10.6      1.558      4.704
REMARK  Name = 16040289
REMARK  6 active torsions:
REMARK  status: ('A' for Active; 'I' for Inactive)
REMARK    1  A    between atoms: N_2  and  C_20
REMARK    2  A    between atoms: C_3  and  C_6
REMARK    3  A    between atoms: N_11  and  C_13
REMARK    4  A    between atoms: C_13  and  C_15
REMARK    5  A    between atoms: C_23  and  O_26
REMARK    6  A    between atoms: O_26  and  C_27
REMARK                            x       y       z     vdW  Elec       q    Type
REMARK                         _______ _______ _______ _____ _____    ______ ____
ROOT
ATOM      1  O   UNL     1      33.590 -23.685 -17.875  0.00  0.00    -0.270 OA
ATOM      2  N   UNL     1      35.111 -21.919 -17.567  0.00  0.00    -0.280 N 
ATOM      3  C   UNL     1      34.365 -23.039 -17.178  0.00  0.00    +0.252 C 
ATOM      4  H   UNL     1      35.686 -21.522 -16.873  0.00  0.00    +0.155 HD
ENDROOT
BRANCH   3   6
ATOM      5  N   UNL     1      33.626 -23.709 -13.560  0.00  0.00    -0.229 NA
ATOM      6  C   UNL     1      34.528 -23.453 -15.760  0.00  0.00    +0.085 C 
ATOM      7  C   UNL     1      33.505 -23.342 -14.855  0.00  0.00    +0.133 C 
ATOM      8  C   UNL     1      35.746 -23.958 -15.365  0.00  0.00    +0.009 C 
ATOM      9  C   UNL     1      35.909 -24.347 -14.039  0.00  0.00    +0.021 C 
ATOM     10  C   UNL     1      34.827 -24.203 -13.184  0.00  0.00    +0.100 C 
ATOM     11  N   UNL     1      32.258 -22.820 -15.280  0.00  0.00    -0.314 N 
ATOM     12  H   UNL     1      32.155 -22.549 -16.221  0.00  0.00    +0.149 HD
BRANCH  11  13
ATOM     13  C   UNL     1      31.145 -22.673 -14.399  0.00  0.00    +0.115 C 
BRANCH  13  15
ATOM     14  N   UNL     1      27.466 -23.191 -16.535  0.00  0.00    -0.242 NA
ATOM     15  C   UNL     1      29.853 -22.855 -15.148  0.00  0.00    +0.000 C 
ATOM     16  C   UNL     1      28.789 -22.009 -14.893  0.00  0.00    +0.018 C 
ATOM     17  C   UNL     1      29.743 -23.867 -16.086  0.00  0.00    +0.018 C 
ATOM     18  C   UNL     1      27.622 -22.217 -15.610  0.00  0.00    +0.099 C 
ATOM     19  C   UNL     1      28.533 -23.993 -16.750  0.00  0.00    +0.099 C 
ENDBRANCH  13  15
ENDBRANCH  11  13
ENDBRANCH   3   6
BRANCH   2  20
ATOM     20  C   UNL     1      35.139 -21.296 -18.814  0.00  0.00    +0.051 C 
ATOM     21  C   UNL     1      36.359 -21.051 -19.444  0.00  0.00    +0.018 C 
ATOM     22  C   UNL     1      33.947 -20.917 -19.432  0.00  0.00    +0.018 C 
ATOM     23  C   UNL     1      35.195 -20.049 -21.310  0.00  0.00    +0.145 C 
ATOM     24  C   UNL     1      36.387 -20.428 -20.693  0.00  0.00    +0.039 C 
ATOM     25  C   UNL     1      33.975 -20.294 -20.680  0.00  0.00    +0.039 C 
BRANCH  23  26
ATOM     26  O   UNL     1      35.222 -19.440 -22.526  0.00  0.00    -0.453 OA
BRANCH  26  27
ATOM     27  C   UNL     1      35.168 -18.057 -22.555  0.00  0.00    +0.145 C 
ATOM     28  C   UNL     1      35.338 -17.351 -21.377  0.00  0.00    +0.037 C 
ATOM     29  C   UNL     1      34.944 -17.416 -23.760  0.00  0.00    +0.037 C 
ATOM     30  C   UNL     1      35.282 -15.958 -21.405  0.00  0.00    +0.003 C 
ATOM     31  C   UNL     1      34.888 -16.022 -23.789  0.00  0.00    +0.003 C 
ATOM     32  C   UNL     1      35.057 -15.294 -22.611  0.00  0.00    +0.000 C 
ENDBRANCH  26  27
ENDBRANCH  23  26
ENDBRANCH   2  20
TORSDOF 6
ENDMDL
MODEL 5
REMARK VINA RESULT:     -10.5      2.117      4.776
REMARK  Name = 16040289
REMARK  6 active torsions:
REMARK  status: ('A' for Active; 'I' for Inactive)
REMARK    1  A    between atoms: N_2  and  C_20
REMARK    2  A    between atoms: C_3  and  C_6
REMARK    3  A    between atoms: N_11  and  C_13
REMARK    4  A    between atoms: C_13  and  C_15
REMARK    5  A    between atoms: C_23  and  O_26
REMARK    6  A    between atoms: O_26  and  C_27
REMARK                            x       y       z     vdW  Elec       q    Type
REMARK                         _______ _______ _______ _____ _____    ______ ____
ROOT
ATOM      1  O   UNL     1      34.435 -21.622 -18.926  0.00  0.00    -0.270 OA
ATOM      2  N   UNL     1      36.462 -20.499 -19.322  0.00  0.00    -0.280 N 
ATOM      3  C   UNL     1      35.594 -21.353 -18.630  0.00  0.00    +0.252 C 
ATOM      4  H   UNL     1      37.363 -20.397 -18.939  0.00  0.00    +0.155 HD
ENDROOT
BRANCH   3   6
ATOM      5  N   UNL     1      35.901 -23.398 -15.498  0.00  0.00    -0.229 NA
ATOM      6  C   UNL     1      36.151 -21.964 -17.395  0.00  0.00    +0.085 C 
ATOM      7  C   UNL     1      35.419 -22.829 -16.626  0.00  0.00    +0.133 C 
ATOM      8  C   UNL     1      37.438 -21.639 -17.031  0.00  0.00    +0.009 C 
ATOM      9  C   UNL     1      37.969 -22.204 -15.877  0.00  0.00    +0.021 C 
ATOM     10  C   UNL     1      37.166 -23.071 -15.152  0.00  0.00    +0.100 C 
ATOM     11  N   UNL     1      34.096 -23.154 -17.016  0.00  0.00    -0.314 N 
ATOM     12  H   UNL     1      33.732 -22.748 -17.836  0.00  0.00    +0.149 HD
BRANCH  11  13
ATOM     13  C   UNL     1      33.271 -24.046 -16.269  0.00  0.00    +0.115 C 
BRANCH  13  15
ATOM     14  N   UNL     1      29.690 -22.065 -14.993  0.00  0.00    -0.242 NA
ATOM     15  C   UNL     1      32.014 -23.350 -15.822  0.00  0.00    +0.000 C 
ATOM     16  C   UNL     1      31.075 -22.960 -16.761  0.00  0.00    +0.018 C 
ATOM     17  C   UNL     1      31.809 -23.108 -14.474  0.00  0.00    +0.018 C 
ATOM     18  C   UNL     1      29.935 -22.324 -16.297  0.00  0.00    +0.099 C 
ATOM     19  C   UNL     1      30.635 -22.465 -14.113  0.00  0.00    +0.099 C 
ENDBRANCH  13  15
ENDBRANCH  11  13
ENDBRANCH   3   6
BRANCH   2  20
ATOM     20  C   UNL     1      36.207 -19.774 -20.487  0.00  0.00    +0.051 C 
ATOM     21  C   UNL     1      37.219 -19.013 -21.070  0.00  0.00    +0.018 C 
ATOM     22  C   UNL     1      34.939 -19.812 -21.067  0.00  0.00    +0.018 C 
ATOM     23  C   UNL     1      35.696 -18.325 -22.816  0.00  0.00    +0.145 C 
ATOM     24  C   UNL     1      36.963 -18.289 -22.235  0.00  0.00    +0.039 C 
ATOM     25  C   UNL     1      34.684 -19.087 -22.232  0.00  0.00    +0.039 C 
BRANCH  23  26
ATOM     26  O   UNL     1      35.446 -17.617 -23.950  0.00  0.00    -0.453 OA
BRANCH  26  27
ATOM     27  C   UNL     1      34.925 -16.342 -23.812  0.00  0.00    +0.145 C 
ATOM     28  C   UNL     1      34.183 -15.802 -24.848  0.00  0.00    +0.037 C 
ATOM     29  C   UNL     1      35.159 -15.640 -22.644  0.00  0.00    +0.037 C 
ATOM     30  C   UNL     1      33.659 -14.516 -24.710  0.00  0.00    +0.003 C 
ATOM     31  C   UNL     1      34.635 -14.355 -22.505  0.00  0.00    +0.003 C 
ATOM     32  C   UNL     1      33.885 -13.794 -23.538  0.00  0.00    +0.000 C 
ENDBRANCH  26  27
ENDBRANCH  23  26
ENDBRANCH   2  20
TORSDOF 6
ENDMDL
MODEL 6
REMARK VINA RESULT:     -10.4      1.756      4.340
REMARK  Name = 16040289
REMARK  6 active torsions:
REMARK  status: ('A' for Active; 'I' for Inactive)
REMARK    1  A    between atoms: N_2  and  C_20
REMARK    2  A    between atoms: C_3  and  C_6
REMARK    3  A    between atoms: N_11  and  C_13
REMARK    4  A    between atoms: C_13  and  C_15
REMARK    5  A    between atoms: C_23  and  O_26
REMARK    6  A    between atoms: O_26  and  C_27
REMARK                            x       y       z     vdW  Elec       q    Type
REMARK                         _______ _______ _______ _____ _____    ______ ____
ROOT
ATOM      1  O   UNL     1      37.051 -21.304 -15.938  0.00  0.00    -0.270 OA
ATOM      2  N   UNL     1      35.494 -22.781 -16.897  0.00  0.00    -0.280 N 
ATOM      3  C   UNL     1      36.454 -22.375 -15.961  0.00  0.00    +0.252 C 
ATOM      4  H   UNL     1      35.115 -23.680 -16.763  0.00  0.00    +0.155 HD
ENDROOT
BRANCH   3   6
ATOM      5  N   UNL     1      36.115 -24.734 -13.062  0.00  0.00    -0.229 NA
ATOM      6  C   UNL     1      36.784 -23.374 -14.911  0.00  0.00    +0.085 C 
ATOM      7  C   UNL     1      35.841 -23.828 -14.027  0.00  0.00    +0.133 C 
ATOM      8  C   UNL     1      38.076 -23.843 -14.843  0.00  0.00    +0.009 C 
ATOM      9  C   UNL     1      38.396 -24.777 -13.864  0.00  0.00    +0.021 C 
ATOM     10  C   UNL     1      37.387 -25.187 -13.005  0.00  0.00    +0.100 C 
ATOM     11  N   UNL     1      34.515 -23.334 -14.113  0.00  0.00    -0.314 N 
ATOM     12  H   UNL     1      34.302 -22.674 -14.811  0.00  0.00    +0.149 HD
BRANCH  11  13
ATOM     13  C   UNL     1      33.479 -23.757 -13.229  0.00  0.00    +0.115 C 
BRANCH  13  15
ATOM     14  N   UNL     1      29.818 -24.340 -15.381  0.00  0.00    -0.242 NA
ATOM     15  C   UNL     1      32.194 -23.961 -13.985  0.00  0.00    +0.000 C 
ATOM     16  C   UNL     1      31.844 -23.080 -14.993  0.00  0.00    +0.018 C 
ATOM     17  C   UNL     1      31.373 -25.028 -13.663  0.00  0.00    +0.018 C 
ATOM     18  C   UNL     1      30.652 -23.312 -15.658  0.00  0.00    +0.099 C 
ATOM     19  C   UNL     1      30.201 -25.173 -14.388  0.00  0.00    +0.099 C 
ENDBRANCH  13  15
ENDBRANCH  11  13
ENDBRANCH   3   6
BRANCH   2  20
ATOM     20  C   UNL     1      35.010 -22.070 -17.995  0.00  0.00    +0.051 C 
ATOM     21  C   UNL     1      33.635 -21.917 -18.177  0.00  0.00    +0.018 C 
ATOM     22  C   UNL     1      35.901 -21.514 -18.913  0.00  0.00    +0.018 C 
ATOM     23  C   UNL     1      34.042 -20.649 -20.193  0.00  0.00    +0.145 C 
ATOM     24  C   UNL     1      33.152 -21.206 -19.276  0.00  0.00    +0.039 C 
ATOM     25  C   UNL     1      35.417 -20.802 -20.012  0.00  0.00    +0.039 C 
BRANCH  23  26
ATOM     26  O   UNL     1      33.571 -19.958 -21.266  0.00  0.00    -0.453 OA
BRANCH  26  27
ATOM     27  C   UNL     1      34.439 -19.087 -21.903  0.00  0.00    +0.145 C 
ATOM     28  C   UNL     1      35.149 -18.171 -21.147  0.00  0.00    +0.037 C 
ATOM     29  C   UNL     1      34.573 -19.155 -23.278  0.00  0.00    +0.037 C 
ATOM     30  C   UNL     1      36.023 -17.293 -21.790  0.00  0.00    +0.003 C 
ATOM     31  C   UNL     1      35.447 -18.277 -23.920  0.00  0.00    +0.003 C 
ATOM     32  C   UNL     1      36.171 -17.347 -23.175  0.00  0.00    +0.000 C 
ENDBRANCH  26  27
ENDBRANCH  23  26
ENDBRANCH   2  20
TORSDOF 6
ENDMDL
MODEL 7
REMARK VINA RESULT:     -10.3      2.078      4.740
REMARK  Name = 16040289
REMARK  6 active torsions:
REMARK  status: ('A' for Active; 'I' for Inactive)
REMARK    1  A    between atoms: N_2  and  C_20
REMARK    2  A    between atoms: C_3  and  C_6
REMARK    3  A    between atoms: N_11  and  C_13
REMARK    4  A    between atoms: C_13  and  C_15
REMARK    5  A    between atoms: C_23  and  O_26
REMARK    6  A    between atoms: O_26  and  C_27
REMARK                            x       y       z     vdW  Elec       q    Type
REMARK                         _______ _______ _______ _____ _____    ______ ____
ROOT
ATOM      1  O   UNL     1      37.163 -24.471 -15.367  0.00  0.00    -0.270 OA
ATOM      2  N   UNL     1      35.754 -22.590 -15.396  0.00  0.00    -0.280 N 
ATOM      3  C   UNL     1      36.448 -23.651 -14.802  0.00  0.00    +0.252 C 
ATOM      4  H   UNL     1      35.223 -22.026 -14.787  0.00  0.00    +0.155 HD
ENDROOT
BRANCH   3   6
ATOM      5  N   UNL     1      34.861 -24.303 -11.463  0.00  0.00    -0.229 NA
ATOM      6  C   UNL     1      36.261 -23.793 -13.334  0.00  0.00    +0.085 C 
ATOM      7  C   UNL     1      35.059 -24.167 -12.794  0.00  0.00    +0.133 C 
ATOM      8  C   UNL     1      37.335 -23.537 -12.513  0.00  0.00    +0.009 C 
ATOM      9  C   UNL     1      37.171 -23.665 -11.138  0.00  0.00    +0.021 C 
ATOM     10  C   UNL     1      35.924 -24.048 -10.668  0.00  0.00    +0.100 C 
ATOM     11  N   UNL     1      33.964 -24.428 -13.655  0.00  0.00    -0.314 N 
ATOM     12  H   UNL     1      34.093 -24.335 -14.626  0.00  0.00    +0.149 HD
BRANCH  11  13
ATOM     13  C   UNL     1      32.681 -24.822 -13.169  0.00  0.00    +0.115 C 
BRANCH  13  15
ATOM     14  N   UNL     1      29.604 -23.551 -15.868  0.00  0.00    -0.242 NA
ATOM     15  C   UNL     1      31.601 -24.377 -14.117  0.00  0.00    +0.000 C 
ATOM     16  C   UNL     1      30.413 -25.084 -14.184  0.00  0.00    +0.018 C 
ATOM     17  C   UNL     1      31.805 -23.262 -14.912  0.00  0.00    +0.018 C 
ATOM     18  C   UNL     1      29.451 -24.633 -15.071  0.00  0.00    +0.099 C 
ATOM     19  C   UNL     1      30.779 -22.892 -15.767  0.00  0.00    +0.099 C 
ENDBRANCH  13  15
ENDBRANCH  11  13
ENDBRANCH   3   6
BRANCH   2  20
ATOM     20  C   UNL     1      35.720 -22.232 -16.744  0.00  0.00    +0.051 C 
ATOM     21  C   UNL     1      34.569 -22.458 -17.498  0.00  0.00    +0.018 C 
ATOM     22  C   UNL     1      36.841 -21.650 -17.338  0.00  0.00    +0.018 C 
ATOM     23  C   UNL     1      35.656 -21.517 -19.440  0.00  0.00    +0.145 C 
ATOM     24  C   UNL     1      34.537 -22.099 -18.846  0.00  0.00    +0.039 C 
ATOM     25  C   UNL     1      36.807 -21.292 -18.687  0.00  0.00    +0.039 C 
BRANCH  23  26
ATOM     26  O   UNL     1      35.625 -21.170 -20.756  0.00  0.00    -0.453 OA
BRANCH  26  27
ATOM     27  C   UNL     1      35.803 -19.834 -21.073  0.00  0.00    +0.145 C 
ATOM     28  C   UNL     1      34.706 -18.991 -21.080  0.00  0.00    +0.037 C 
ATOM     29  C   UNL     1      37.073 -19.377 -21.377  0.00  0.00    +0.037 C 
ATOM     30  C   UNL     1      34.885 -17.646 -21.402  0.00  0.00    +0.003 C 
ATOM     31  C   UNL     1      37.252 -18.031 -21.698  0.00  0.00    +0.003 C 
ATOM     32  C   UNL     1      36.158 -17.166 -21.710  0.00  0.00    +0.000 C 
ENDBRANCH  26  27
ENDBRANCH  23  26
ENDBRANCH   2  20
TORSDOF 6
ENDMDL
MODEL 8
REMARK VINA RESULT:     -10.0      1.272      1.532
REMARK  Name = 16040289
REMARK  6 active torsions:
REMARK  status: ('A' for Active; 'I' for Inactive)
REMARK    1  A    between atoms: N_2  and  C_20
REMARK    2  A    between atoms: C_3  and  C_6
REMARK    3  A    between atoms: N_11  and  C_13
REMARK    4  A    between atoms: C_13  and  C_15
REMARK    5  A    between atoms: C_23  and  O_26
REMARK    6  A    between atoms: O_26  and  C_27
REMARK                            x       y       z     vdW  Elec       q    Type
REMARK                         _______ _______ _______ _____ _____    ______ ____
ROOT
ATOM      1  O   UNL     1      35.747 -22.311 -16.450  0.00  0.00    -0.270 OA
ATOM      2  N   UNL     1      33.871 -22.038 -17.841  0.00  0.00    -0.280 N 
ATOM      3  C   UNL     1      34.556 -22.469 -16.698  0.00  0.00    +0.252 C 
ATOM      4  H   UNL     1      32.911 -22.252 -17.874  0.00  0.00    +0.155 HD
ENDROOT
BRANCH   3   6
ATOM      5  N   UNL     1      33.495 -25.025 -14.163  0.00  0.00    -0.229 NA
ATOM      6  C   UNL     1      33.738 -23.215 -15.707  0.00  0.00    +0.085 C 
ATOM      7  C   UNL     1      34.218 -24.327 -15.067  0.00  0.00    +0.133 C 
ATOM      8  C   UNL     1      32.466 -22.763 -15.440  0.00  0.00    +0.009 C 
ATOM      9  C   UNL     1      31.691 -23.454 -14.515  0.00  0.00    +0.021 C 
ATOM     10  C   UNL     1      32.247 -24.570 -13.910  0.00  0.00    +0.100 C 
ATOM     11  N   UNL     1      35.531 -24.778 -15.353  0.00  0.00    -0.314 N 
ATOM     12  H   UNL     1      36.070 -24.279 -16.009  0.00  0.00    +0.149 HD
BRANCH  11  13
ATOM     13  C   UNL     1      36.103 -25.926 -14.729  0.00  0.00    +0.115 C 
BRANCH  13  15
ATOM     14  N   UNL     1      40.061 -25.057 -13.335  0.00  0.00    -0.242 NA
ATOM     15  C   UNL     1      37.492 -25.622 -14.240  0.00  0.00    +0.000 C 
ATOM     16  C   UNL     1      38.578 -26.250 -14.825  0.00  0.00    +0.018 C 
ATOM     17  C   UNL     1      37.671 -24.716 -13.208  0.00  0.00    +0.018 C 
ATOM     18  C   UNL     1      39.836 -25.935 -14.339  0.00  0.00    +0.099 C 
ATOM     19  C   UNL     1      38.971 -24.469 -12.795  0.00  0.00    +0.099 C 
ENDBRANCH  13  15
ENDBRANCH  11  13
ENDBRANCH   3   6
BRANCH   2  20
ATOM     20  C   UNL     1      34.381 -21.344 -18.938  0.00  0.00    +0.051 C 
ATOM     21  C   UNL     1      33.515 -20.694 -19.817  0.00  0.00    +0.018 C 
ATOM     22  C   UNL     1      35.759 -21.301 -19.156  0.00  0.00    +0.018 C 
ATOM     23  C   UNL     1      35.403 -19.956 -21.133  0.00  0.00    +0.145 C 
ATOM     24  C   UNL     1      34.026 -20.000 -20.914  0.00  0.00    +0.039 C 
ATOM     25  C   UNL     1      36.269 -20.607 -20.254  0.00  0.00    +0.039 C 
BRANCH  23  26
ATOM     26  O   UNL     1      35.901 -19.281 -22.204  0.00  0.00    -0.453 OA
BRANCH  26  27
ATOM     27  C   UNL     1      35.558 -17.947 -22.340  0.00  0.00    +0.145 C 
ATOM     28  C   UNL     1      35.507 -17.146 -21.213  0.00  0.00    +0.037 C 
ATOM     29  C   UNL     1      35.275 -17.449 -23.599  0.00  0.00    +0.037 C 
ATOM     30  C   UNL     1      35.161 -15.801 -21.351  0.00  0.00    +0.003 C 
ATOM     31  C   UNL     1      34.928 -16.105 -23.737  0.00  0.00    +0.003 C 
ATOM     32  C   UNL     1      34.871 -15.282 -22.612  0.00  0.00    +0.000 C 
ENDBRANCH  26  27
ENDBRANCH  23  26
ENDBRANCH   2  20
TORSDOF 6
ENDMDL
MODEL 9
REMARK VINA RESULT:      -9.9      3.796      8.135
REMARK  Name = 16040289
REMARK  6 active torsions:
REMARK  status: ('A' for Active; 'I' for Inactive)
REMARK    1  A    between atoms: N_2  and  C_20
REMARK    2  A    between atoms: C_3  and  C_6
REMARK    3  A    between atoms: N_11  and  C_13
REMARK    4  A    between atoms: C_13  and  C_15
REMARK    5  A    between atoms: C_23  and  O_26
REMARK    6  A    between atoms: O_26  and  C_27
REMARK                            x       y       z     vdW  Elec       q    Type
REMARK                         _______ _______ _______ _____ _____    ______ ____
ROOT
ATOM      1  O   UNL     1      35.020 -23.856 -11.861  0.00  0.00    -0.270 OA
ATOM      2  N   UNL     1      34.384 -24.422 -14.052  0.00  0.00    -0.280 N 
ATOM      3  C   UNL     1      35.284 -24.246 -12.993  0.00  0.00    +0.252 C 
ATOM      4  H   UNL     1      34.772 -24.743 -14.898  0.00  0.00    +0.155 HD
ENDROOT
BRANCH   3   6
ATOM      5  N   UNL     1      38.679 -24.109 -14.587  0.00  0.00    -0.229 NA
ATOM      6  C   UNL     1      36.705 -24.543 -13.308  0.00  0.00    +0.085 C 
ATOM      7  C   UNL     1      37.387 -23.858 -14.279  0.00  0.00    +0.133 C 
ATOM      8  C   UNL     1      37.336 -25.536 -12.594  0.00  0.00    +0.009 C 
ATOM      9  C   UNL     1      38.666 -25.823 -12.881  0.00  0.00    +0.021 C 
ATOM     10  C   UNL     1      39.287 -25.087 -13.878  0.00  0.00    +0.100 C 
ATOM     11  N   UNL     1      36.722 -22.837 -15.004  0.00  0.00    -0.314 N 
ATOM     12  H   UNL     1      35.780 -22.643 -14.790  0.00  0.00    +0.149 HD
BRANCH  11  13
ATOM     13  C   UNL     1      37.362 -22.080 -16.029  0.00  0.00    +0.115 C 
BRANCH  13  15
ATOM     14  N   UNL     1      34.746 -21.600 -19.390  0.00  0.00    -0.242 NA
ATOM     15  C   UNL     1      36.444 -21.911 -17.209  0.00  0.00    +0.000 C 
ATOM     16  C   UNL     1      36.898 -21.262 -18.344  0.00  0.00    +0.018 C 
ATOM     17  C   UNL     1      35.153 -22.407 -17.148  0.00  0.00    +0.018 C 
ATOM     18  C   UNL     1      36.015 -21.133 -19.402  0.00  0.00    +0.099 C 
ATOM     19  C   UNL     1      34.347 -22.227 -18.261  0.00  0.00    +0.099 C 
ENDBRANCH  13  15
ENDBRANCH  11  13
ENDBRANCH   3   6
BRANCH   2  20
ATOM     20  C   UNL     1      33.007 -24.198 -14.057  0.00  0.00    +0.051 C 
ATOM     21  C   UNL     1      32.142 -25.161 -13.536  0.00  0.00    +0.018 C 
ATOM     22  C   UNL     1      32.496 -23.011 -14.583  0.00  0.00    +0.018 C 
ATOM     23  C   UNL     1      30.253 -23.750 -14.066  0.00  0.00    +0.145 C 
ATOM     24  C   UNL     1      30.765 -24.936 -13.541  0.00  0.00    +0.039 C 
ATOM     25  C   UNL     1      31.118 -22.788 -14.587  0.00  0.00    +0.039 C 
BRANCH  23  26
ATOM     26  O   UNL     1      28.910 -23.532 -14.073  0.00  0.00    -0.453 OA
BRANCH  26  27
ATOM     27  C   UNL     1      28.326 -23.150 -15.268  0.00  0.00    +0.145 C 
ATOM     28  C   UNL     1      27.450 -22.078 -15.277  0.00  0.00    +0.037 C 
ATOM     29  C   UNL     1      28.631 -23.848 -16.422  0.00  0.00    +0.037 C 
ATOM     30  C   UNL     1      26.859 -21.693 -16.481  0.00  0.00    +0.003 C 
ATOM     31  C   UNL     1      28.041 -23.463 -17.626  0.00  0.00    +0.003 C 
ATOM     32  C   UNL     1      27.155 -22.386 -17.655  0.00  0.00    +0.000 C 
ENDBRANCH  26  27
ENDBRANCH  23  26
ENDBRANCH   2  20
TORSDOF 6
ENDMDL
