MODEL 1
REMARK VINA RESULT:     -12.0      0.000      0.000
REMARK  Name = 11978813
REMARK  7 active torsions:
REMARK  status: ('A' for Active; 'I' for Inactive)
REMARK    1  A    between atoms: C_1  and  N_2
REMARK    2  A    between atoms: C_1  and  C_18
REMARK    3  A    between atoms: N_3  and  C_10
REMARK    4  A    between atoms: C_18  and  C_19
REMARK    5  A    between atoms: C_19  and  C_20
REMARK    6  A    between atoms: C_20  and  O_21
REMARK    7  A    between atoms: O_21  and  C_24
REMARK                            x       y       z     vdW  Elec       q    Type
REMARK                         _______ _______ _______ _____ _____    ______ ____
ROOT
ATOM      1  C   UNL     1      35.394 -16.943 -24.802  0.00  0.00    -0.077 C 
ENDROOT
BRANCH   1   2
ATOM      2  N   UNL     1      35.081 -15.601 -24.313  0.00  0.00    +0.389 N 
ATOM      3  N   UNL     1      33.611 -13.633 -22.856  0.00  0.00    -0.312 N 
ATOM      4  C   UNL     1      33.749 -15.185 -24.765  0.00  0.00    -0.055 C 
ATOM      5  C   UNL     1      35.147 -15.558 -22.847  0.00  0.00    -0.055 C 
ATOM      6  C   UNL     1      33.433 -13.759 -24.308  0.00  0.00    +0.068 C 
ATOM      7  C   UNL     1      34.878 -14.145 -22.325  0.00  0.00    +0.068 C 
ATOM      8  H   UNL     1      35.774 -14.956 -24.692  0.00  0.00    -0.080 HD
BRANCH   3  10
ATOM      9  S   UNL     1      32.530  -8.692 -22.738  0.00  0.00    -0.086 S 
ATOM     10  C   UNL     1      32.959 -12.581 -22.203  0.00  0.00    +0.048 C 
ATOM     11  C   UNL     1      33.009 -11.232 -22.685  0.00  0.00    +0.020 C 
ATOM     12  C   UNL     1      32.223 -12.843 -21.026  0.00  0.00    +0.015 C 
ATOM     13  C   UNL     1      32.335 -10.229 -21.982  0.00  0.00    +0.031 C 
ATOM     14  C   UNL     1      33.675 -10.699 -23.839  0.00  0.00    +0.009 C 
ATOM     15  C   UNL     1      31.562 -11.830 -20.345  0.00  0.00    +0.002 C 
ATOM     16  C   UNL     1      31.607 -10.513 -20.810  0.00  0.00    +0.007 C 
ATOM     17  C   UNL     1      33.496  -9.344 -23.981  0.00  0.00    +0.035 C 
ENDBRANCH   3  10
ENDBRANCH   1   2
BRANCH   1  18
ATOM     18  C   UNL     1      34.310 -17.931 -24.372  0.00  0.00    -0.019 C 
BRANCH  18  19
ATOM     19  C   UNL     1      34.919 -19.263 -23.937  0.00  0.00    +0.045 C 
BRANCH  19  20
ATOM     20  C   UNL     1      35.334 -19.239 -22.472  0.00  0.00    +0.205 C 
BRANCH  20  21
ATOM     21  O   UNL     1      34.196 -19.446 -21.645  0.00  0.00    -0.475 OA
BRANCH  21  24
ATOM     22  O   UNL     1      31.454 -23.250 -16.294  0.00  0.00    -0.270 OA
ATOM     23  N   UNL     1      32.325 -22.013 -18.030  0.00  0.00    -0.280 N 
ATOM     24  C   UNL     1      34.368 -20.248 -20.546  0.00  0.00    +0.140 C 
ATOM     25  C   UNL     1      33.255 -20.714 -19.857  0.00  0.00    +0.052 C 
ATOM     26  C   UNL     1      33.440 -21.532 -18.739  0.00  0.00    +0.054 C 
ATOM     27  C   UNL     1      35.654 -20.582 -20.135  0.00  0.00    +0.037 C 
ATOM     28  C   UNL     1      34.727 -21.877 -18.313  0.00  0.00    +0.014 C 
ATOM     29  C   UNL     1      35.837 -21.399 -19.017  0.00  0.00    +0.004 C 
ATOM     30  C   UNL     1      34.878 -22.734 -17.139  0.00  0.00    +0.006 C 
ATOM     31  C   UNL     1      32.425 -22.825 -16.917  0.00  0.00    +0.250 C 
ATOM     32  C   UNL     1      33.802 -23.181 -16.480  0.00  0.00    +0.058 C 
ATOM     33  H   UNL     1      31.426 -21.759 -18.344  0.00  0.00    +0.155 HD
ENDBRANCH  21  24
ENDBRANCH  20  21
ENDBRANCH  19  20
ENDBRANCH  18  19
ENDBRANCH   1  18
TORSDOF 7
ENDMDL
MODEL 2
REMARK VINA RESULT:     -11.8      3.180      5.946
REMARK  Name = 11978813
REMARK  7 active torsions:
REMARK  status: ('A' for Active; 'I' for Inactive)
REMARK    1  A    between atoms: C_1  and  N_2
REMARK    2  A    between atoms: C_1  and  C_18
REMARK    3  A    between atoms: N_3  and  C_10
REMARK    4  A    between atoms: C_18  and  C_19
REMARK    5  A    between atoms: C_19  and  C_20
REMARK    6  A    between atoms: C_20  and  O_21
REMARK    7  A    between atoms: O_21  and  C_24
REMARK                            x       y       z     vdW  Elec       q    Type
REMARK                         _______ _______ _______ _____ _____    ______ ____
ROOT
ATOM      1  C   UNL     1      36.031 -21.578 -18.802  0.00  0.00    -0.077 C 
ENDROOT
BRANCH   1   2
ATOM      2  N   UNL     1      35.970 -20.806 -20.042  0.00  0.00    +0.389 N 
ATOM      3  N   UNL     1      35.516 -18.491 -21.653  0.00  0.00    -0.312 N 
ATOM      4  C   UNL     1      34.604 -20.325 -20.282  0.00  0.00    -0.055 C 
ATOM      5  C   UNL     1      36.897 -19.670 -19.988  0.00  0.00    -0.055 C 
ATOM      6  C   UNL     1      34.515 -19.563 -21.607  0.00  0.00    +0.068 C 
ATOM      7  C   UNL     1      36.885 -18.885 -21.302  0.00  0.00    +0.068 C 
ATOM      8  H   UNL     1      36.243 -21.418 -20.811  0.00  0.00    -0.080 HD
BRANCH   3  10
ATOM      9  S   UNL     1      34.487 -13.578 -22.284  0.00  0.00    -0.086 S 
ATOM     10  C   UNL     1      35.306 -17.432 -22.544  0.00  0.00    +0.048 C 
ATOM     11  C   UNL     1      35.018 -16.102 -22.096  0.00  0.00    +0.020 C 
ATOM     12  C   UNL     1      35.378 -17.669 -23.934  0.00  0.00    +0.015 C 
ATOM     13  C   UNL     1      34.818 -15.091 -23.042  0.00  0.00    +0.031 C 
ATOM     14  C   UNL     1      34.890 -15.595 -20.760  0.00  0.00    +0.009 C 
ATOM     15  C   UNL     1      35.176 -16.649 -24.854  0.00  0.00    +0.002 C 
ATOM     16  C   UNL     1      34.895 -15.350 -24.425  0.00  0.00    +0.007 C 
ATOM     17  C   UNL     1      34.605 -14.251 -20.723  0.00  0.00    +0.035 C 
ENDBRANCH   3  10
ENDBRANCH   1   2
BRANCH   1  18
ATOM     18  C   UNL     1      37.080 -20.990 -17.860  0.00  0.00    -0.019 C 
BRANCH  18  19
ATOM     19  C   UNL     1      37.457 -21.983 -16.763  0.00  0.00    +0.045 C 
BRANCH  19  20
ATOM     20  C   UNL     1      36.323 -22.175 -15.765  0.00  0.00    +0.205 C 
BRANCH  20  21
ATOM     21  O   UNL     1      35.710 -23.441 -15.971  0.00  0.00    -0.475 OA
BRANCH  21  24
ATOM     22  O   UNL     1      28.795 -22.046 -16.899  0.00  0.00    -0.270 OA
ATOM     23  N   UNL     1      31.037 -22.486 -16.612  0.00  0.00    -0.280 N 
ATOM     24  C   UNL     1      34.406 -23.570 -15.566  0.00  0.00    +0.140 C 
ATOM     25  C   UNL     1      33.396 -22.959 -16.300  0.00  0.00    +0.052 C 
ATOM     26  C   UNL     1      32.071 -23.098 -15.880  0.00  0.00    +0.054 C 
ATOM     27  C   UNL     1      34.112 -24.310 -14.426  0.00  0.00    +0.037 C 
ATOM     28  C   UNL     1      31.758 -23.838 -14.735  0.00  0.00    +0.014 C 
ATOM     29  C   UNL     1      32.785 -24.447 -14.008  0.00  0.00    +0.004 C 
ATOM     30  C   UNL     1      30.360 -23.958 -14.331  0.00  0.00    +0.006 C 
ATOM     31  C   UNL     1      29.704 -22.577 -16.263  0.00  0.00    +0.250 C 
ATOM     32  C   UNL     1      29.391 -23.369 -15.043  0.00  0.00    +0.058 C 
ATOM     33  H   UNL     1      31.276 -21.968 -17.415  0.00  0.00    +0.155 HD
ENDBRANCH  21  24
ENDBRANCH  20  21
ENDBRANCH  19  20
ENDBRANCH  18  19
ENDBRANCH   1  18
TORSDOF 7
ENDMDL
MODEL 3
REMARK VINA RESULT:     -11.8      1.378      2.671
REMARK  Name = 11978813
REMARK  7 active torsions:
REMARK  status: ('A' for Active; 'I' for Inactive)
REMARK    1  A    between atoms: C_1  and  N_2
REMARK    2  A    between atoms: C_1  and  C_18
REMARK    3  A    between atoms: N_3  and  C_10
REMARK    4  A    between atoms: C_18  and  C_19
REMARK    5  A    between atoms: C_19  and  C_20
REMARK    6  A    between atoms: C_20  and  O_21
REMARK    7  A    between atoms: O_21  and  C_24
REMARK                            x       y       z     vdW  Elec       q    Type
REMARK                         _______ _______ _______ _____ _____    ______ ____
ROOT
ATOM      1  C   UNL     1      33.637 -15.630 -25.150  0.00  0.00    -0.077 C 
ENDROOT
BRANCH   1   2
ATOM      2  N   UNL     1      33.397 -14.231 -24.799  0.00  0.00    +0.389 N 
ATOM      3  N   UNL     1      34.104 -11.507 -24.307  0.00  0.00    -0.312 N 
ATOM      4  C   UNL     1      34.151 -13.866 -23.594  0.00  0.00    -0.055 C 
ATOM      5  C   UNL     1      33.774 -13.349 -25.910  0.00  0.00    -0.055 C 
ATOM      6  C   UNL     1      33.863 -12.420 -23.183  0.00  0.00    +0.068 C 
ATOM      7  C   UNL     1      33.476 -11.885 -25.577  0.00  0.00    +0.068 C 
ATOM      8  H   UNL     1      32.401 -14.116 -24.612  0.00  0.00    -0.080 HD
BRANCH   3  10
ATOM      9  S   UNL     1      32.543  -7.315 -21.946  0.00  0.00    -0.086 S 
ATOM     10  C   UNL     1      34.333 -10.157 -24.021  0.00  0.00    +0.048 C 
ATOM     11  C   UNL     1      33.447  -9.388 -23.199  0.00  0.00    +0.020 C 
ATOM     12  C   UNL     1      35.473  -9.517 -24.555  0.00  0.00    +0.015 C 
ATOM     13  C   UNL     1      33.737  -8.041 -22.955  0.00  0.00    +0.031 C 
ATOM     14  C   UNL     1      32.236  -9.785 -22.541  0.00  0.00    +0.009 C 
ATOM     15  C   UNL     1      35.740  -8.179 -24.299  0.00  0.00    +0.002 C 
ATOM     16  C   UNL     1      34.880  -7.423 -23.498  0.00  0.00    +0.007 C 
ATOM     17  C   UNL     1      31.651  -8.763 -21.833  0.00  0.00    +0.035 C 
ENDBRANCH   3  10
ENDBRANCH   1   2
BRANCH   1  18
ATOM     18  C   UNL     1      34.768 -16.205 -24.299  0.00  0.00    -0.019 C 
BRANCH  18  19
ATOM     19  C   UNL     1      34.803 -17.730 -24.385  0.00  0.00    +0.045 C 
BRANCH  19  20
ATOM     20  C   UNL     1      35.273 -18.356 -23.078  0.00  0.00    +0.205 C 
BRANCH  20  21
ATOM     21  O   UNL     1      34.164 -18.915 -22.386  0.00  0.00    -0.475 OA
BRANCH  21  24
ATOM     22  O   UNL     1      31.966 -22.912 -16.926  0.00  0.00    -0.270 OA
ATOM     23  N   UNL     1      32.660 -21.613 -18.697  0.00  0.00    -0.280 N 
ATOM     24  C   UNL     1      34.446 -19.701 -21.300  0.00  0.00    +0.140 C 
ATOM     25  C   UNL     1      33.405 -20.249 -20.561  0.00  0.00    +0.052 C 
ATOM     26  C   UNL     1      33.702 -21.051 -19.455  0.00  0.00    +0.054 C 
ATOM     27  C   UNL     1      35.771 -19.940 -20.951  0.00  0.00    +0.037 C 
ATOM     28  C   UNL     1      35.030 -21.300 -19.092  0.00  0.00    +0.014 C 
ATOM     29  C   UNL     1      36.066 -20.742 -19.846  0.00  0.00    +0.004 C 
ATOM     30  C   UNL     1      35.298 -22.144 -17.930  0.00  0.00    +0.006 C 
ATOM     31  C   UNL     1      32.872 -22.415 -17.593  0.00  0.00    +0.250 C 
ATOM     32  C   UNL     1      34.290 -22.669 -17.222  0.00  0.00    +0.058 C 
ATOM     33  H   UNL     1      31.731 -21.426 -18.967  0.00  0.00    +0.155 HD
ENDBRANCH  21  24
ENDBRANCH  20  21
ENDBRANCH  19  20
ENDBRANCH  18  19
ENDBRANCH   1  18
TORSDOF 7
ENDMDL
MODEL 4
REMARK VINA RESULT:     -11.7      0.949      1.965
REMARK  Name = 11978813
REMARK  7 active torsions:
REMARK  status: ('A' for Active; 'I' for Inactive)
REMARK    1  A    between atoms: C_1  and  N_2
REMARK    2  A    between atoms: C_1  and  C_18
REMARK    3  A    between atoms: N_3  and  C_10
REMARK    4  A    between atoms: C_18  and  C_19
REMARK    5  A    between atoms: C_19  and  C_20
REMARK    6  A    between atoms: C_20  and  O_21
REMARK    7  A    between atoms: O_21  and  C_24
REMARK                            x       y       z     vdW  Elec       q    Type
REMARK                         _______ _______ _______ _____ _____    ______ ____
ROOT
ATOM      1  C   UNL     1      34.038 -16.511 -24.794  0.00  0.00    -0.077 C 
ENDROOT
BRANCH   1   2
ATOM      2  N   UNL     1      34.396 -15.098 -24.676  0.00  0.00    +0.389 N 
ATOM      3  N   UNL     1      34.016 -12.363 -23.944  0.00  0.00    -0.312 N 
ATOM      4  C   UNL     1      33.437 -14.261 -25.406  0.00  0.00    -0.055 C 
ATOM      5  C   UNL     1      34.440 -14.694 -23.266  0.00  0.00    -0.055 C 
ATOM      6  C   UNL     1      33.834 -12.784 -25.338  0.00  0.00    +0.068 C 
ATOM      7  C   UNL     1      34.869 -13.231 -23.126  0.00  0.00    +0.068 C 
ATOM      8  H   UNL     1      35.323 -14.970 -25.084  0.00  0.00    -0.080 HD
BRANCH   3  10
ATOM      9  S   UNL     1      31.765  -8.687 -21.297  0.00  0.00    -0.086 S 
ATOM     10  C   UNL     1      33.933 -10.997 -23.653  0.00  0.00    +0.048 C 
ATOM     11  C   UNL     1      32.994 -10.472 -22.707  0.00  0.00    +0.020 C 
ATOM     12  C   UNL     1      34.800 -10.094 -24.306  0.00  0.00    +0.015 C 
ATOM     13  C   UNL     1      32.966  -9.094 -22.464  0.00  0.00    +0.031 C 
ATOM     14  C   UNL     1      32.014 -11.158 -21.915  0.00  0.00    +0.009 C 
ATOM     15  C   UNL     1      34.753  -8.731 -24.049  0.00  0.00    +0.002 C 
ATOM     16  C   UNL     1      33.840  -8.212 -23.129  0.00  0.00    +0.007 C 
ATOM     17  C   UNL     1      31.286 -10.312 -21.113  0.00  0.00    +0.035 C 
ENDBRANCH   3  10
ENDBRANCH   1   2
BRANCH   1  18
ATOM     18  C   UNL     1      35.218 -17.394 -24.388  0.00  0.00    -0.019 C 
BRANCH  18  19
ATOM     19  C   UNL     1      34.740 -18.747 -23.866  0.00  0.00    +0.045 C 
BRANCH  19  20
ATOM     20  C   UNL     1      35.076 -18.931 -22.392  0.00  0.00    +0.205 C 
BRANCH  20  21
ATOM     21  O   UNL     1      33.944 -19.439 -21.699  0.00  0.00    -0.475 OA
BRANCH  21  24
ATOM     22  O   UNL     1      31.570 -23.324 -16.232  0.00  0.00    -0.270 OA
ATOM     23  N   UNL     1      32.321 -22.062 -18.005  0.00  0.00    -0.280 N 
ATOM     24  C   UNL     1      34.191 -20.223 -20.602  0.00  0.00    +0.140 C 
ATOM     25  C   UNL     1      33.126 -20.736 -19.871  0.00  0.00    +0.052 C 
ATOM     26  C   UNL     1      33.388 -21.535 -18.755  0.00  0.00    +0.054 C 
ATOM     27  C   UNL     1      35.504 -20.495 -20.235  0.00  0.00    +0.037 C 
ATOM     28  C   UNL     1      34.704 -21.817 -18.373  0.00  0.00    +0.014 C 
ATOM     29  C   UNL     1      35.764 -21.295 -19.118  0.00  0.00    +0.004 C 
ATOM     30  C   UNL     1      34.934 -22.657 -17.200  0.00  0.00    +0.006 C 
ATOM     31  C   UNL     1      32.498 -22.859 -16.891  0.00  0.00    +0.250 C 
ATOM     32  C   UNL     1      33.904 -23.149 -16.500  0.00  0.00    +0.058 C 
ATOM     33  H   UNL     1      31.401 -21.852 -18.288  0.00  0.00    +0.155 HD
ENDBRANCH  21  24
ENDBRANCH  20  21
ENDBRANCH  19  20
ENDBRANCH  18  19
ENDBRANCH   1  18
TORSDOF 7
ENDMDL
MODEL 5
REMARK VINA RESULT:     -11.4      1.948      2.837
REMARK  Name = 11978813
REMARK  7 active torsions:
REMARK  status: ('A' for Active; 'I' for Inactive)
REMARK    1  A    between atoms: C_1  and  N_2
REMARK    2  A    between atoms: C_1  and  C_18
REMARK    3  A    between atoms: N_3  and  C_10
REMARK    4  A    between atoms: C_18  and  C_19
REMARK    5  A    between atoms: C_19  and  C_20
REMARK    6  A    between atoms: C_20  and  O_21
REMARK    7  A    between atoms: O_21  and  C_24
REMARK                            x       y       z     vdW  Elec       q    Type
REMARK                         _______ _______ _______ _____ _____    ______ ____
ROOT
ATOM      1  C   UNL     1      34.797 -17.614 -24.400  0.00  0.00    -0.077 C 
ENDROOT
BRANCH   1   2
ATOM      2  N   UNL     1      34.864 -16.154 -24.368  0.00  0.00    +0.389 N 
ATOM      3  N   UNL     1      33.968 -13.514 -23.746  0.00  0.00    -0.312 N 
ATOM      4  C   UNL     1      33.724 -15.569 -25.084  0.00  0.00    -0.055 C 
ATOM      5  C   UNL     1      34.887 -15.669 -22.983  0.00  0.00    -0.055 C 
ATOM      6  C   UNL     1      33.814 -14.041 -25.107  0.00  0.00    +0.068 C 
ATOM      7  C   UNL     1      35.015 -14.144 -22.935  0.00  0.00    +0.068 C 
ATOM      8  H   UNL     1      35.727 -15.865 -24.832  0.00  0.00    -0.080 HD
BRANCH   3  10
ATOM      9  S   UNL     1      31.645 -10.156 -20.759  0.00  0.00    -0.086 S 
ATOM     10  C   UNL     1      33.622 -12.178 -23.515  0.00  0.00    +0.048 C 
ATOM     11  C   UNL     1      32.866 -11.770 -22.368  0.00  0.00    +0.020 C 
ATOM     12  C   UNL     1      34.025 -11.187 -24.437  0.00  0.00    +0.015 C 
ATOM     13  C   UNL     1      32.555 -10.417 -22.200  0.00  0.00    +0.031 C 
ATOM     14  C   UNL     1      32.339 -12.560 -21.293  0.00  0.00    +0.009 C 
ATOM     15  C   UNL     1      33.703  -9.849 -24.249  0.00  0.00    +0.002 C 
ATOM     16  C   UNL     1      32.967  -9.445 -23.133  0.00  0.00    +0.007 C 
ATOM     17  C   UNL     1      31.661 -11.813 -20.361  0.00  0.00    +0.035 C 
ENDBRANCH   3  10
ENDBRANCH   1   2
BRANCH   1  18
ATOM     18  C   UNL     1      35.687 -18.211 -23.311  0.00  0.00    -0.019 C 
BRANCH  18  19
ATOM     19  C   UNL     1      34.955 -19.307 -22.539  0.00  0.00    +0.045 C 
BRANCH  19  20
ATOM     20  C   UNL     1      35.214 -19.209 -21.042  0.00  0.00    +0.205 C 
BRANCH  20  21
ATOM     21  O   UNL     1      36.104 -20.242 -20.638  0.00  0.00    -0.475 OA
BRANCH  21  24
ATOM     22  O   UNL     1      37.840 -22.983 -14.306  0.00  0.00    -0.270 OA
ATOM     23  N   UNL     1      37.296 -22.091 -16.358  0.00  0.00    -0.280 N 
ATOM     24  C   UNL     1      35.761 -20.948 -19.514  0.00  0.00    +0.140 C 
ATOM     25  C   UNL     1      36.708 -21.154 -18.518  0.00  0.00    +0.052 C 
ATOM     26  C   UNL     1      36.349 -21.874 -17.376  0.00  0.00    +0.054 C 
ATOM     27  C   UNL     1      34.470 -21.449 -19.385  0.00  0.00    +0.037 C 
ATOM     28  C   UNL     1      35.055 -22.385 -17.232  0.00  0.00    +0.014 C 
ATOM     29  C   UNL     1      34.113 -22.169 -18.242  0.00  0.00    +0.004 C 
ATOM     30  C   UNL     1      34.720 -23.132 -16.022  0.00  0.00    +0.006 C 
ATOM     31  C   UNL     1      37.018 -22.791 -15.200  0.00  0.00    +0.250 C 
ATOM     32  C   UNL     1      35.637 -23.326 -15.065  0.00  0.00    +0.058 C 
ATOM     33  H   UNL     1      38.202 -21.724 -16.477  0.00  0.00    +0.155 HD
ENDBRANCH  21  24
ENDBRANCH  20  21
ENDBRANCH  19  20
ENDBRANCH  18  19
ENDBRANCH   1  18
TORSDOF 7
ENDMDL
MODEL 6
REMARK VINA RESULT:     -11.2      1.822      2.186
REMARK  Name = 11978813
REMARK  7 active torsions:
REMARK  status: ('A' for Active; 'I' for Inactive)
REMARK    1  A    between atoms: C_1  and  N_2
REMARK    2  A    between atoms: C_1  and  C_18
REMARK    3  A    between atoms: N_3  and  C_10
REMARK    4  A    between atoms: C_18  and  C_19
REMARK    5  A    between atoms: C_19  and  C_20
REMARK    6  A    between atoms: C_20  and  O_21
REMARK    7  A    between atoms: O_21  and  C_24
REMARK                            x       y       z     vdW  Elec       q    Type
REMARK                         _______ _______ _______ _____ _____    ______ ____
ROOT
ATOM      1  C   UNL     1      35.308 -17.063 -24.405  0.00  0.00    -0.077 C 
ENDROOT
BRANCH   1   2
ATOM      2  N   UNL     1      35.056 -15.653 -24.113  0.00  0.00    +0.389 N 
ATOM      3  N   UNL     1      33.634 -13.429 -23.023  0.00  0.00    -0.312 N 
ATOM      4  C   UNL     1      33.783 -15.224 -24.704  0.00  0.00    -0.055 C 
ATOM      5  C   UNL     1      35.038 -15.422 -22.664  0.00  0.00    -0.055 C 
ATOM      6  C   UNL     1      33.536 -13.734 -24.455  0.00  0.00    +0.068 C 
ATOM      7  C   UNL     1      34.831 -13.939 -22.346  0.00  0.00    +0.068 C 
ATOM      8  H   UNL     1      35.812 -15.104 -24.524  0.00  0.00    -0.080 HD
BRANCH   3  10
ATOM      9  S   UNL     1      33.286  -8.387 -23.252  0.00  0.00    -0.086 S 
ATOM     10  C   UNL     1      33.016 -12.264 -22.554  0.00  0.00    +0.048 C 
ATOM     11  C   UNL     1      33.367 -10.963 -23.041  0.00  0.00    +0.020 C 
ATOM     12  C   UNL     1      32.010 -12.360 -21.568  0.00  0.00    +0.015 C 
ATOM     13  C   UNL     1      32.708  -9.841 -22.528  0.00  0.00    +0.031 C 
ATOM     14  C   UNL     1      34.340 -10.588 -24.026  0.00  0.00    +0.009 C 
ATOM     15  C   UNL     1      31.370 -11.232 -21.074  0.00  0.00    +0.002 C 
ATOM     16  C   UNL     1      31.707  -9.960 -21.544  0.00  0.00    +0.007 C 
ATOM     17  C   UNL     1      34.396  -9.230 -24.233  0.00  0.00    +0.035 C 
ENDBRANCH   3  10
ENDBRANCH   1   2
BRANCH   1  18
ATOM     18  C   UNL     1      34.524 -17.954 -23.442  0.00  0.00    -0.019 C 
BRANCH  18  19
ATOM     19  C   UNL     1      35.402 -19.075 -22.887  0.00  0.00    +0.045 C 
BRANCH  19  20
ATOM     20  C   UNL     1      35.087 -19.363 -21.426  0.00  0.00    +0.205 C 
BRANCH  20  21
ATOM     21  O   UNL     1      36.055 -20.257 -20.892  0.00  0.00    -0.475 OA
BRANCH  21  24
ATOM     22  O   UNL     1      37.851 -22.826 -14.505  0.00  0.00    -0.270 OA
ATOM     23  N   UNL     1      37.287 -21.990 -16.575  0.00  0.00    -0.280 N 
ATOM     24  C   UNL     1      35.718 -20.916 -19.738  0.00  0.00    +0.140 C 
ATOM     25  C   UNL     1      36.680 -21.112 -18.754  0.00  0.00    +0.052 C 
ATOM     26  C   UNL     1      36.326 -21.784 -17.581  0.00  0.00    +0.054 C 
ATOM     27  C   UNL     1      34.418 -21.379 -19.567  0.00  0.00    +0.037 C 
ATOM     28  C   UNL     1      35.023 -22.256 -17.394  0.00  0.00    +0.014 C 
ATOM     29  C   UNL     1      34.066 -22.051 -18.393  0.00  0.00    +0.004 C 
ATOM     30  C   UNL     1      34.694 -22.953 -16.153  0.00  0.00    +0.006 C 
ATOM     31  C   UNL     1      37.016 -22.644 -15.389  0.00  0.00    +0.250 C 
ATOM     32  C   UNL     1      35.625 -23.139 -15.209  0.00  0.00    +0.058 C 
ATOM     33  H   UNL     1      38.201 -21.652 -16.724  0.00  0.00    +0.155 HD
ENDBRANCH  21  24
ENDBRANCH  20  21
ENDBRANCH  19  20
ENDBRANCH  18  19
ENDBRANCH   1  18
TORSDOF 7
ENDMDL
MODEL 7
REMARK VINA RESULT:     -11.2      3.832      7.481
REMARK  Name = 11978813
REMARK  7 active torsions:
REMARK  status: ('A' for Active; 'I' for Inactive)
REMARK    1  A    between atoms: C_1  and  N_2
REMARK    2  A    between atoms: C_1  and  C_18
REMARK    3  A    between atoms: N_3  and  C_10
REMARK    4  A    between atoms: C_18  and  C_19
REMARK    5  A    between atoms: C_19  and  C_20
REMARK    6  A    between atoms: C_20  and  O_21
REMARK    7  A    between atoms: O_21  and  C_24
REMARK                            x       y       z     vdW  Elec       q    Type
REMARK                         _______ _______ _______ _____ _____    ______ ____
ROOT
ATOM      1  C   UNL     1      31.726  -9.527 -19.886  0.00  0.00    -0.077 C 
ENDROOT
BRANCH   1   2
ATOM      2  N   UNL     1      32.576  -8.882 -20.885  0.00  0.00    +0.389 N 
ATOM      3  N   UNL     1      33.272  -6.924 -22.845  0.00  0.00    -0.312 N 
ATOM      4  C   UNL     1      31.918  -8.878 -22.196  0.00  0.00    -0.055 C 
ATOM      5  C   UNL     1      32.893  -7.507 -20.481  0.00  0.00    -0.055 C 
ATOM      6  C   UNL     1      32.822  -8.257 -23.263  0.00  0.00    +0.068 C 
ATOM      7  C   UNL     1      33.829  -6.839 -21.491  0.00  0.00    +0.068 C 
ATOM      8  H   UNL     1      33.444  -9.413 -20.954  0.00  0.00    -0.080 HD
BRANCH   3  10
ATOM      9  S   UNL     1      32.387  -2.720 -25.517  0.00  0.00    -0.086 S 
ATOM     10  C   UNL     1      33.712  -6.037 -23.834  0.00  0.00    +0.048 C 
ATOM     11  C   UNL     1      32.956  -4.883 -24.219  0.00  0.00    +0.020 C 
ATOM     12  C   UNL     1      34.944  -6.276 -24.483  0.00  0.00    +0.015 C 
ATOM     13  C   UNL     1      33.456  -4.039 -25.216  0.00  0.00    +0.031 C 
ATOM     14  C   UNL     1      31.692  -4.413 -23.727  0.00  0.00    +0.009 C 
ATOM     15  C   UNL     1      35.420  -5.424 -25.470  0.00  0.00    +0.002 C 
ATOM     16  C   UNL     1      34.687  -4.297 -25.850  0.00  0.00    +0.007 C 
ATOM     17  C   UNL     1      31.275  -3.258 -24.343  0.00  0.00    +0.035 C 
ENDBRANCH   3  10
ENDBRANCH   1   2
BRANCH   1  18
ATOM     18  C   UNL     1      31.177 -10.847 -20.427  0.00  0.00    -0.019 C 
BRANCH  18  19
ATOM     19  C   UNL     1      32.225 -11.955 -20.348  0.00  0.00    +0.045 C 
BRANCH  19  20
ATOM     20  C   UNL     1      32.401 -12.658 -21.687  0.00  0.00    +0.205 C 
BRANCH  20  21
ATOM     21  O   UNL     1      33.783 -12.732 -22.014  0.00  0.00    -0.475 OA
BRANCH  21  24
ATOM     22  O   UNL     1      36.522 -19.115 -20.475  0.00  0.00    -0.270 OA
ATOM     23  N   UNL     1      35.637 -17.045 -20.956  0.00  0.00    -0.280 N 
ATOM     24  C   UNL     1      34.257 -13.952 -22.422  0.00  0.00    +0.140 C 
ATOM     25  C   UNL     1      34.703 -14.866 -21.476  0.00  0.00    +0.052 C 
ATOM     26  C   UNL     1      35.183 -16.107 -21.901  0.00  0.00    +0.054 C 
ATOM     27  C   UNL     1      34.287 -14.258 -23.779  0.00  0.00    +0.037 C 
ATOM     28  C   UNL     1      35.220 -16.430 -23.262  0.00  0.00    +0.014 C 
ATOM     29  C   UNL     1      34.768 -15.499 -24.202  0.00  0.00    +0.004 C 
ATOM     30  C   UNL     1      35.730 -17.738 -23.665  0.00  0.00    +0.006 C 
ATOM     31  C   UNL     1      36.125 -18.291 -21.296  0.00  0.00    +0.250 C 
ATOM     32  C   UNL     1      36.156 -18.615 -22.748  0.00  0.00    +0.058 C 
ATOM     33  H   UNL     1      35.605 -16.800 -20.002  0.00  0.00    +0.155 HD
ENDBRANCH  21  24
ENDBRANCH  20  21
ENDBRANCH  19  20
ENDBRANCH  18  19
ENDBRANCH   1  18
TORSDOF 7
ENDMDL
MODEL 8
REMARK VINA RESULT:     -11.1      3.471      6.244
REMARK  Name = 11978813
REMARK  7 active torsions:
REMARK  status: ('A' for Active; 'I' for Inactive)
REMARK    1  A    between atoms: C_1  and  N_2
REMARK    2  A    between atoms: C_1  and  C_18
REMARK    3  A    between atoms: N_3  and  C_10
REMARK    4  A    between atoms: C_18  and  C_19
REMARK    5  A    between atoms: C_19  and  C_20
REMARK    6  A    between atoms: C_20  and  O_21
REMARK    7  A    between atoms: O_21  and  C_24
REMARK                            x       y       z     vdW  Elec       q    Type
REMARK                         _______ _______ _______ _____ _____    ______ ____
ROOT
ATOM      1  C   UNL     1      35.594 -21.485 -18.934  0.00  0.00    -0.077 C 
ENDROOT
BRANCH   1   2
ATOM      2  N   UNL     1      35.609 -20.701 -20.168  0.00  0.00    +0.389 N 
ATOM      3  N   UNL     1      35.352 -18.348 -21.767  0.00  0.00    -0.312 N 
ATOM      4  C   UNL     1      34.286 -20.120 -20.426  0.00  0.00    -0.055 C 
ATOM      5  C   UNL     1      36.616 -19.636 -20.090  0.00  0.00    -0.055 C 
ATOM      6  C   UNL     1      34.275 -19.344 -21.745  0.00  0.00    +0.068 C 
ATOM      7  C   UNL     1      36.682 -18.844 -21.398  0.00  0.00    +0.068 C 
ATOM      8  H   UNL     1      35.850 -21.326 -20.938  0.00  0.00    -0.080 HD
BRANCH   3  10
ATOM      9  S   UNL     1      34.569 -13.388 -22.380  0.00  0.00    -0.086 S 
ATOM     10  C   UNL     1      35.235 -17.270 -22.652  0.00  0.00    +0.048 C 
ATOM     11  C   UNL     1      34.981 -15.934 -22.201  0.00  0.00    +0.020 C 
ATOM     12  C   UNL     1      35.368 -17.493 -24.040  0.00  0.00    +0.015 C 
ATOM     13  C   UNL     1      34.874 -14.904 -23.141  0.00  0.00    +0.031 C 
ATOM     14  C   UNL     1      34.805 -15.438 -20.867  0.00  0.00    +0.009 C 
ATOM     15  C   UNL     1      35.258 -16.455 -24.954  0.00  0.00    +0.002 C 
ATOM     16  C   UNL     1      35.011 -15.150 -24.522  0.00  0.00    +0.007 C 
ATOM     17  C   UNL     1      34.577 -14.084 -20.824  0.00  0.00    +0.035 C 
ENDBRANCH   3  10
ENDBRANCH   1   2
BRANCH   1  18
ATOM     18  C   UNL     1      34.537 -22.586 -19.017  0.00  0.00    -0.019 C 
BRANCH  18  19
ATOM     19  C   UNL     1      33.319 -22.248 -18.159  0.00  0.00    +0.045 C 
BRANCH  19  20
ATOM     20  C   UNL     1      33.313 -23.036 -16.856  0.00  0.00    +0.205 C 
BRANCH  20  21
ATOM     21  O   UNL     1      34.513 -23.789 -16.744  0.00  0.00    -0.475 OA
BRANCH  21  24
ATOM     22  O   UNL     1      35.495 -24.974  -9.797  0.00  0.00    -0.270 OA
ATOM     23  N   UNL     1      35.161 -24.599 -12.044  0.00  0.00    -0.280 N 
ATOM     24  C   UNL     1      35.248 -23.613 -15.600  0.00  0.00    +0.140 C 
ATOM     25  C   UNL     1      34.821 -24.198 -14.413  0.00  0.00    +0.052 C 
ATOM     26  C   UNL     1      35.578 -24.014 -13.253  0.00  0.00    +0.054 C 
ATOM     27  C   UNL     1      36.411 -22.852 -15.642  0.00  0.00    +0.037 C 
ATOM     28  C   UNL     1      36.750 -23.251 -13.279  0.00  0.00    +0.014 C 
ATOM     29  C   UNL     1      37.167 -22.669 -14.481  0.00  0.00    +0.004 C 
ATOM     30  C   UNL     1      37.513 -23.083 -12.045  0.00  0.00    +0.006 C 
ATOM     31  C   UNL     1      35.853 -24.464 -10.857  0.00  0.00    +0.250 C 
ATOM     32  C   UNL     1      37.097 -23.649 -10.905  0.00  0.00    +0.058 C 
ATOM     33  H   UNL     1      34.332 -25.132 -12.044  0.00  0.00    +0.155 HD
ENDBRANCH  21  24
ENDBRANCH  20  21
ENDBRANCH  19  20
ENDBRANCH  18  19
ENDBRANCH   1  18
TORSDOF 7
ENDMDL
MODEL 9
REMARK VINA RESULT:     -10.9      4.038     11.196
REMARK  Name = 11978813
REMARK  7 active torsions:
REMARK  status: ('A' for Active; 'I' for Inactive)
REMARK    1  A    between atoms: C_1  and  N_2
REMARK    2  A    between atoms: C_1  and  C_18
REMARK    3  A    between atoms: N_3  and  C_10
REMARK    4  A    between atoms: C_18  and  C_19
REMARK    5  A    between atoms: C_19  and  C_20
REMARK    6  A    between atoms: C_20  and  O_21
REMARK    7  A    between atoms: O_21  and  C_24
REMARK                            x       y       z     vdW  Elec       q    Type
REMARK                         _______ _______ _______ _____ _____    ______ ____
ROOT
ATOM      1  C   UNL     1      36.672 -21.309 -18.322  0.00  0.00    -0.077 C 
ENDROOT
BRANCH   1   2
ATOM      2  N   UNL     1      35.806 -22.271 -17.641  0.00  0.00    +0.389 N 
ATOM      3  N   UNL     1      33.622 -23.110 -16.003  0.00  0.00    -0.312 N 
ATOM      4  C   UNL     1      35.844 -22.061 -16.189  0.00  0.00    -0.055 C 
ATOM      5  C   UNL     1      34.426 -22.156 -18.127  0.00  0.00    -0.055 C 
ATOM      6  C   UNL     1      34.986 -23.098 -15.461  0.00  0.00    +0.068 C 
ATOM      7  C   UNL     1      33.520 -23.195 -17.463  0.00  0.00    +0.068 C 
ATOM      8  H   UNL     1      36.150 -23.209 -17.847  0.00  0.00    -0.080 HD
BRANCH   3  10
ATOM      9  S   UNL     1      28.659 -23.456 -15.087  0.00  0.00    -0.086 S 
ATOM     10  C   UNL     1      32.601 -23.638 -15.204  0.00  0.00    +0.048 C 
ATOM     11  C   UNL     1      31.217 -23.360 -15.449  0.00  0.00    +0.020 C 
ATOM     12  C   UNL     1      32.933 -24.475 -14.116  0.00  0.00    +0.015 C 
ATOM     13  C   UNL     1      30.249 -23.921 -14.610  0.00  0.00    +0.031 C 
ATOM     14  C   UNL     1      30.614 -22.554 -16.471  0.00  0.00    +0.009 C 
ATOM     15  C   UNL     1      31.954 -25.020 -13.297  0.00  0.00    +0.002 C 
ATOM     16  C   UNL     1      30.603 -24.753 -13.530  0.00  0.00    +0.007 C 
ATOM     17  C   UNL     1      29.243 -22.522 -16.388  0.00  0.00    +0.035 C 
ENDBRANCH   3  10
ENDBRANCH   1   2
BRANCH   1  18
ATOM     18  C   UNL     1      36.116 -20.980 -19.706  0.00  0.00    -0.019 C 
BRANCH  18  19
ATOM     19  C   UNL     1      36.793 -19.743 -20.294  0.00  0.00    +0.045 C 
BRANCH  19  20
ATOM     20  C   UNL     1      35.932 -19.086 -21.364  0.00  0.00    +0.205 C 
BRANCH  20  21
ATOM     21  O   UNL     1      35.982 -17.672 -21.222  0.00  0.00    -0.475 OA
BRANCH  21  24
ATOM     22  O   UNL     1      33.873 -11.403 -23.841  0.00  0.00    -0.270 OA
ATOM     23  N   UNL     1      34.558 -13.424 -22.977  0.00  0.00    -0.280 N 
ATOM     24  C   UNL     1      35.453 -16.928 -22.245  0.00  0.00    +0.140 C 
ATOM     25  C   UNL     1      35.279 -15.560 -22.079  0.00  0.00    +0.052 C 
ATOM     26  C   UNL     1      34.741 -14.810 -23.128  0.00  0.00    +0.054 C 
ATOM     27  C   UNL     1      35.099 -17.554 -23.435  0.00  0.00    +0.037 C 
ATOM     28  C   UNL     1      34.378 -15.425 -24.332  0.00  0.00    +0.014 C 
ATOM     29  C   UNL     1      34.560 -16.803 -24.483  0.00  0.00    +0.004 C 
ATOM     30  C   UNL     1      33.819 -14.605 -25.404  0.00  0.00    +0.006 C 
ATOM     31  C   UNL     1      34.033 -12.615 -23.966  0.00  0.00    +0.250 C 
ATOM     32  C   UNL     1      33.654 -13.287 -25.238  0.00  0.00    +0.058 C 
ATOM     33  H   UNL     1      34.818 -13.008 -22.122  0.00  0.00    +0.155 HD
ENDBRANCH  21  24
ENDBRANCH  20  21
ENDBRANCH  19  20
ENDBRANCH  18  19
ENDBRANCH   1  18
TORSDOF 7
ENDMDL
