MODEL 1
REMARK VINA RESULT:     -12.0      0.000      0.000
REMARK  Name = 10172943
REMARK  7 active torsions:
REMARK  status: ('A' for Active; 'I' for Inactive)
REMARK    1  A    between atoms: O_1  and  C_3
REMARK    2  A    between atoms: O_1  and  C_19
REMARK    3  A    between atoms: C_4  and  C_11
REMARK    4  A    between atoms: C_19  and  C_20
REMARK    5  A    between atoms: C_20  and  N_21
REMARK    6  A    between atoms: C_20  and  C_25
REMARK    7  A    between atoms: C_25  and  C_27
REMARK                            x       y       z     vdW  Elec       q    Type
REMARK                         _______ _______ _______ _____ _____    ______ ____
ROOT
ATOM      1  O   UNL     1      34.656 -17.845 -23.411  0.00  0.00    -0.476 OA
ENDROOT
BRANCH   1   3
ATOM      2  N   UNL     1      37.755 -18.604 -21.649  0.00  0.00    -0.239 NA
ATOM      3  C   UNL     1      35.513 -18.396 -22.493  0.00  0.00    +0.158 C 
ATOM      4  C   UNL     1      35.932 -19.799 -20.602  0.00  0.00    +0.022 C 
ATOM      5  C   UNL     1      35.040 -19.258 -21.520  0.00  0.00    +0.040 C 
ATOM      6  C   UNL     1      36.857 -18.098 -22.524  0.00  0.00    +0.136 C 
ATOM      7  C   UNL     1      37.268 -19.445 -20.708  0.00  0.00    +0.099 C 
BRANCH   4  11
ATOM      8  N   UNL     1      35.460 -23.247 -15.963  0.00  0.00    -0.280 N 
ATOM      9  N   UNL     1      34.277 -23.259 -16.608  0.00  0.00    -0.173 NA
ATOM     10  C   UNL     1      35.805 -21.932 -17.640  0.00  0.00    +0.032 A 
ATOM     11  C   UNL     1      35.482 -20.703 -19.569  0.00  0.00    +0.002 C 
ATOM     12  C   UNL     1      34.456 -22.446 -17.664  0.00  0.00    +0.102 A 
ATOM     13  C   UNL     1      36.391 -21.062 -18.550  0.00  0.00    +0.003 C 
ATOM     14  C   UNL     1      36.417 -22.465 -16.540  0.00  0.00    +0.053 A 
ATOM     15  C   UNL     1      34.133 -21.188 -19.632  0.00  0.00    +0.002 C 
ATOM     16  C   UNL     1      33.568 -22.074 -18.689  0.00  0.00    +0.021 C 
ATOM     17  C   UNL     1      37.768 -22.333 -15.968  0.00  0.00    +0.051 C 
ATOM     18  H   UNL     1      35.621 -23.763 -15.140  0.00  0.00    +0.189 HD
ENDBRANCH   4  11
ENDBRANCH   1   3
BRANCH   1  19
ATOM     19  C   UNL     1      35.244 -17.108 -24.474  0.00  0.00    +0.184 C 
BRANCH  19  20
ATOM     20  C   UNL     1      34.713 -15.669 -24.532  0.00  0.00    -0.017 C 
BRANCH  20  21
ATOM     21  N   UNL     1      33.360 -15.692 -25.101  0.00  0.00    +0.384 N 
ATOM     22  H   UNL     1      32.845 -14.870 -24.783  0.00  0.00    -0.089 HD
ATOM     23  H   UNL     1      32.877 -16.536 -24.794  0.00  0.00    -0.089 HD
ATOM     24  H   UNL     1      33.419 -15.685 -26.119  0.00  0.00    -0.089 HD
ENDBRANCH  20  21
BRANCH  20  25
ATOM     25  C   UNL     1      34.680 -14.962 -23.151  0.00  0.00    +0.009 C 
BRANCH  25  27
ATOM     26  N   UNL     1      33.717 -11.510 -23.845  0.00  0.00    -0.312 N 
ATOM     27  C   UNL     1      34.154 -13.583 -23.183  0.00  0.00    -0.008 C 
ATOM     28  C   UNL     1      33.341 -12.962 -22.194  0.00  0.00    +0.011 C 
ATOM     29  C   UNL     1      33.081 -11.662 -22.634  0.00  0.00    +0.048 C 
ATOM     30  C   UNL     1      34.369 -12.664 -24.186  0.00  0.00    +0.058 C 
ATOM     31  C   UNL     1      32.799 -13.383 -20.964  0.00  0.00    +0.001 C 
ATOM     32  C   UNL     1      32.303 -10.758 -21.901  0.00  0.00    +0.015 C 
ATOM     33  C   UNL     1      32.018 -12.490 -20.220  0.00  0.00    +0.000 C 
ATOM     34  C   UNL     1      31.775 -11.199 -20.684  0.00  0.00    +0.001 C 
ATOM     35  H   UNL     1      33.705 -10.688 -24.387  0.00  0.00    +0.152 HD
ENDBRANCH  25  27
ENDBRANCH  20  25
ENDBRANCH  19  20
ENDBRANCH   1  19
TORSDOF 7
ENDMDL
MODEL 2
REMARK VINA RESULT:     -11.8      2.560     10.856
REMARK  Name = 10172943
REMARK  7 active torsions:
REMARK  status: ('A' for Active; 'I' for Inactive)
REMARK    1  A    between atoms: O_1  and  C_3
REMARK    2  A    between atoms: O_1  and  C_19
REMARK    3  A    between atoms: C_4  and  C_11
REMARK    4  A    between atoms: C_19  and  C_20
REMARK    5  A    between atoms: C_20  and  N_21
REMARK    6  A    between atoms: C_20  and  C_25
REMARK    7  A    between atoms: C_25  and  C_27
REMARK                            x       y       z     vdW  Elec       q    Type
REMARK                         _______ _______ _______ _____ _____    ______ ____
ROOT
ATOM      1  O   UNL     1      34.366 -15.094 -23.052  0.00  0.00    -0.476 OA
ENDROOT
BRANCH   1   3
ATOM      2  N   UNL     1      33.535 -13.489 -26.216  0.00  0.00    -0.239 NA
ATOM      3  C   UNL     1      34.165 -14.104 -23.979  0.00  0.00    +0.158 C 
ATOM      4  C   UNL     1      34.157 -11.796 -24.605  0.00  0.00    +0.022 C 
ATOM      5  C   UNL     1      34.371 -12.778 -23.645  0.00  0.00    +0.040 C 
ATOM      6  C   UNL     1      33.753 -14.415 -25.256  0.00  0.00    +0.136 C 
ATOM      7  C   UNL     1      33.744 -12.200 -25.866  0.00  0.00    +0.099 C 
BRANCH   4  11
ATOM      8  N   UNL     1      33.758  -6.360 -22.625  0.00  0.00    -0.280 N 
ATOM      9  N   UNL     1      34.865  -6.441 -23.390  0.00  0.00    -0.173 NA
ATOM     10  C   UNL     1      33.755  -8.419 -23.272  0.00  0.00    +0.032 A 
ATOM     11  C   UNL     1      34.359 -10.399 -24.300  0.00  0.00    +0.002 C 
ATOM     12  C   UNL     1      34.895  -7.716 -23.813  0.00  0.00    +0.102 A 
ATOM     13  C   UNL     1      33.419  -9.753 -23.468  0.00  0.00    +0.003 C 
ATOM     14  C   UNL     1      33.052  -7.522 -22.519  0.00  0.00    +0.053 A 
ATOM     15  C   UNL     1      35.505  -9.741 -24.858  0.00  0.00    +0.002 C 
ATOM     16  C   UNL     1      35.819  -8.381 -24.640  0.00  0.00    +0.021 C 
ATOM     17  C   UNL     1      31.818  -7.616 -21.721  0.00  0.00    +0.051 C 
ATOM     18  H   UNL     1      33.481  -5.528 -22.178  0.00  0.00    +0.189 HD
ENDBRANCH   4  11
ENDBRANCH   1   3
BRANCH   1  19
ATOM     19  C   UNL     1      35.106 -16.230 -23.478  0.00  0.00    +0.184 C 
BRANCH  19  20
ATOM     20  C   UNL     1      35.605 -17.064 -22.291  0.00  0.00    -0.017 C 
BRANCH  20  21
ATOM     21  N   UNL     1      35.255 -16.366 -21.047  0.00  0.00    +0.384 N 
ATOM     22  H   UNL     1      34.247 -16.210 -21.018  0.00  0.00    -0.089 HD
ATOM     23  H   UNL     1      35.741 -15.470 -21.013  0.00  0.00    -0.089 HD
ATOM     24  H   UNL     1      35.534 -16.936 -20.249  0.00  0.00    -0.089 HD
ENDBRANCH  20  21
BRANCH  20  25
ATOM     25  C   UNL     1      35.024 -18.503 -22.254  0.00  0.00    +0.009 C 
BRANCH  25  27
ATOM     26  N   UNL     1      36.985 -20.328 -19.774  0.00  0.00    -0.312 N 
ATOM     27  C   UNL     1      35.568 -19.355 -21.177  0.00  0.00    -0.008 C 
ATOM     28  C   UNL     1      34.830 -20.238 -20.341  0.00  0.00    +0.011 C 
ATOM     29  C   UNL     1      35.743 -20.837 -19.470  0.00  0.00    +0.048 C 
ATOM     30  C   UNL     1      36.891 -19.432 -20.805  0.00  0.00    +0.058 C 
ATOM     31  C   UNL     1      33.468 -20.586 -20.240  0.00  0.00    +0.001 C 
ATOM     32  C   UNL     1      35.360 -21.770 -18.499  0.00  0.00    +0.015 C 
ATOM     33  C   UNL     1      33.071 -21.518 -19.274  0.00  0.00    +0.000 C 
ATOM     34  C   UNL     1      34.004 -22.099 -18.418  0.00  0.00    +0.001 C 
ATOM     35  H   UNL     1      37.822 -20.575 -19.317  0.00  0.00    +0.152 HD
ENDBRANCH  25  27
ENDBRANCH  20  25
ENDBRANCH  19  20
ENDBRANCH   1  19
TORSDOF 7
ENDMDL
MODEL 3
REMARK VINA RESULT:     -11.8      2.612      4.981
REMARK  Name = 10172943
REMARK  7 active torsions:
REMARK  status: ('A' for Active; 'I' for Inactive)
REMARK    1  A    between atoms: O_1  and  C_3
REMARK    2  A    between atoms: O_1  and  C_19
REMARK    3  A    between atoms: C_4  and  C_11
REMARK    4  A    between atoms: C_19  and  C_20
REMARK    5  A    between atoms: C_20  and  N_21
REMARK    6  A    between atoms: C_20  and  C_25
REMARK    7  A    between atoms: C_25  and  C_27
REMARK                            x       y       z     vdW  Elec       q    Type
REMARK                         _______ _______ _______ _____ _____    ______ ____
ROOT
ATOM      1  O   UNL     1      34.615 -13.179 -23.339  0.00  0.00    -0.476 OA
ENDROOT
BRANCH   1   3
ATOM      2  N   UNL     1      34.126 -16.211 -25.300  0.00  0.00    -0.239 NA
ATOM      3  C   UNL     1      34.610 -14.509 -23.673  0.00  0.00    +0.158 C 
ATOM      4  C   UNL     1      35.050 -16.799 -23.145  0.00  0.00    +0.022 C 
ATOM      5  C   UNL     1      35.064 -15.459 -22.777  0.00  0.00    +0.040 C 
ATOM      6  C   UNL     1      34.156 -14.918 -24.907  0.00  0.00    +0.136 C 
ATOM      7  C   UNL     1      34.574 -17.121 -24.406  0.00  0.00    +0.099 C 
BRANCH   4  11
ATOM      8  N   UNL     1      35.515 -21.198 -19.394  0.00  0.00    -0.280 N 
ATOM      9  N   UNL     1      36.759 -20.755 -19.667  0.00  0.00    -0.173 NA
ATOM     10  C   UNL     1      35.164 -19.585 -20.785  0.00  0.00    +0.032 A 
ATOM     11  C   UNL     1      35.515 -17.825 -22.241  0.00  0.00    +0.002 C 
ATOM     12  C   UNL     1      36.577 -19.744 -20.534  0.00  0.00    +0.102 A 
ATOM     13  C   UNL     1      34.557 -18.655 -21.619  0.00  0.00    +0.003 C 
ATOM     14  C   UNL     1      34.517 -20.530 -20.040  0.00  0.00    +0.053 A 
ATOM     15  C   UNL     1      36.928 -17.948 -22.022  0.00  0.00    +0.002 C 
ATOM     16  C   UNL     1      37.514 -18.905 -21.165  0.00  0.00    +0.021 C 
ATOM     17  C   UNL     1      33.099 -20.883 -19.861  0.00  0.00    +0.051 C 
ATOM     18  H   UNL     1      35.342 -21.946 -18.778  0.00  0.00    +0.189 HD
ENDBRANCH   4  11
ENDBRANCH   1   3
BRANCH   1  19
ATOM     19  C   UNL     1      34.220 -12.263 -24.351  0.00  0.00    +0.184 C 
BRANCH  19  20
ATOM     20  C   UNL     1      34.439 -10.807 -23.920  0.00  0.00    -0.017 C 
BRANCH  20  21
ATOM     21  N   UNL     1      35.528 -10.239 -24.724  0.00  0.00    +0.384 N 
ATOM     22  H   UNL     1      35.243 -10.203 -25.703  0.00  0.00    -0.089 HD
ATOM     23  H   UNL     1      36.359 -10.822 -24.632  0.00  0.00    -0.089 HD
ATOM     24  H   UNL     1      35.736  -9.296 -24.396  0.00  0.00    -0.089 HD
ENDBRANCH  20  21
BRANCH  20  25
ATOM     25  C   UNL     1      33.175  -9.919 -24.064  0.00  0.00    +0.009 C 
BRANCH  25  27
ATOM     26  N   UNL     1      31.848  -9.070 -20.770  0.00  0.00    -0.312 N 
ATOM     27  C   UNL     1      32.709  -9.309 -22.801  0.00  0.00    -0.008 C 
ATOM     28  C   UNL     1      32.762  -7.930 -22.456  0.00  0.00    +0.011 C 
ATOM     29  C   UNL     1      32.215  -7.807 -21.177  0.00  0.00    +0.048 C 
ATOM     30  C   UNL     1      32.141  -9.985 -21.745  0.00  0.00    +0.058 C 
ATOM     31  C   UNL     1      33.224  -6.771 -23.110  0.00  0.00    +0.001 C 
ATOM     32  C   UNL     1      32.108  -6.577 -20.516  0.00  0.00    +0.015 C 
ATOM     33  C   UNL     1      33.124  -5.535 -22.462  0.00  0.00    +0.000 C 
ATOM     34  C   UNL     1      32.574  -5.442 -21.185  0.00  0.00    +0.001 C 
ATOM     35  H   UNL     1      31.432  -9.283 -19.903  0.00  0.00    +0.152 HD
ENDBRANCH  25  27
ENDBRANCH  20  25
ENDBRANCH  19  20
ENDBRANCH   1  19
TORSDOF 7
ENDMDL
MODEL 4
REMARK VINA RESULT:     -11.7      2.770      4.536
REMARK  Name = 10172943
REMARK  7 active torsions:
REMARK  status: ('A' for Active; 'I' for Inactive)
REMARK    1  A    between atoms: O_1  and  C_3
REMARK    2  A    between atoms: O_1  and  C_19
REMARK    3  A    between atoms: C_4  and  C_11
REMARK    4  A    between atoms: C_19  and  C_20
REMARK    5  A    between atoms: C_20  and  N_21
REMARK    6  A    between atoms: C_20  and  C_25
REMARK    7  A    between atoms: C_25  and  C_27
REMARK                            x       y       z     vdW  Elec       q    Type
REMARK                         _______ _______ _______ _____ _____    ______ ____
ROOT
ATOM      1  O   UNL     1      35.015 -13.857 -23.325  0.00  0.00    -0.476 OA
ENDROOT
BRANCH   1   3
ATOM      2  N   UNL     1      34.519 -17.004 -25.094  0.00  0.00    -0.239 NA
ATOM      3  C   UNL     1      34.977 -15.206 -23.564  0.00  0.00    +0.158 C 
ATOM      4  C   UNL     1      35.296 -17.466 -22.851  0.00  0.00    +0.022 C 
ATOM      5  C   UNL     1      35.342 -16.104 -22.578  0.00  0.00    +0.040 C 
ATOM      6  C   UNL     1      34.578 -15.688 -24.792  0.00  0.00    +0.136 C 
ATOM      7  C   UNL     1      34.880 -17.862 -24.112  0.00  0.00    +0.099 C 
BRANCH   4  11
ATOM      8  N   UNL     1      35.387 -21.662 -18.849  0.00  0.00    -0.280 N 
ATOM      9  N   UNL     1      36.650 -21.220 -19.012  0.00  0.00    -0.173 NA
ATOM     10  C   UNL     1      35.176 -20.126 -20.350  0.00  0.00    +0.032 A 
ATOM     11  C   UNL     1      35.669 -18.439 -21.851  0.00  0.00    +0.002 C 
ATOM     12  C   UNL     1      36.555 -20.257 -19.945  0.00  0.00    +0.102 A 
ATOM     13  C   UNL     1      34.655 -19.247 -21.291  0.00  0.00    +0.003 C 
ATOM     14  C   UNL     1      34.459 -21.039 -19.630  0.00  0.00    +0.053 A 
ATOM     15  C   UNL     1      37.051 -18.535 -21.479  0.00  0.00    +0.002 C 
ATOM     16  C   UNL     1      37.549 -19.441 -20.517  0.00  0.00    +0.021 C 
ATOM     17  C   UNL     1      33.031 -21.397 -19.583  0.00  0.00    +0.051 C 
ATOM     18  H   UNL     1      35.154 -22.379 -18.216  0.00  0.00    +0.189 HD
ENDBRANCH   4  11
ENDBRANCH   1   3
BRANCH   1  19
ATOM     19  C   UNL     1      33.872 -13.105 -23.712  0.00  0.00    +0.184 C 
BRANCH  19  20
ATOM     20  C   UNL     1      34.253 -11.709 -24.223  0.00  0.00    -0.017 C 
BRANCH  20  21
ATOM     21  N   UNL     1      34.065 -11.675 -25.678  0.00  0.00    +0.384 N 
ATOM     22  H   UNL     1      33.575 -10.818 -25.936  0.00  0.00    -0.089 HD
ATOM     23  H   UNL     1      33.514 -12.483 -25.968  0.00  0.00    -0.089 HD
ATOM     24  H   UNL     1      34.974 -11.700 -26.139  0.00  0.00    -0.089 HD
ENDBRANCH  20  21
BRANCH  20  25
ATOM     25  C   UNL     1      33.434 -10.564 -23.570  0.00  0.00    +0.009 C 
BRANCH  25  27
ATOM     26  N   UNL     1      35.535  -7.617 -24.055  0.00  0.00    -0.312 N 
ATOM     27  C   UNL     1      34.053  -9.228 -23.686  0.00  0.00    -0.008 C 
ATOM     28  C   UNL     1      33.427  -7.978 -23.418  0.00  0.00    +0.011 C 
ATOM     29  C   UNL     1      34.379  -6.984 -23.657  0.00  0.00    +0.048 C 
ATOM     30  C   UNL     1      35.348  -8.973 -24.074  0.00  0.00    +0.058 C 
ATOM     31  C   UNL     1      32.139  -7.596 -22.995  0.00  0.00    +0.001 C 
ATOM     32  C   UNL     1      34.104  -5.621 -23.493  0.00  0.00    +0.015 C 
ATOM     33  C   UNL     1      31.850  -6.237 -22.827  0.00  0.00    +0.000 C 
ATOM     34  C   UNL     1      32.820  -5.266 -23.073  0.00  0.00    +0.001 C 
ATOM     35  H   UNL     1      36.375  -7.160 -24.289  0.00  0.00    +0.152 HD
ENDBRANCH  25  27
ENDBRANCH  20  25
ENDBRANCH  19  20
ENDBRANCH   1  19
TORSDOF 7
ENDMDL
MODEL 5
REMARK VINA RESULT:     -11.7      2.406      4.540
REMARK  Name = 10172943
REMARK  7 active torsions:
REMARK  status: ('A' for Active; 'I' for Inactive)
REMARK    1  A    between atoms: O_1  and  C_3
REMARK    2  A    between atoms: O_1  and  C_19
REMARK    3  A    between atoms: C_4  and  C_11
REMARK    4  A    between atoms: C_19  and  C_20
REMARK    5  A    between atoms: C_20  and  N_21
REMARK    6  A    between atoms: C_20  and  C_25
REMARK    7  A    between atoms: C_25  and  C_27
REMARK                            x       y       z     vdW  Elec       q    Type
REMARK                         _______ _______ _______ _____ _____    ______ ____
ROOT
ATOM      1  O   UNL     1      34.476 -13.155 -23.432  0.00  0.00    -0.476 OA
ENDROOT
BRANCH   1   3
ATOM      2  N   UNL     1      34.062 -16.211 -25.373  0.00  0.00    -0.239 NA
ATOM      3  C   UNL     1      34.505 -14.486 -23.757  0.00  0.00    +0.158 C 
ATOM      4  C   UNL     1      35.002 -16.761 -23.215  0.00  0.00    +0.022 C 
ATOM      5  C   UNL     1      34.983 -15.419 -22.855  0.00  0.00    +0.040 C 
ATOM      6  C   UNL     1      34.060 -14.915 -24.989  0.00  0.00    +0.136 C 
ATOM      7  C   UNL     1      34.534 -17.104 -24.473  0.00  0.00    +0.099 C 
BRANCH   4  11
ATOM      8  N   UNL     1      35.580 -21.118 -19.431  0.00  0.00    -0.280 N 
ATOM      9  N   UNL     1      36.812 -20.650 -19.712  0.00  0.00    -0.173 NA
ATOM     10  C   UNL     1      35.188 -19.524 -20.832  0.00  0.00    +0.032 A 
ATOM     11  C   UNL     1      35.494 -17.769 -22.304  0.00  0.00    +0.002 C 
ATOM     12  C   UNL     1      36.605 -19.650 -20.587  0.00  0.00    +0.102 A 
ATOM     13  C   UNL     1      34.557 -18.615 -21.671  0.00  0.00    +0.003 C 
ATOM     14  C   UNL     1      34.564 -20.478 -20.077  0.00  0.00    +0.053 A 
ATOM     15  C   UNL     1      36.909 -17.859 -22.091  0.00  0.00    +0.002 C 
ATOM     16  C   UNL     1      37.521 -18.797 -21.229  0.00  0.00    +0.021 C 
ATOM     17  C   UNL     1      33.155 -20.860 -19.890  0.00  0.00    +0.051 C 
ATOM     18  H   UNL     1      35.426 -21.864 -18.807  0.00  0.00    +0.189 HD
ENDBRANCH   4  11
ENDBRANCH   1   3
BRANCH   1  19
ATOM     19  C   UNL     1      34.028 -12.258 -24.440  0.00  0.00    +0.184 C 
BRANCH  19  20
ATOM     20  C   UNL     1      34.453 -10.813 -24.148  0.00  0.00    -0.017 C 
BRANCH  20  21
ATOM     21  N   UNL     1      35.505 -10.433 -25.099  0.00  0.00    +0.384 N 
ATOM     22  H   UNL     1      35.870 -11.269 -25.553  0.00  0.00    -0.089 HD
ATOM     23  H   UNL     1      36.258  -9.959 -24.600  0.00  0.00    -0.089 HD
ATOM     24  H   UNL     1      35.116  -9.805 -25.802  0.00  0.00    -0.089 HD
ENDBRANCH  20  21
BRANCH  20  25
ATOM     25  C   UNL     1      33.287  -9.793 -24.236  0.00  0.00    +0.009 C 
BRANCH  25  27
ATOM     26  N   UNL     1      32.904  -7.419 -21.488  0.00  0.00    -0.312 N 
ATOM     27  C   UNL     1      33.025  -9.055 -22.983  0.00  0.00    -0.008 C 
ATOM     28  C   UNL     1      32.465  -9.585 -21.788  0.00  0.00    +0.011 C 
ATOM     29  C   UNL     1      32.400  -8.539 -20.865  0.00  0.00    +0.048 C 
ATOM     30  C   UNL     1      33.285  -7.720 -22.768  0.00  0.00    +0.058 C 
ATOM     31  C   UNL     1      32.006 -10.860 -21.400  0.00  0.00    +0.001 C 
ATOM     32  C   UNL     1      31.896  -8.703 -19.570  0.00  0.00    +0.015 C 
ATOM     33  C   UNL     1      31.499 -11.039 -20.108  0.00  0.00    +0.000 C 
ATOM     34  C   UNL     1      31.446  -9.976 -19.209  0.00  0.00    +0.001 C 
ATOM     35  H   UNL     1      32.980  -6.530 -21.072  0.00  0.00    +0.152 HD
ENDBRANCH  25  27
ENDBRANCH  20  25
ENDBRANCH  19  20
ENDBRANCH   1  19
TORSDOF 7
ENDMDL
MODEL 6
REMARK VINA RESULT:     -11.7      1.847     10.001
REMARK  Name = 10172943
REMARK  7 active torsions:
REMARK  status: ('A' for Active; 'I' for Inactive)
REMARK    1  A    between atoms: O_1  and  C_3
REMARK    2  A    between atoms: O_1  and  C_19
REMARK    3  A    between atoms: C_4  and  C_11
REMARK    4  A    between atoms: C_19  and  C_20
REMARK    5  A    between atoms: C_20  and  N_21
REMARK    6  A    between atoms: C_20  and  C_25
REMARK    7  A    between atoms: C_25  and  C_27
REMARK                            x       y       z     vdW  Elec       q    Type
REMARK                         _______ _______ _______ _____ _____    ______ ____
ROOT
ATOM      1  O   UNL     1      35.974 -16.351 -22.494  0.00  0.00    -0.476 OA
ENDROOT
BRANCH   1   3
ATOM      2  N   UNL     1      33.920 -15.478 -25.374  0.00  0.00    -0.239 NA
ATOM      3  C   UNL     1      35.189 -15.607 -23.335  0.00  0.00    +0.158 C 
ATOM      4  C   UNL     1      34.073 -13.569 -23.898  0.00  0.00    +0.022 C 
ATOM      5  C   UNL     1      34.873 -14.297 -23.026  0.00  0.00    +0.040 C 
ATOM      6  C   UNL     1      34.700 -16.155 -24.501  0.00  0.00    +0.136 C 
ATOM      7  C   UNL     1      33.626 -14.199 -25.049  0.00  0.00    +0.099 C 
BRANCH   4  11
ATOM      8  N   UNL     1      31.908  -8.665 -21.684  0.00  0.00    -0.280 N 
ATOM      9  N   UNL     1      32.668  -8.338 -22.748  0.00  0.00    -0.173 NA
ATOM     10  C   UNL     1      32.627 -10.579 -22.379  0.00  0.00    +0.032 A 
ATOM     11  C   UNL     1      33.717 -12.198 -23.615  0.00  0.00    +0.002 C 
ATOM     12  C   UNL     1      33.133  -9.511 -23.208  0.00  0.00    +0.102 A 
ATOM     13  C   UNL     1      32.870 -11.939 -22.515  0.00  0.00    +0.003 C 
ATOM     14  C   UNL     1      31.848 -10.001 -21.415  0.00  0.00    +0.053 A 
ATOM     15  C   UNL     1      34.244 -11.170 -24.465  0.00  0.00    +0.002 C 
ATOM     16  C   UNL     1      33.976  -9.793 -24.299  0.00  0.00    +0.021 C 
ATOM     17  C   UNL     1      31.066 -10.537 -20.289  0.00  0.00    +0.051 C 
ATOM     18  H   UNL     1      31.434  -7.993 -21.143  0.00  0.00    +0.189 HD
ENDBRANCH   4  11
ENDBRANCH   1   3
BRANCH   1  19
ATOM     19  C   UNL     1      35.322 -17.355 -21.728  0.00  0.00    +0.184 C 
BRANCH  19  20
ATOM     20  C   UNL     1      35.823 -18.761 -22.084  0.00  0.00    -0.017 C 
BRANCH  20  21
ATOM     21  N   UNL     1      37.068 -18.634 -22.852  0.00  0.00    +0.384 N 
ATOM     22  H   UNL     1      37.244 -17.649 -23.052  0.00  0.00    -0.089 HD
ATOM     23  H   UNL     1      36.980 -19.149 -23.728  0.00  0.00    -0.089 HD
ATOM     24  H   UNL     1      37.842 -19.015 -22.309  0.00  0.00    -0.089 HD
ENDBRANCH  20  21
BRANCH  20  25
ATOM     25  C   UNL     1      36.072 -19.663 -20.846  0.00  0.00    +0.009 C 
BRANCH  25  27
ATOM     26  N   UNL     1      32.726 -20.821 -19.956  0.00  0.00    -0.312 N 
ATOM     27  C   UNL     1      34.852 -20.273 -20.279  0.00  0.00    -0.008 C 
ATOM     28  C   UNL     1      34.784 -21.148 -19.159  0.00  0.00    +0.011 C 
ATOM     29  C   UNL     1      33.439 -21.477 -18.977  0.00  0.00    +0.048 C 
ATOM     30  C   UNL     1      33.571 -20.090 -20.747  0.00  0.00    +0.058 C 
ATOM     31  C   UNL     1      35.740 -21.694 -18.280  0.00  0.00    +0.001 C 
ATOM     32  C   UNL     1      33.000 -22.328 -17.956  0.00  0.00    +0.015 C 
ATOM     33  C   UNL     1      35.316 -22.547 -17.254  0.00  0.00    +0.000 C 
ATOM     34  C   UNL     1      33.967 -22.858 -17.097  0.00  0.00    +0.001 C 
ATOM     35  H   UNL     1      31.749 -20.870 -20.069  0.00  0.00    +0.152 HD
ENDBRANCH  25  27
ENDBRANCH  20  25
ENDBRANCH  19  20
ENDBRANCH   1  19
TORSDOF 7
ENDMDL
MODEL 7
REMARK VINA RESULT:     -11.6      2.814     10.234
REMARK  Name = 10172943
REMARK  7 active torsions:
REMARK  status: ('A' for Active; 'I' for Inactive)
REMARK    1  A    between atoms: O_1  and  C_3
REMARK    2  A    between atoms: O_1  and  C_19
REMARK    3  A    between atoms: C_4  and  C_11
REMARK    4  A    between atoms: C_19  and  C_20
REMARK    5  A    between atoms: C_20  and  N_21
REMARK    6  A    between atoms: C_20  and  C_25
REMARK    7  A    between atoms: C_25  and  C_27
REMARK                            x       y       z     vdW  Elec       q    Type
REMARK                         _______ _______ _______ _____ _____    ______ ____
ROOT
ATOM      1  O   UNL     1      36.544 -22.075 -18.552  0.00  0.00    -0.476 OA
ENDROOT
BRANCH   1   3
ATOM      2  N   UNL     1      33.121 -21.147 -19.386  0.00  0.00    -0.239 NA
ATOM      3  C   UNL     1      35.497 -21.449 -19.177  0.00  0.00    +0.158 C 
ATOM      4  C   UNL     1      34.646 -19.904 -20.791  0.00  0.00    +0.022 C 
ATOM      5  C   UNL     1      35.728 -20.524 -20.178  0.00  0.00    +0.040 C 
ATOM      6  C   UNL     1      34.198 -21.729 -18.814  0.00  0.00    +0.136 C 
ATOM      7  C   UNL     1      33.373 -20.247 -20.364  0.00  0.00    +0.099 C 
BRANCH   4  11
ATOM      8  N   UNL     1      35.283 -15.066 -23.926  0.00  0.00    -0.280 N 
ATOM      9  N   UNL     1      35.390 -16.117 -24.763  0.00  0.00    -0.173 NA
ATOM     10  C   UNL     1      35.026 -16.762 -22.615  0.00  0.00    +0.032 A 
ATOM     11  C   UNL     1      34.842 -18.931 -21.841  0.00  0.00    +0.002 C 
ATOM     12  C   UNL     1      35.234 -17.196 -23.976  0.00  0.00    +0.102 A 
ATOM     13  C   UNL     1      34.824 -17.561 -21.498  0.00  0.00    +0.003 C 
ATOM     14  C   UNL     1      35.064 -15.396 -22.621  0.00  0.00    +0.053 A 
ATOM     15  C   UNL     1      35.046 -19.408 -23.179  0.00  0.00    +0.002 C 
ATOM     16  C   UNL     1      35.249 -18.566 -24.295  0.00  0.00    +0.021 C 
ATOM     17  C   UNL     1      34.923 -14.374 -21.570  0.00  0.00    +0.051 C 
ATOM     18  H   UNL     1      35.358 -14.134 -24.233  0.00  0.00    +0.189 HD
ENDBRANCH   4  11
ENDBRANCH   1   3
BRANCH   1  19
ATOM     19  C   UNL     1      36.893 -21.605 -17.257  0.00  0.00    +0.184 C 
BRANCH  19  20
ATOM     20  C   UNL     1      36.601 -22.650 -16.172  0.00  0.00    -0.017 C 
BRANCH  20  21
ATOM     21  N   UNL     1      37.878 -23.159 -15.657  0.00  0.00    +0.384 N 
ATOM     22  H   UNL     1      38.585 -22.426 -15.716  0.00  0.00    -0.089 HD
ATOM     23  H   UNL     1      38.173 -23.962 -16.212  0.00  0.00    -0.089 HD
ATOM     24  H   UNL     1      37.762 -23.443 -14.684  0.00  0.00    -0.089 HD
ENDBRANCH  20  21
BRANCH  20  25
ATOM     25  C   UNL     1      35.752 -22.103 -14.994  0.00  0.00    +0.009 C 
BRANCH  25  27
ATOM     26  N   UNL     1      34.184 -24.726 -12.996  0.00  0.00    -0.312 N 
ATOM     27  C   UNL     1      34.888 -23.110 -14.345  0.00  0.00    -0.008 C 
ATOM     28  C   UNL     1      33.531 -23.395 -14.663  0.00  0.00    +0.011 C 
ATOM     29  C   UNL     1      33.113 -24.412 -13.802  0.00  0.00    +0.048 C 
ATOM     30  C   UNL     1      35.262 -23.945 -13.316  0.00  0.00    +0.058 C 
ATOM     31  C   UNL     1      32.615 -22.882 -15.602  0.00  0.00    +0.001 C 
ATOM     32  C   UNL     1      31.819 -24.945 -13.835  0.00  0.00    +0.015 C 
ATOM     33  C   UNL     1      31.317 -23.405 -15.647  0.00  0.00    +0.000 C 
ATOM     34  C   UNL     1      30.927 -24.421 -14.775  0.00  0.00    +0.001 C 
ATOM     35  H   UNL     1      34.176 -25.414 -12.292  0.00  0.00    +0.152 HD
ENDBRANCH  25  27
ENDBRANCH  20  25
ENDBRANCH  19  20
ENDBRANCH   1  19
TORSDOF 7
ENDMDL
MODEL 8
REMARK VINA RESULT:     -11.6      2.630     10.136
REMARK  Name = 10172943
REMARK  7 active torsions:
REMARK  status: ('A' for Active; 'I' for Inactive)
REMARK    1  A    between atoms: O_1  and  C_3
REMARK    2  A    between atoms: O_1  and  C_19
REMARK    3  A    between atoms: C_4  and  C_11
REMARK    4  A    between atoms: C_19  and  C_20
REMARK    5  A    between atoms: C_20  and  N_21
REMARK    6  A    between atoms: C_20  and  C_25
REMARK    7  A    between atoms: C_25  and  C_27
REMARK                            x       y       z     vdW  Elec       q    Type
REMARK                         _______ _______ _______ _____ _____    ______ ____
ROOT
ATOM      1  O   UNL     1      35.090 -21.620 -19.735  0.00  0.00    -0.476 OA
ENDROOT
BRANCH   1   3
ATOM      2  N   UNL     1      37.625 -19.026 -20.091  0.00  0.00    -0.239 NA
ATOM      3  C   UNL     1      35.726 -20.497 -20.199  0.00  0.00    +0.158 C 
ATOM      4  C   UNL     1      35.824 -18.597 -21.647  0.00  0.00    +0.022 C 
ATOM      5  C   UNL     1      35.154 -19.728 -21.196  0.00  0.00    +0.040 C 
ATOM      6  C   UNL     1      36.944 -20.119 -19.679  0.00  0.00    +0.136 C 
ATOM      7  C   UNL     1      37.045 -18.290 -21.067  0.00  0.00    +0.099 C 
BRANCH   4  11
ATOM      8  N   UNL     1      33.865 -14.207 -24.891  0.00  0.00    -0.280 N 
ATOM      9  N   UNL     1      33.692 -15.346 -25.590  0.00  0.00    -0.173 NA
ATOM     10  C   UNL     1      34.635 -15.720 -23.557  0.00  0.00    +0.032 A 
ATOM     11  C   UNL     1      35.264 -17.766 -22.687  0.00  0.00    +0.002 C 
ATOM     12  C   UNL     1      34.163 -16.314 -24.786  0.00  0.00    +0.102 A 
ATOM     13  C   UNL     1      35.195 -16.373 -22.467  0.00  0.00    +0.003 C 
ATOM     14  C   UNL     1      34.429 -14.373 -23.660  0.00  0.00    +0.053 A 
ATOM     15  C   UNL     1      34.808 -18.399 -23.891  0.00  0.00    +0.002 C 
ATOM     16  C   UNL     1      34.243 -17.705 -24.983  0.00  0.00    +0.021 C 
ATOM     17  C   UNL     1      34.692 -13.236 -22.762  0.00  0.00    +0.051 C 
ATOM     18  H   UNL     1      33.604 -13.325 -25.241  0.00  0.00    +0.189 HD
ENDBRANCH   4  11
ENDBRANCH   1   3
BRANCH   1  19
ATOM     19  C   UNL     1      33.874 -21.422 -19.027  0.00  0.00    +0.184 C 
BRANCH  19  20
ATOM     20  C   UNL     1      33.612 -22.547 -18.017  0.00  0.00    -0.017 C 
BRANCH  20  21
ATOM     21  N   UNL     1      33.637 -23.831 -18.727  0.00  0.00    +0.384 N 
ATOM     22  H   UNL     1      32.681 -24.143 -18.899  0.00  0.00    -0.089 HD
ATOM     23  H   UNL     1      34.125 -24.524 -18.159  0.00  0.00    -0.089 HD
ATOM     24  H   UNL     1      34.124 -23.718 -19.616  0.00  0.00    -0.089 HD
ENDBRANCH  20  21
BRANCH  20  25
ATOM     25  C   UNL     1      34.634 -22.584 -16.850  0.00  0.00    +0.009 C 
BRANCH  25  27
ATOM     26  N   UNL     1      34.319 -24.956 -14.092  0.00  0.00    -0.312 N 
ATOM     27  C   UNL     1      34.240 -23.448 -15.718  0.00  0.00    -0.008 C 
ATOM     28  C   UNL     1      32.963 -23.494 -15.092  0.00  0.00    +0.011 C 
ATOM     29  C   UNL     1      33.039 -24.448 -14.075  0.00  0.00    +0.048 C 
ATOM     30  C   UNL     1      35.052 -24.358 -15.082  0.00  0.00    +0.058 C 
ATOM     31  C   UNL     1      31.746 -22.813 -15.293  0.00  0.00    +0.001 C 
ATOM     32  C   UNL     1      31.955 -24.756 -13.246  0.00  0.00    +0.015 C 
ATOM     33  C   UNL     1      30.653 -23.110 -14.471  0.00  0.00    +0.000 C 
ATOM     34  C   UNL     1      30.758 -24.067 -13.463  0.00  0.00    +0.001 C 
ATOM     35  H   UNL     1      34.657 -25.649 -13.481  0.00  0.00    +0.152 HD
ENDBRANCH  25  27
ENDBRANCH  20  25
ENDBRANCH  19  20
ENDBRANCH   1  19
TORSDOF 7
ENDMDL
MODEL 9
REMARK VINA RESULT:     -11.4      2.664     10.352
REMARK  Name = 10172943
REMARK  7 active torsions:
REMARK  status: ('A' for Active; 'I' for Inactive)
REMARK    1  A    between atoms: O_1  and  C_3
REMARK    2  A    between atoms: O_1  and  C_19
REMARK    3  A    between atoms: C_4  and  C_11
REMARK    4  A    between atoms: C_19  and  C_20
REMARK    5  A    between atoms: C_20  and  N_21
REMARK    6  A    between atoms: C_20  and  C_25
REMARK    7  A    between atoms: C_25  and  C_27
REMARK                            x       y       z     vdW  Elec       q    Type
REMARK                         _______ _______ _______ _____ _____    ______ ____
ROOT
ATOM      1  O   UNL     1      33.219 -21.868 -18.715  0.00  0.00    -0.476 OA
ENDROOT
BRANCH   1   3
ATOM      2  N   UNL     1      36.699 -20.979 -19.331  0.00  0.00    -0.239 NA
ATOM      3  C   UNL     1      34.312 -21.265 -19.282  0.00  0.00    +0.158 C 
ATOM      4  C   UNL     1      35.285 -19.782 -20.885  0.00  0.00    +0.022 C 
ATOM      5  C   UNL     1      34.158 -20.376 -20.330  0.00  0.00    +0.040 C 
ATOM      6  C   UNL     1      35.580 -21.537 -18.817  0.00  0.00    +0.136 C 
ATOM      7  C   UNL     1      36.522 -20.113 -20.355  0.00  0.00    +0.099 C 
BRANCH   4  11
ATOM      8  N   UNL     1      34.841 -15.065 -24.229  0.00  0.00    -0.280 N 
ATOM      9  N   UNL     1      34.849 -16.144 -25.036  0.00  0.00    -0.173 NA
ATOM     10  C   UNL     1      35.009 -16.711 -22.842  0.00  0.00    +0.032 A 
ATOM     11  C   UNL     1      35.171 -18.849 -21.982  0.00  0.00    +0.002 C 
ATOM     12  C   UNL     1      34.953 -17.192 -24.202  0.00  0.00    +0.102 A 
ATOM     13  C   UNL     1      35.117 -17.469 -21.684  0.00  0.00    +0.003 C 
ATOM     14  C   UNL     1      34.935 -15.347 -22.898  0.00  0.00    +0.053 A 
ATOM     15  C   UNL     1      35.119 -19.372 -23.316  0.00  0.00    +0.002 C 
ATOM     16  C   UNL     1      35.008 -18.572 -24.475  0.00  0.00    +0.021 C 
ATOM     17  C   UNL     1      34.943 -14.290 -21.873  0.00  0.00    +0.051 C 
ATOM     18  H   UNL     1      34.772 -14.145 -24.573  0.00  0.00    +0.189 HD
ENDBRANCH   4  11
ENDBRANCH   1   3
BRANCH   1  19
ATOM     19  C   UNL     1      33.461 -23.036 -17.941  0.00  0.00    +0.184 C 
BRANCH  19  20
ATOM     20  C   UNL     1      33.280 -22.774 -16.440  0.00  0.00    -0.017 C 
BRANCH  20  21
ATOM     21  N   UNL     1      31.843 -22.695 -16.148  0.00  0.00    +0.384 N 
ATOM     22  H   UNL     1      31.490 -23.627 -15.929  0.00  0.00    -0.089 HD
ATOM     23  H   UNL     1      31.351 -22.326 -16.961  0.00  0.00    -0.089 HD
ATOM     24  H   UNL     1      31.693 -22.078 -15.350  0.00  0.00    -0.089 HD
ENDBRANCH  20  21
BRANCH  20  25
ATOM     25  C   UNL     1      33.931 -23.855 -15.537  0.00  0.00    +0.009 C 
BRANCH  25  27
ATOM     26  N   UNL     1      37.273 -22.649 -14.697  0.00  0.00    -0.312 N 
ATOM     27  C   UNL     1      35.218 -23.454 -14.935  0.00  0.00    -0.008 C 
ATOM     28  C   UNL     1      35.601 -23.606 -13.573  0.00  0.00    +0.011 C 
ATOM     29  C   UNL     1      36.894 -23.094 -13.451  0.00  0.00    +0.048 C 
ATOM     30  C   UNL     1      36.268 -22.863 -15.602  0.00  0.00    +0.058 C 
ATOM     31  C   UNL     1      34.969 -24.132 -12.429  0.00  0.00    +0.001 C 
ATOM     32  C   UNL     1      37.590 -23.080 -12.236  0.00  0.00    +0.015 C 
ATOM     33  C   UNL     1      35.652 -24.125 -11.207  0.00  0.00    +0.000 C 
ATOM     34  C   UNL     1      36.943 -23.606 -11.115  0.00  0.00    +0.001 C 
ATOM     35  H   UNL     1      38.143 -22.239 -14.908  0.00  0.00    +0.152 HD
ENDBRANCH  25  27
ENDBRANCH  20  25
ENDBRANCH  19  20
ENDBRANCH   1  19
TORSDOF 7
ENDMDL
