MODEL 1
REMARK VINA RESULT:     -12.6      0.000      0.000
REMARK  Name = 25243853
REMARK  6 active torsions:
REMARK  status: ('A' for Active; 'I' for Inactive)
REMARK    1  A    between atoms: N_1  and  C_6
REMARK    2  A    between atoms: N_1  and  C_21
REMARK    3  A    between atoms: C_3  and  C_16
REMARK    4  A    between atoms: C_11  and  C_18
REMARK    5  A    between atoms: C_18  and  O_19
REMARK    6  A    between atoms: C_21  and  C_28
REMARK                            x       y       z     vdW  Elec       q    Type
REMARK                         _______ _______ _______ _____ _____    ______ ____
ROOT
ATOM      1  N   UNL     1      35.778 -18.928 -22.030  0.00  0.00    -0.327 N 
ATOM      2  H   UNL     1      36.105 -19.354 -22.855  0.00  0.00    +0.147 HD
ENDROOT
BRANCH   1   6
ATOM      3  C   UNL     1      34.053 -21.357 -19.068  0.00  0.00    +0.054 C 
ATOM      4  C   UNL     1      33.240 -20.578 -19.891  0.00  0.00    +0.006 C 
ATOM      5  C   UNL     1      35.438 -21.330 -19.229  0.00  0.00    +0.006 C 
ATOM      6  C   UNL     1      35.198 -19.745 -21.035  0.00  0.00    +0.045 C 
ATOM      7  C   UNL     1      33.813 -19.772 -20.875  0.00  0.00    +0.014 C 
ATOM      8  C   UNL     1      36.011 -20.524 -20.212  0.00  0.00    +0.014 C 
BRANCH   3  16
ATOM      9  O   UNL     1      32.231 -22.348 -18.090  0.00  0.00    -0.270 OA
ATOM     10  N   UNL     1      34.295 -22.780 -17.079  0.00  0.00    -0.276 N 
ATOM     11  C   UNL     1      35.571 -22.792 -14.470  0.00  0.00    +0.102 C 
ATOM     12  C   UNL     1      34.070 -23.046 -14.643  0.00  0.00    +0.033 C 
ATOM     13  C   UNL     1      36.167 -22.031 -15.658  0.00  0.00    +0.033 C 
ATOM     14  C   UNL     1      33.729 -23.611 -16.020  0.00  0.00    +0.094 C 
ATOM     15  C   UNL     1      35.751 -22.608 -17.012  0.00  0.00    +0.094 C 
ATOM     16  C   UNL     1      33.451 -22.206 -18.033  0.00  0.00    +0.249 C 
BRANCH  11  18
ATOM     17  O   UNL     1      37.223 -24.486 -14.929  0.00  0.00    -0.250 OA
ATOM     18  C   UNL     1      36.295 -24.087 -14.238  0.00  0.00    +0.317 C 
BRANCH  18  19
ATOM     19  O   UNL     1      35.756 -24.723 -13.160  0.00  0.00    -0.444 OA
ATOM     20  C   UNL     1      36.679 -25.052 -12.117  0.00  0.00    +0.256 C 
ENDBRANCH  18  19
ENDBRANCH  11  18
ENDBRANCH   3  16
ENDBRANCH   1   6
BRANCH   1  21
ATOM     21  C   UNL     1      35.911 -17.512 -21.891  0.00  0.00    +0.145 C 
BRANCH  21  28
ATOM     22  N   UNL     1      35.102 -15.471 -22.953  0.00  0.00    -0.392 NA
ATOM     23  N   UNL     1      34.160 -16.877 -25.143  0.00  0.00    -0.200 NA
ATOM     24  N   UNL     1      33.413 -14.908 -26.104  0.00  0.00    -0.271 NA
ATOM     25  N   UNL     1      33.708 -12.803 -24.993  0.00  0.00    -0.310 NA
ATOM     26  N   UNL     1      34.777 -12.734 -22.887  0.00  0.00    -0.329 N 
ATOM     27  N   UNL     1      32.652 -12.913 -27.080  0.00  0.00    -0.283 N 
ATOM     28  C   UNL     1      35.235 -16.804 -23.032  0.00  0.00    +0.133 C 
ATOM     29  C   UNL     1      34.770 -17.498 -24.115  0.00  0.00    +0.193 C 
ATOM     30  C   UNL     1      34.493 -14.851 -23.982  0.00  0.00    +0.248 C 
ATOM     31  C   UNL     1      34.014 -15.548 -25.094  0.00  0.00    +0.131 C 
ATOM     32  C   UNL     1      34.307 -13.482 -23.998  0.00  0.00    +0.231 C 
ATOM     33  C   UNL     1      33.289 -13.571 -26.006  0.00  0.00    +0.207 C 
ATOM     34  H   UNL     1      34.660 -11.757 -22.867  0.00  0.00    +0.145 HD
ATOM     35  H   UNL     1      35.219 -13.193 -22.137  0.00  0.00    +0.145 HD
ATOM     36  H   UNL     1      32.325 -13.432 -27.850  0.00  0.00    +0.156 HD
ATOM     37  H   UNL     1      32.535 -11.936 -27.060  0.00  0.00    +0.156 HD
ENDBRANCH  21  28
ENDBRANCH   1  21
TORSDOF 6
ENDMDL
MODEL 2
REMARK VINA RESULT:     -12.0      1.002      1.178
REMARK  Name = 25243853
REMARK  6 active torsions:
REMARK  status: ('A' for Active; 'I' for Inactive)
REMARK    1  A    between atoms: N_1  and  C_6
REMARK    2  A    between atoms: N_1  and  C_21
REMARK    3  A    between atoms: C_3  and  C_16
REMARK    4  A    between atoms: C_11  and  C_18
REMARK    5  A    between atoms: C_18  and  O_19
REMARK    6  A    between atoms: C_21  and  C_28
REMARK                            x       y       z     vdW  Elec       q    Type
REMARK                         _______ _______ _______ _____ _____    ______ ____
ROOT
ATOM      1  N   UNL     1      35.409 -19.573 -21.668  0.00  0.00    -0.327 N 
ATOM      2  H   UNL     1      35.400 -19.980 -22.564  0.00  0.00    +0.147 HD
ENDROOT
BRANCH   1   6
ATOM      3  C   UNL     1      34.186 -21.902 -18.393  0.00  0.00    +0.054 C 
ATOM      4  C   UNL     1      33.241 -21.200 -19.141  0.00  0.00    +0.006 C 
ATOM      5  C   UNL     1      35.537 -21.830 -18.733  0.00  0.00    +0.006 C 
ATOM      6  C   UNL     1      34.998 -20.356 -20.568  0.00  0.00    +0.045 C 
ATOM      7  C   UNL     1      33.647 -20.427 -20.230  0.00  0.00    +0.014 C 
ATOM      8  C   UNL     1      35.943 -21.058 -19.820  0.00  0.00    +0.014 C 
BRANCH   3  16
ATOM      9  O   UNL     1      32.553 -22.943 -17.164  0.00  0.00    -0.270 OA
ATOM     10  N   UNL     1      34.738 -23.165 -16.359  0.00  0.00    -0.276 N 
ATOM     11  C   UNL     1      36.276 -22.912 -13.908  0.00  0.00    +0.102 C 
ATOM     12  C   UNL     1      34.788 -23.277 -13.901  0.00  0.00    +0.033 C 
ATOM     13  C   UNL     1      36.687 -22.196 -15.198  0.00  0.00    +0.033 C 
ATOM     14  C   UNL     1      34.348 -23.958 -15.195  0.00  0.00    +0.094 C 
ATOM     15  C   UNL     1      36.176 -22.892 -16.460  0.00  0.00    +0.094 C 
ATOM     16  C   UNL     1      33.759 -22.716 -17.248  0.00  0.00    +0.249 C 
BRANCH  11  18
ATOM     17  O   UNL     1      36.669 -25.204 -13.276  0.00  0.00    -0.250 OA
ATOM     18  C   UNL     1      37.113 -24.137 -13.677  0.00  0.00    +0.317 C 
BRANCH  18  19
ATOM     19  O   UNL     1      38.413 -23.864 -13.982  0.00  0.00    -0.444 OA
ATOM     20  C   UNL     1      39.141 -24.939 -14.584  0.00  0.00    +0.256 C 
ENDBRANCH  18  19
ENDBRANCH  11  18
ENDBRANCH   3  16
ENDBRANCH   1   6
BRANCH   1  21
ATOM     21  C   UNL     1      35.839 -18.216 -21.537  0.00  0.00    +0.145 C 
BRANCH  21  28
ATOM     22  N   UNL     1      35.135 -16.064 -22.444  0.00  0.00    -0.392 NA
ATOM     23  N   UNL     1      34.481 -17.205 -24.880  0.00  0.00    -0.200 NA
ATOM     24  N   UNL     1      33.826 -15.136 -25.689  0.00  0.00    -0.271 NA
ATOM     25  N   UNL     1      33.959 -13.176 -24.314  0.00  0.00    -0.310 NA
ATOM     26  N   UNL     1      34.768 -13.354 -22.101  0.00  0.00    -0.329 N 
ATOM     27  N   UNL     1      33.161 -13.041 -26.511  0.00  0.00    -0.283 N 
ATOM     28  C   UNL     1      35.294 -17.379 -22.661  0.00  0.00    +0.133 C 
ATOM     29  C   UNL     1      34.971 -17.942 -23.866  0.00  0.00    +0.193 C 
ATOM     30  C   UNL     1      34.645 -15.328 -23.461  0.00  0.00    +0.248 C 
ATOM     31  C   UNL     1      34.311 -15.890 -24.695  0.00  0.00    +0.131 C 
ATOM     32  C   UNL     1      34.444 -13.967 -23.340  0.00  0.00    +0.231 C 
ATOM     33  C   UNL     1      33.674 -13.820 -25.452  0.00  0.00    +0.207 C 
ATOM     34  H   UNL     1      34.636 -12.386 -21.982  0.00  0.00    +0.145 HD
ATOM     35  H   UNL     1      35.123 -13.897 -21.361  0.00  0.00    +0.145 HD
ATOM     36  H   UNL     1      32.934 -13.466 -27.369  0.00  0.00    +0.156 HD
ATOM     37  H   UNL     1      33.029 -12.072 -26.392  0.00  0.00    +0.156 HD
ENDBRANCH  21  28
ENDBRANCH   1  21
TORSDOF 6
ENDMDL
MODEL 3
REMARK VINA RESULT:     -11.6      0.879      2.064
REMARK  Name = 25243853
REMARK  6 active torsions:
REMARK  status: ('A' for Active; 'I' for Inactive)
REMARK    1  A    between atoms: N_1  and  C_6
REMARK    2  A    between atoms: N_1  and  C_21
REMARK    3  A    between atoms: C_3  and  C_16
REMARK    4  A    between atoms: C_11  and  C_18
REMARK    5  A    between atoms: C_18  and  O_19
REMARK    6  A    between atoms: C_21  and  C_28
REMARK                            x       y       z     vdW  Elec       q    Type
REMARK                         _______ _______ _______ _____ _____    ______ ____
ROOT
ATOM      1  N   UNL     1      35.722 -18.813 -22.308  0.00  0.00    -0.327 N 
ATOM      2  H   UNL     1      36.680 -18.590 -22.273  0.00  0.00    +0.147 HD
ENDROOT
BRANCH   1   6
ATOM      3  C   UNL     1      34.107 -21.218 -19.267  0.00  0.00    +0.054 C 
ATOM      4  C   UNL     1      35.485 -21.198 -19.482  0.00  0.00    +0.006 C 
ATOM      5  C   UNL     1      33.266 -20.439 -20.062  0.00  0.00    +0.006 C 
ATOM      6  C   UNL     1      35.180 -19.620 -21.286  0.00  0.00    +0.045 C 
ATOM      7  C   UNL     1      36.021 -20.399 -20.492  0.00  0.00    +0.014 C 
ATOM      8  C   UNL     1      33.802 -19.640 -21.071  0.00  0.00    +0.014 C 
BRANCH   3  16
ATOM      9  O   UNL     1      32.319 -22.188 -18.208  0.00  0.00    -0.270 OA
ATOM     10  N   UNL     1      34.422 -22.642 -17.289  0.00  0.00    -0.276 N 
ATOM     11  C   UNL     1      35.812 -22.666 -14.740  0.00  0.00    +0.102 C 
ATOM     12  C   UNL     1      34.302 -22.903 -14.845  0.00  0.00    +0.033 C 
ATOM     13  C   UNL     1      36.363 -21.913 -15.954  0.00  0.00    +0.033 C 
ATOM     14  C   UNL     1      33.894 -23.466 -16.205  0.00  0.00    +0.094 C 
ATOM     15  C   UNL     1      35.881 -22.487 -17.287  0.00  0.00    +0.094 C 
ATOM     16  C   UNL     1      33.542 -22.059 -18.205  0.00  0.00    +0.249 C 
BRANCH  11  18
ATOM     17  O   UNL     1      35.985 -25.003 -14.173  0.00  0.00    -0.250 OA
ATOM     18  C   UNL     1      36.531 -23.970 -14.539  0.00  0.00    +0.317 C 
BRANCH  18  19
ATOM     19  O   UNL     1      37.854 -23.809 -14.824  0.00  0.00    -0.444 OA
ATOM     20  C   UNL     1      38.708 -24.876 -14.398  0.00  0.00    +0.256 C 
ENDBRANCH  18  19
ENDBRANCH  11  18
ENDBRANCH   3  16
ENDBRANCH   1   6
BRANCH   1  21
ATOM     21  C   UNL     1      34.941 -18.303 -23.392  0.00  0.00    +0.145 C 
BRANCH  21  28
ATOM     22  N   UNL     1      34.220 -16.163 -24.315  0.00  0.00    -0.392 NA
ATOM     23  N   UNL     1      35.362 -14.770 -22.212  0.00  0.00    -0.200 NA
ATOM     24  N   UNL     1      34.653 -12.769 -23.135  0.00  0.00    -0.271 NA
ATOM     25  N   UNL     1      33.424 -12.726 -25.194  0.00  0.00    -0.310 NA
ATOM     26  N   UNL     1      32.929 -14.754 -26.300  0.00  0.00    -0.329 N 
ATOM     27  N   UNL     1      33.936 -10.738 -24.068  0.00  0.00    -0.283 N 
ATOM     28  C   UNL     1      34.861 -16.803 -23.324  0.00  0.00    +0.133 C 
ATOM     29  C   UNL     1      35.425 -16.113 -22.284  0.00  0.00    +0.193 C 
ATOM     30  C   UNL     1      34.158 -14.819 -24.240  0.00  0.00    +0.248 C 
ATOM     31  C   UNL     1      34.729 -14.104 -23.185  0.00  0.00    +0.131 C 
ATOM     32  C   UNL     1      33.521 -14.068 -25.208  0.00  0.00    +0.231 C 
ATOM     33  C   UNL     1      34.006 -12.146 -24.138  0.00  0.00    +0.207 C 
ATOM     34  H   UNL     1      32.468 -14.248 -27.008  0.00  0.00    +0.145 HD
ATOM     35  H   UNL     1      32.979 -15.735 -26.351  0.00  0.00    +0.145 HD
ATOM     36  H   UNL     1      34.349 -10.261 -23.312  0.00  0.00    +0.156 HD
ATOM     37  H   UNL     1      33.475 -10.231 -24.775  0.00  0.00    +0.156 HD
ENDBRANCH  21  28
ENDBRANCH   1  21
TORSDOF 6
ENDMDL
MODEL 4
REMARK VINA RESULT:     -11.4      2.059      3.297
REMARK  Name = 25243853
REMARK  6 active torsions:
REMARK  status: ('A' for Active; 'I' for Inactive)
REMARK    1  A    between atoms: N_1  and  C_6
REMARK    2  A    between atoms: N_1  and  C_21
REMARK    3  A    between atoms: C_3  and  C_16
REMARK    4  A    between atoms: C_11  and  C_18
REMARK    5  A    between atoms: C_18  and  O_19
REMARK    6  A    between atoms: C_21  and  C_28
REMARK                            x       y       z     vdW  Elec       q    Type
REMARK                         _______ _______ _______ _____ _____    ______ ____
ROOT
ATOM      1  N   UNL     1      35.733 -20.215 -20.986  0.00  0.00    -0.327 N 
ATOM      2  H   UNL     1      35.318 -20.616 -21.784  0.00  0.00    +0.147 HD
ENDROOT
BRANCH   1   6
ATOM      3  C   UNL     1      35.445 -22.263 -17.330  0.00  0.00    +0.054 C 
ATOM      4  C   UNL     1      34.376 -22.284 -18.227  0.00  0.00    +0.006 C 
ATOM      5  C   UNL     1      36.608 -21.562 -17.648  0.00  0.00    +0.006 C 
ATOM      6  C   UNL     1      35.636 -20.903 -19.758  0.00  0.00    +0.045 C 
ATOM      7  C   UNL     1      34.473 -21.604 -19.441  0.00  0.00    +0.014 C 
ATOM      8  C   UNL     1      36.704 -20.882 -18.861  0.00  0.00    +0.014 C 
BRANCH   3  16
ATOM      9  O   UNL     1      36.377 -23.508 -15.644  0.00  0.00    -0.270 OA
ATOM     10  N   UNL     1      34.106 -23.000 -15.405  0.00  0.00    -0.276 N 
ATOM     11  C   UNL     1      31.564 -24.263 -14.791  0.00  0.00    +0.102 C 
ATOM     12  C   UNL     1      32.893 -24.805 -14.254  0.00  0.00    +0.033 C 
ATOM     13  C   UNL     1      31.757 -23.400 -16.042  0.00  0.00    +0.033 C 
ATOM     14  C   UNL     1      33.963 -23.721 -14.143  0.00  0.00    +0.094 C 
ATOM     15  C   UNL     1      32.875 -22.367 -15.893  0.00  0.00    +0.094 C 
ATOM     16  C   UNL     1      35.344 -22.978 -16.052  0.00  0.00    +0.249 C 
BRANCH  11  18
ATOM     17  O   UNL     1      31.075 -23.619 -12.520  0.00  0.00    -0.250 OA
ATOM     18  C   UNL     1      30.840 -23.504 -13.716  0.00  0.00    +0.317 C 
BRANCH  18  19
ATOM     19  O   UNL     1      29.905 -22.691 -14.283  0.00  0.00    -0.444 OA
ATOM     20  C   UNL     1      28.874 -23.360 -15.017  0.00  0.00    +0.256 C 
ENDBRANCH  18  19
ENDBRANCH  11  18
ENDBRANCH   3  16
ENDBRANCH   1   6
BRANCH   1  21
ATOM     21  C   UNL     1      36.408 -18.962 -21.122  0.00  0.00    +0.145 C 
BRANCH  21  28
ATOM     22  N   UNL     1      35.497 -16.860 -21.960  0.00  0.00    -0.392 NA
ATOM     23  N   UNL     1      34.966 -17.974 -24.437  0.00  0.00    -0.200 NA
ATOM     24  N   UNL     1      34.113 -15.954 -25.179  0.00  0.00    -0.271 NA
ATOM     25  N   UNL     1      34.047 -14.039 -23.737  0.00  0.00    -0.310 NA
ATOM     26  N   UNL     1      34.863 -14.213 -21.527  0.00  0.00    -0.329 N 
ATOM     27  N   UNL     1      33.246 -13.907 -25.933  0.00  0.00    -0.283 N 
ATOM     28  C   UNL     1      35.786 -18.145 -22.220  0.00  0.00    +0.133 C 
ATOM     29  C   UNL     1      35.524 -18.695 -23.446  0.00  0.00    +0.193 C 
ATOM     30  C   UNL     1      34.940 -16.141 -22.953  0.00  0.00    +0.248 C 
ATOM     31  C   UNL     1      34.667 -16.690 -24.208  0.00  0.00    +0.131 C 
ATOM     32  C   UNL     1      34.605 -14.811 -22.787  0.00  0.00    +0.231 C 
ATOM     33  C   UNL     1      33.830 -14.668 -24.898  0.00  0.00    +0.207 C 
ATOM     34  H   UNL     1      34.636 -13.267 -21.375  0.00  0.00    +0.145 HD
ATOM     35  H   UNL     1      35.268 -14.744 -20.803  0.00  0.00    +0.145 HD
ATOM     36  H   UNL     1      33.065 -14.323 -26.807  0.00  0.00    +0.156 HD
ATOM     37  H   UNL     1      33.019 -12.961 -25.782  0.00  0.00    +0.156 HD
ENDBRANCH  21  28
ENDBRANCH   1  21
TORSDOF 6
ENDMDL
MODEL 5
REMARK VINA RESULT:     -11.4      4.195     11.030
REMARK  Name = 25243853
REMARK  6 active torsions:
REMARK  status: ('A' for Active; 'I' for Inactive)
REMARK    1  A    between atoms: N_1  and  C_6
REMARK    2  A    between atoms: N_1  and  C_21
REMARK    3  A    between atoms: C_3  and  C_16
REMARK    4  A    between atoms: C_11  and  C_18
REMARK    5  A    between atoms: C_18  and  O_19
REMARK    6  A    between atoms: C_21  and  C_28
REMARK                            x       y       z     vdW  Elec       q    Type
REMARK                         _______ _______ _______ _____ _____    ______ ____
ROOT
ATOM      1  N   UNL     1      36.441 -20.230 -19.857  0.00  0.00    -0.327 N 
ATOM      2  H   UNL     1      36.931 -19.863 -19.086  0.00  0.00    +0.147 HD
ENDROOT
BRANCH   1   6
ATOM      3  C   UNL     1      35.272 -17.610 -22.925  0.00  0.00    +0.054 C 
ATOM      4  C   UNL     1      36.512 -17.450 -22.306  0.00  0.00    +0.006 C 
ATOM      5  C   UNL     1      34.421 -18.640 -22.524  0.00  0.00    +0.006 C 
ATOM      6  C   UNL     1      36.049 -19.350 -20.888  0.00  0.00    +0.045 C 
ATOM      7  C   UNL     1      36.901 -18.321 -21.288  0.00  0.00    +0.014 C 
ATOM      8  C   UNL     1      34.809 -19.510 -21.506  0.00  0.00    +0.014 C 
BRANCH   3  16
ATOM      9  O   UNL     1      35.034 -17.095 -25.147  0.00  0.00    -0.270 OA
ATOM     10  N   UNL     1      34.316 -15.460 -23.635  0.00  0.00    -0.276 N 
ATOM     11  C   UNL     1      34.555 -12.614 -23.108  0.00  0.00    +0.102 C 
ATOM     12  C   UNL     1      34.669 -13.192 -24.522  0.00  0.00    +0.033 C 
ATOM     13  C   UNL     1      34.849 -13.663 -22.032  0.00  0.00    +0.033 C 
ATOM     14  C   UNL     1      33.919 -14.514 -24.675  0.00  0.00    +0.094 C 
ATOM     15  C   UNL     1      34.113 -14.984 -22.262  0.00  0.00    +0.094 C 
ATOM     16  C   UNL     1      34.863 -16.694 -23.997  0.00  0.00    +0.249 C 
BRANCH  11  18
ATOM     17  O   UNL     1      32.275 -12.550 -22.330  0.00  0.00    -0.250 OA
ATOM     18  C   UNL     1      33.201 -11.996 -22.906  0.00  0.00    +0.317 C 
BRANCH  18  19
ATOM     19  O   UNL     1      33.183 -10.750 -23.458  0.00  0.00    -0.444 OA
ATOM     20  C   UNL     1      32.576  -9.732 -22.656  0.00  0.00    +0.256 C 
ENDBRANCH  18  19
ENDBRANCH  11  18
ENDBRANCH   3  16
ENDBRANCH   1   6
BRANCH   1  21
ATOM     21  C   UNL     1      36.161 -21.632 -19.884  0.00  0.00    +0.145 C 
BRANCH  21  28
ATOM     22  N   UNL     1      35.336 -22.450 -17.740  0.00  0.00    -0.392 NA
ATOM     23  N   UNL     1      32.703 -22.062 -18.504  0.00  0.00    -0.200 NA
ATOM     24  N   UNL     1      31.977 -22.847 -16.450  0.00  0.00    -0.271 NA
ATOM     25  N   UNL     1      33.541 -23.559 -14.778  0.00  0.00    -0.310 NA
ATOM     26  N   UNL     1      35.858 -23.460 -15.229  0.00  0.00    -0.329 N 
ATOM     27  N   UNL     1      31.237 -23.643 -14.370  0.00  0.00    -0.283 N 
ATOM     28  C   UNL     1      35.029 -21.961 -18.951  0.00  0.00    +0.133 C 
ATOM     29  C   UNL     1      33.727 -21.769 -19.328  0.00  0.00    +0.193 C 
ATOM     30  C   UNL     1      34.310 -22.741 -16.916  0.00  0.00    +0.248 C 
ATOM     31  C   UNL     1      32.977 -22.550 -17.288  0.00  0.00    +0.131 C 
ATOM     32  C   UNL     1      34.519 -23.247 -15.648  0.00  0.00    +0.231 C 
ATOM     33  C   UNL     1      32.306 -23.335 -15.239  0.00  0.00    +0.207 C 
ATOM     34  H   UNL     1      36.042 -23.821 -14.332  0.00  0.00    +0.145 HD
ATOM     35  H   UNL     1      36.604 -23.248 -15.836  0.00  0.00    +0.145 HD
ATOM     36  H   UNL     1      30.308 -23.498 -14.661  0.00  0.00    +0.156 HD
ATOM     37  H   UNL     1      31.421 -24.003 -13.472  0.00  0.00    +0.156 HD
ENDBRANCH  21  28
ENDBRANCH   1  21
TORSDOF 6
ENDMDL
MODEL 6
REMARK VINA RESULT:     -11.2      4.163     11.365
REMARK  Name = 25243853
REMARK  6 active torsions:
REMARK  status: ('A' for Active; 'I' for Inactive)
REMARK    1  A    between atoms: N_1  and  C_6
REMARK    2  A    between atoms: N_1  and  C_21
REMARK    3  A    between atoms: C_3  and  C_16
REMARK    4  A    between atoms: C_11  and  C_18
REMARK    5  A    between atoms: C_18  and  O_19
REMARK    6  A    between atoms: C_21  and  C_28
REMARK                            x       y       z     vdW  Elec       q    Type
REMARK                         _______ _______ _______ _____ _____    ______ ____
ROOT
ATOM      1  N   UNL     1      36.611 -20.211 -19.891  0.00  0.00    -0.327 N 
ATOM      2  H   UNL     1      37.329 -19.914 -19.288  0.00  0.00    +0.147 HD
ENDROOT
BRANCH   1   6
ATOM      3  C   UNL     1      35.345 -17.606 -22.935  0.00  0.00    +0.054 C 
ATOM      4  C   UNL     1      36.630 -17.487 -22.405  0.00  0.00    +0.006 C 
ATOM      5  C   UNL     1      34.482 -18.590 -22.454  0.00  0.00    +0.006 C 
ATOM      6  C   UNL     1      36.186 -19.336 -20.914  0.00  0.00    +0.045 C 
ATOM      7  C   UNL     1      37.051 -18.353 -21.394  0.00  0.00    +0.014 C 
ATOM      8  C   UNL     1      34.901 -19.455 -21.444  0.00  0.00    +0.014 C 
BRANCH   3  16
ATOM      9  O   UNL     1      35.057 -17.094 -25.151  0.00  0.00    -0.270 OA
ATOM     10  N   UNL     1      34.346 -15.470 -23.625  0.00  0.00    -0.276 N 
ATOM     11  C   UNL     1      34.555 -12.621 -23.101  0.00  0.00    +0.102 C 
ATOM     12  C   UNL     1      34.649 -13.197 -24.518  0.00  0.00    +0.033 C 
ATOM     13  C   UNL     1      34.885 -13.666 -22.032  0.00  0.00    +0.033 C 
ATOM     14  C   UNL     1      33.915 -14.529 -24.656  0.00  0.00    +0.094 C 
ATOM     15  C   UNL     1      34.163 -14.997 -22.248  0.00  0.00    +0.094 C 
ATOM     16  C   UNL     1      34.903 -16.696 -23.998  0.00  0.00    +0.249 C 
BRANCH  11  18
ATOM     17  O   UNL     1      32.319 -12.551 -22.205  0.00  0.00    -0.250 OA
ATOM     18  C   UNL     1      33.196 -12.022 -22.873  0.00  0.00    +0.317 C 
BRANCH  18  19
ATOM     19  O   UNL     1      33.113 -10.825 -23.519  0.00  0.00    -0.444 OA
ATOM     20  C   UNL     1      32.645  -9.730 -22.724  0.00  0.00    +0.256 C 
ENDBRANCH  18  19
ENDBRANCH  11  18
ENDBRANCH   3  16
ENDBRANCH   1   6
BRANCH   1  21
ATOM     21  C   UNL     1      36.044 -21.508 -19.695  0.00  0.00    +0.145 C 
BRANCH  21  28
ATOM     22  N   UNL     1      34.915 -22.384 -17.719  0.00  0.00    -0.392 NA
ATOM     23  N   UNL     1      37.160 -21.985 -16.149  0.00  0.00    -0.200 NA
ATOM     24  N   UNL     1      36.038 -22.826 -14.306  0.00  0.00    -0.271 NA
ATOM     25  N   UNL     1      33.766 -23.574 -14.480  0.00  0.00    -0.310 NA
ATOM     26  N   UNL     1      32.653 -23.451 -16.560  0.00  0.00    -0.329 N 
ATOM     27  N   UNL     1      34.903 -23.677 -12.436  0.00  0.00    -0.283 N 
ATOM     28  C   UNL     1      36.040 -21.867 -18.235  0.00  0.00    +0.133 C 
ATOM     29  C   UNL     1      37.150 -21.670 -17.458  0.00  0.00    +0.193 C 
ATOM     30  C   UNL     1      34.927 -22.699 -16.409  0.00  0.00    +0.248 C 
ATOM     31  C   UNL     1      36.052 -22.504 -15.605  0.00  0.00    +0.131 C 
ATOM     32  C   UNL     1      33.820 -23.238 -15.782  0.00  0.00    +0.231 C 
ATOM     33  C   UNL     1      34.900 -23.344 -13.808  0.00  0.00    +0.207 C 
ATOM     34  H   UNL     1      31.846 -23.833 -16.144  0.00  0.00    +0.145 HD
ATOM     35  H   UNL     1      32.649 -23.217 -17.516  0.00  0.00    +0.145 HD
ATOM     36  H   UNL     1      35.712 -23.527 -11.896  0.00  0.00    +0.156 HD
ATOM     37  H   UNL     1      34.097 -24.059 -12.019  0.00  0.00    +0.156 HD
ENDBRANCH  21  28
ENDBRANCH   1  21
TORSDOF 6
ENDMDL
MODEL 7
REMARK VINA RESULT:     -11.2      5.450      9.112
REMARK  Name = 25243853
REMARK  6 active torsions:
REMARK  status: ('A' for Active; 'I' for Inactive)
REMARK    1  A    between atoms: N_1  and  C_6
REMARK    2  A    between atoms: N_1  and  C_21
REMARK    3  A    between atoms: C_3  and  C_16
REMARK    4  A    between atoms: C_11  and  C_18
REMARK    5  A    between atoms: C_18  and  O_19
REMARK    6  A    between atoms: C_21  and  C_28
REMARK                            x       y       z     vdW  Elec       q    Type
REMARK                         _______ _______ _______ _____ _____    ______ ____
ROOT
ATOM      1  N   UNL     1      33.668 -10.466 -24.627  0.00  0.00    -0.327 N 
ATOM      2  H   UNL     1      33.096 -10.004 -25.281  0.00  0.00    +0.147 HD
ENDROOT
BRANCH   1   6
ATOM      3  C   UNL     1      33.865 -14.660 -24.743  0.00  0.00    +0.054 C 
ATOM      4  C   UNL     1      33.873 -13.996 -23.517  0.00  0.00    +0.006 C 
ATOM      5  C   UNL     1      33.791 -13.932 -25.930  0.00  0.00    +0.006 C 
ATOM      6  C   UNL     1      33.734 -11.875 -24.666  0.00  0.00    +0.045 C 
ATOM      7  C   UNL     1      33.807 -12.603 -23.478  0.00  0.00    +0.014 C 
ATOM      8  C   UNL     1      33.726 -12.540 -25.892  0.00  0.00    +0.014 C 
BRANCH   3  16
ATOM      9  O   UNL     1      33.199 -16.681 -25.599  0.00  0.00    -0.270 OA
ATOM     10  N   UNL     1      34.818 -16.768 -23.913  0.00  0.00    -0.276 N 
ATOM     11  C   UNL     1      35.406 -18.136 -21.419  0.00  0.00    +0.102 C 
ATOM     12  C   UNL     1      34.569 -18.786 -22.526  0.00  0.00    +0.033 C 
ATOM     13  C   UNL     1      35.412 -16.608 -21.524  0.00  0.00    +0.033 C 
ATOM     14  C   UNL     1      34.896 -18.227 -23.909  0.00  0.00    +0.094 C 
ATOM     15  C   UNL     1      35.693 -16.104 -22.940  0.00  0.00    +0.094 C 
ATOM     16  C   UNL     1      33.934 -16.126 -24.784  0.00  0.00    +0.249 C 
BRANCH  11  18
ATOM     17  O   UNL     1      37.554 -18.625 -22.396  0.00  0.00    -0.250 OA
ATOM     18  C   UNL     1      36.803 -18.686 -21.432  0.00  0.00    +0.317 C 
BRANCH  18  19
ATOM     19  O   UNL     1      37.082 -19.249 -20.222  0.00  0.00    -0.444 OA
ATOM     20  C   UNL     1      36.453 -20.511 -19.972  0.00  0.00    +0.256 C 
ENDBRANCH  18  19
ENDBRANCH  11  18
ENDBRANCH   3  16
ENDBRANCH   1   6
BRANCH   1  21
ATOM     21  C   UNL     1      34.397  -9.681 -23.681  0.00  0.00    +0.145 C 
BRANCH  21  28
ATOM     22  N   UNL     1      33.804  -7.316 -23.709  0.00  0.00    -0.392 NA
ATOM     23  N   UNL     1      31.828  -7.697 -21.808  0.00  0.00    -0.200 NA
ATOM     24  N   UNL     1      31.307  -5.442 -21.876  0.00  0.00    -0.271 NA
ATOM     25  N   UNL     1      32.495  -3.944 -23.324  0.00  0.00    -0.310 NA
ATOM     26  N   UNL     1      34.224  -4.779 -24.701  0.00  0.00    -0.329 N 
ATOM     27  N   UNL     1      30.777  -3.156 -21.943  0.00  0.00    -0.283 N 
ATOM     28  C   UNL     1      33.561  -8.531 -23.194  0.00  0.00    +0.133 C 
ATOM     29  C   UNL     1      32.583  -8.718 -22.254  0.00  0.00    +0.193 C 
ATOM     30  C   UNL     1      33.047  -6.295 -23.262  0.00  0.00    +0.248 C 
ATOM     31  C   UNL     1      32.046  -6.473 -22.304  0.00  0.00    +0.131 C 
ATOM     32  C   UNL     1      33.216  -5.006 -23.729  0.00  0.00    +0.231 C 
ATOM     33  C   UNL     1      31.566  -4.231 -22.406  0.00  0.00    +0.207 C 
ATOM     34  H   UNL     1      34.372  -3.872 -25.055  0.00  0.00    +0.145 HD
ATOM     35  H   UNL     1      34.776  -5.527 -25.023  0.00  0.00    +0.145 HD
ATOM     36  H   UNL     1      30.080  -3.313 -21.266  0.00  0.00    +0.156 HD
ATOM     37  H   UNL     1      30.924  -2.249 -22.296  0.00  0.00    +0.156 HD
ENDBRANCH  21  28
ENDBRANCH   1  21
TORSDOF 6
ENDMDL
MODEL 8
REMARK VINA RESULT:     -10.9      4.541      8.274
REMARK  Name = 25243853
REMARK  6 active torsions:
REMARK  status: ('A' for Active; 'I' for Inactive)
REMARK    1  A    between atoms: N_1  and  C_6
REMARK    2  A    between atoms: N_1  and  C_21
REMARK    3  A    between atoms: C_3  and  C_16
REMARK    4  A    between atoms: C_11  and  C_18
REMARK    5  A    between atoms: C_18  and  O_19
REMARK    6  A    between atoms: C_21  and  C_28
REMARK                            x       y       z     vdW  Elec       q    Type
REMARK                         _______ _______ _______ _____ _____    ______ ____
ROOT
ATOM      1  N   UNL     1      33.991 -11.292 -25.090  0.00  0.00    -0.327 N 
ATOM      2  H   UNL     1      33.172 -10.854 -25.415  0.00  0.00    +0.147 HD
ENDROOT
BRANCH   1   6
ATOM      3  C   UNL     1      34.017 -15.475 -24.712  0.00  0.00    +0.054 C 
ATOM      4  C   UNL     1      34.522 -14.679 -23.684  0.00  0.00    +0.006 C 
ATOM      5  C   UNL     1      33.503 -14.881 -25.865  0.00  0.00    +0.006 C 
ATOM      6  C   UNL     1      33.999 -12.697 -24.962  0.00  0.00    +0.045 C 
ATOM      7  C   UNL     1      34.512 -13.289 -23.809  0.00  0.00    +0.014 C 
ATOM      8  C   UNL     1      33.495 -13.493 -25.991  0.00  0.00    +0.014 C 
BRANCH   3  16
ATOM      9  O   UNL     1      33.278 -17.554 -25.337  0.00  0.00    -0.270 OA
ATOM     10  N   UNL     1      34.871 -17.507 -23.625  0.00  0.00    -0.276 N 
ATOM     11  C   UNL     1      35.373 -18.595 -20.979  0.00  0.00    +0.102 C 
ATOM     12  C   UNL     1      34.523 -19.337 -22.016  0.00  0.00    +0.033 C 
ATOM     13  C   UNL     1      35.444 -17.091 -21.262  0.00  0.00    +0.033 C 
ATOM     14  C   UNL     1      34.889 -18.957 -23.450  0.00  0.00    +0.094 C 
ATOM     15  C   UNL     1      35.762 -16.769 -22.723  0.00  0.00    +0.094 C 
ATOM     16  C   UNL     1      34.026 -16.937 -24.580  0.00  0.00    +0.249 C 
BRANCH  11  18
ATOM     17  O   UNL     1      37.781 -18.567 -21.077  0.00  0.00    -0.250 OA
ATOM     18  C   UNL     1      36.746 -19.198 -20.905  0.00  0.00    +0.317 C 
BRANCH  18  19
ATOM     19  O   UNL     1      36.645 -20.527 -20.621  0.00  0.00    -0.444 OA
ATOM     20  C   UNL     1      36.509 -20.850 -19.233  0.00  0.00    +0.256 C 
ENDBRANCH  18  19
ENDBRANCH  11  18
ENDBRANCH   3  16
ENDBRANCH   1   6
BRANCH   1  21
ATOM     21  C   UNL     1      35.121 -10.477 -24.769  0.00  0.00    +0.145 C 
BRANCH  21  28
ATOM     22  N   UNL     1      33.585  -9.313 -23.275  0.00  0.00    -0.392 NA
ATOM     23  N   UNL     1      35.016  -6.954 -23.496  0.00  0.00    -0.200 NA
ATOM     24  N   UNL     1      33.526  -5.900 -22.071  0.00  0.00    -0.271 NA
ATOM     25  N   UNL     1      31.659  -7.085 -21.141  0.00  0.00    -0.310 NA
ATOM     26  N   UNL     1      31.333  -9.361 -21.686  0.00  0.00    -0.329 N 
ATOM     27  N   UNL     1      32.016  -4.829 -20.628  0.00  0.00    -0.283 N 
ATOM     28  C   UNL     1      34.687  -9.238 -24.037  0.00  0.00    +0.133 C 
ATOM     29  C   UNL     1      35.395  -8.071 -24.145  0.00  0.00    +0.193 C 
ATOM     30  C   UNL     1      33.208  -8.194 -22.626  0.00  0.00    +0.248 C 
ATOM     31  C   UNL     1      33.921  -6.997 -22.727  0.00  0.00    +0.131 C 
ATOM     32  C   UNL     1      32.089  -8.167 -21.816  0.00  0.00    +0.231 C 
ATOM     33  C   UNL     1      32.417  -5.996 -21.312  0.00  0.00    +0.207 C 
ATOM     34  H   UNL     1      30.530  -9.376 -21.117  0.00  0.00    +0.145 HD
ATOM     35  H   UNL     1      31.612 -10.175 -22.164  0.00  0.00    +0.145 HD
ATOM     36  H   UNL     1      32.539  -4.000 -20.720  0.00  0.00    +0.156 HD
ATOM     37  H   UNL     1      31.212  -4.843 -20.059  0.00  0.00    +0.156 HD
ENDBRANCH  21  28
ENDBRANCH   1  21
TORSDOF 6
ENDMDL
MODEL 9
REMARK VINA RESULT:     -10.8      3.875     11.656
REMARK  Name = 25243853
REMARK  6 active torsions:
REMARK  status: ('A' for Active; 'I' for Inactive)
REMARK    1  A    between atoms: N_1  and  C_6
REMARK    2  A    between atoms: N_1  and  C_21
REMARK    3  A    between atoms: C_3  and  C_16
REMARK    4  A    between atoms: C_11  and  C_18
REMARK    5  A    between atoms: C_18  and  O_19
REMARK    6  A    between atoms: C_21  and  C_28
REMARK                            x       y       z     vdW  Elec       q    Type
REMARK                         _______ _______ _______ _____ _____    ______ ____
ROOT
ATOM      1  N   UNL     1      36.373 -21.431 -18.003  0.00  0.00    -0.327 N 
ATOM      2  H   UNL     1      37.224 -21.214 -17.559  0.00  0.00    +0.147 HD
ENDROOT
BRANCH   1   6
ATOM      3  C   UNL     1      35.529 -19.636 -21.706  0.00  0.00    +0.054 C 
ATOM      4  C   UNL     1      36.817 -19.565 -21.174  0.00  0.00    +0.006 C 
ATOM      5  C   UNL     1      34.523 -20.303 -21.008  0.00  0.00    +0.006 C 
ATOM      6  C   UNL     1      36.090 -20.828 -19.248  0.00  0.00    +0.045 C 
ATOM      7  C   UNL     1      37.097 -20.162 -19.945  0.00  0.00    +0.014 C 
ATOM      8  C   UNL     1      34.802 -20.898 -19.779  0.00  0.00    +0.014 C 
BRANCH   3  16
ATOM      9  O   UNL     1      35.418 -19.706 -23.996  0.00  0.00    -0.270 OA
ATOM     10  N   UNL     1      34.771 -17.690 -23.002  0.00  0.00    -0.276 N 
ATOM     11  C   UNL     1      35.208 -14.827 -23.215  0.00  0.00    +0.102 C 
ATOM     12  C   UNL     1      35.332 -15.761 -24.423  0.00  0.00    +0.033 C 
ATOM     13  C   UNL     1      35.379 -15.574 -21.889  0.00  0.00    +0.033 C 
ATOM     14  C   UNL     1      34.489 -17.025 -24.271  0.00  0.00    +0.094 C 
ATOM     15  C   UNL     1      34.552 -16.859 -21.812  0.00  0.00    +0.094 C 
ATOM     16  C   UNL     1      35.234 -19.008 -23.000  0.00  0.00    +0.249 C 
BRANCH  11  18
ATOM     17  O   UNL     1      33.277 -13.862 -24.286  0.00  0.00    -0.250 OA
ATOM     18  C   UNL     1      33.900 -14.091 -23.258  0.00  0.00    +0.317 C 
BRANCH  18  19
ATOM     19  O   UNL     1      33.537 -13.733 -21.994  0.00  0.00    -0.444 OA
ATOM     20  C   UNL     1      32.610 -12.646 -21.905  0.00  0.00    +0.256 C 
ENDBRANCH  18  19
ENDBRANCH  11  18
ENDBRANCH   3  16
ENDBRANCH   1   6
BRANCH   1  21
ATOM     21  C   UNL     1      35.478 -22.343 -17.362  0.00  0.00    +0.145 C 
BRANCH  21  28
ATOM     22  N   UNL     1      35.042 -23.199 -15.120  0.00  0.00    -0.392 NA
ATOM     23  N   UNL     1      37.565 -22.464 -14.251  0.00  0.00    -0.200 NA
ATOM     24  N   UNL     1      37.096 -23.293 -12.141  0.00  0.00    -0.271 NA
ATOM     25  N   UNL     1      34.968 -24.285 -11.650  0.00  0.00    -0.310 NA
ATOM     26  N   UNL     1      33.324 -24.418 -13.342  0.00  0.00    -0.329 N 
ATOM     27  N   UNL     1      36.623 -24.132 -10.001  0.00  0.00    -0.283 N 
ATOM     28  C   UNL     1      35.915 -22.602 -15.946  0.00  0.00    +0.133 C 
ATOM     29  C   UNL     1      37.162 -22.239 -15.516  0.00  0.00    +0.193 C 
ATOM     30  C   UNL     1      35.447 -23.423 -13.855  0.00  0.00    +0.248 C 
ATOM     31  C   UNL     1      36.718 -23.058 -13.403  0.00  0.00    +0.131 C 
ATOM     32  C   UNL     1      34.625 -24.032 -12.927  0.00  0.00    +0.231 C 
ATOM     33  C   UNL     1      36.206 -23.893 -11.328  0.00  0.00    +0.207 C 
ATOM     34  H   UNL     1      32.713 -24.854 -12.705  0.00  0.00    +0.145 HD
ATOM     35  H   UNL     1      33.032 -24.250 -14.267  0.00  0.00    +0.145 HD
ATOM     36  H   UNL     1      37.525 -23.862  -9.712  0.00  0.00    +0.156 HD
ATOM     37  H   UNL     1      36.012 -24.568  -9.363  0.00  0.00    +0.156 HD
ENDBRANCH  21  28
ENDBRANCH   1  21
TORSDOF 6
ENDMDL
