MODEL 1
REMARK VINA RESULT:     -11.9      0.000      0.000
REMARK  Name = 16363
REMARK  6 active torsions:
REMARK  status: ('A' for Active; 'I' for Inactive)
REMARK    1  A    between atoms: N_1  and  C_19
REMARK    2  A    between atoms: C_2  and  N_9
REMARK    3  A    between atoms: C_19  and  C_20
REMARK    4  A    between atoms: C_20  and  C_21
REMARK    5  A    between atoms: C_21  and  C_23
REMARK    6  A    between atoms: C_23  and  C_25
REMARK                            x       y       z     vdW  Elec       q    Type
REMARK                         _______ _______ _______ _____ _____    ______ ____
ROOT
ATOM      1  N   UNL     1      35.006 -15.720 -24.443  0.00  0.00    +0.387 N 
ATOM      2  C   UNL     1      33.514 -13.427 -23.405  0.00  0.00    +0.086 C 
ATOM      3  C   UNL     1      34.825 -13.902 -22.777  0.00  0.00    -0.000 C 
ATOM      4  C   UNL     1      33.453 -13.844 -24.875  0.00  0.00    -0.000 C 
ATOM      5  C   UNL     1      35.044 -15.398 -23.010  0.00  0.00    -0.075 C 
ATOM      6  C   UNL     1      33.717 -15.341 -25.040  0.00  0.00    -0.075 C 
ATOM      7  H   UNL     1      35.737 -15.182 -24.907  0.00  0.00    -0.080 HD
ENDROOT
BRANCH   2   9
ATOM      8  O   UNL     1      34.505 -11.213 -25.197  0.00  0.00    -0.247 OA
ATOM      9  N   UNL     1      33.359 -12.001 -23.269  0.00  0.00    -0.282 N 
ATOM     10  N   UNL     1      33.473  -9.768 -23.636  0.00  0.00    -0.305 N 
ATOM     11  C   UNL     1      32.684 -11.354 -22.225  0.00  0.00    +0.079 A 
ATOM     12  C   UNL     1      33.865 -11.027 -24.172  0.00  0.00    +0.328 A 
ATOM     13  C   UNL     1      32.759  -9.982 -22.457  0.00  0.00    +0.076 A 
ATOM     14  C   UNL     1      32.032 -11.864 -21.123  0.00  0.00    +0.019 C 
ATOM     15  C   UNL     1      32.191  -9.057 -21.609  0.00  0.00    +0.019 C 
ATOM     16  C   UNL     1      31.446 -10.945 -20.246  0.00  0.00    +0.002 C 
ATOM     17  C   UNL     1      31.525  -9.557 -20.486  0.00  0.00    +0.002 C 
ATOM     18  H   UNL     1      33.673  -8.889 -24.033  0.00  0.00    +0.170 HD
ENDBRANCH   2   9
BRANCH   1  19
ATOM     19  C   UNL     1      35.267 -17.144 -24.654  0.00  0.00    -0.077 C 
BRANCH  19  20
ATOM     20  C   UNL     1      34.598 -17.973 -23.555  0.00  0.00    -0.015 C 
BRANCH  20  21
ATOM     21  C   UNL     1      35.529 -19.049 -22.990  0.00  0.00    +0.067 C 
BRANCH  21  23
ATOM     22  O   UNL     1      36.410 -18.029 -20.988  0.00  0.00    -0.291 OA
ATOM     23  C   UNL     1      35.745 -18.934 -21.488  0.00  0.00    +0.173 C 
BRANCH  23  25
ATOM     24  F   UNL     1      33.362 -22.720 -18.147  0.00  0.00    -0.204 F 
ATOM     25  C   UNL     1      35.109 -19.944 -20.595  0.00  0.00    +0.035 C 
ATOM     26  C   UNL     1      33.734 -19.989 -20.522  0.00  0.00    +0.005 C 
ATOM     27  C   UNL     1      35.919 -20.796 -19.878  0.00  0.00    +0.005 C 
ATOM     28  C   UNL     1      33.139 -20.934 -19.688  0.00  0.00    +0.030 C 
ATOM     29  C   UNL     1      35.323 -21.741 -19.044  0.00  0.00    +0.030 C 
ATOM     30  C   UNL     1      33.934 -21.811 -18.948  0.00  0.00    +0.140 C 
ENDBRANCH  23  25
ENDBRANCH  21  23
ENDBRANCH  20  21
ENDBRANCH  19  20
ENDBRANCH   1  19
TORSDOF 6
ENDMDL
MODEL 2
REMARK VINA RESULT:     -11.6      1.356      2.471
REMARK  Name = 16363
REMARK  6 active torsions:
REMARK  status: ('A' for Active; 'I' for Inactive)
REMARK    1  A    between atoms: N_1  and  C_19
REMARK    2  A    between atoms: C_2  and  N_9
REMARK    3  A    between atoms: C_19  and  C_20
REMARK    4  A    between atoms: C_20  and  C_21
REMARK    5  A    between atoms: C_21  and  C_23
REMARK    6  A    between atoms: C_23  and  C_25
REMARK                            x       y       z     vdW  Elec       q    Type
REMARK                         _______ _______ _______ _____ _____    ______ ____
ROOT
ATOM      1  N   UNL     1      34.379 -15.848 -24.096  0.00  0.00    +0.387 N 
ATOM      2  C   UNL     1      34.349 -12.939 -23.779  0.00  0.00    +0.086 C 
ATOM      3  C   UNL     1      33.435 -13.663 -24.768  0.00  0.00    -0.000 C 
ATOM      4  C   UNL     1      34.743 -13.881 -22.641  0.00  0.00    -0.000 C 
ATOM      5  C   UNL     1      34.056 -14.980 -25.237  0.00  0.00    -0.075 C 
ATOM      6  C   UNL     1      35.321 -15.191 -23.179  0.00  0.00    -0.075 C 
ATOM      7  H   UNL     1      33.516 -16.028 -23.584  0.00  0.00    -0.080 HD
ENDROOT
BRANCH   2   9
ATOM      8  O   UNL     1      31.967 -12.671 -21.948  0.00  0.00    -0.247 OA
ATOM      9  N   UNL     1      33.719 -11.749 -23.265  0.00  0.00    -0.282 N 
ATOM     10  N   UNL     1      32.326 -10.343 -22.162  0.00  0.00    -0.305 N 
ATOM     11  C   UNL     1      34.122 -10.435 -23.538  0.00  0.00    +0.079 A 
ATOM     12  C   UNL     1      32.591 -11.721 -22.401  0.00  0.00    +0.328 A 
ATOM     13  C   UNL     1      33.261  -9.577 -22.857  0.00  0.00    +0.076 A 
ATOM     14  C   UNL     1      35.154  -9.953 -24.315  0.00  0.00    +0.019 C 
ATOM     15  C   UNL     1      33.385  -8.206 -22.916  0.00  0.00    +0.019 C 
ATOM     16  C   UNL     1      35.302  -8.564 -24.391  0.00  0.00    +0.002 C 
ATOM     17  C   UNL     1      34.426  -7.700 -23.699  0.00  0.00    +0.002 C 
ATOM     18  H   UNL     1      31.601  -9.989 -21.597  0.00  0.00    +0.170 HD
ENDBRANCH   2   9
BRANCH   1  19
ATOM     19  C   UNL     1      34.924 -17.123 -24.562  0.00  0.00    -0.077 C 
BRANCH  19  20
ATOM     20  C   UNL     1      34.451 -18.262 -23.656  0.00  0.00    -0.015 C 
BRANCH  20  21
ATOM     21  C   UNL     1      35.619 -19.033 -23.034  0.00  0.00    +0.067 C 
BRANCH  21  23
ATOM     22  O   UNL     1      36.297 -17.896 -21.016  0.00  0.00    -0.291 OA
ATOM     23  C   UNL     1      35.724 -18.857 -21.526  0.00  0.00    +0.173 C 
BRANCH  23  25
ATOM     24  F   UNL     1      33.360 -22.678 -18.212  0.00  0.00    -0.204 F 
ATOM     25  C   UNL     1      35.093 -19.877 -20.642  0.00  0.00    +0.035 C 
ATOM     26  C   UNL     1      35.908 -20.701 -19.898  0.00  0.00    +0.005 C 
ATOM     27  C   UNL     1      33.719 -19.958 -20.601  0.00  0.00    +0.005 C 
ATOM     28  C   UNL     1      35.318 -21.656 -19.070  0.00  0.00    +0.030 C 
ATOM     29  C   UNL     1      33.129 -20.913 -19.774  0.00  0.00    +0.030 C 
ATOM     30  C   UNL     1      33.927 -21.761 -19.008  0.00  0.00    +0.140 C 
ENDBRANCH  23  25
ENDBRANCH  21  23
ENDBRANCH  20  21
ENDBRANCH  19  20
ENDBRANCH   1  19
TORSDOF 6
ENDMDL
MODEL 3
REMARK VINA RESULT:     -11.3      3.908      9.872
REMARK  Name = 16363
REMARK  6 active torsions:
REMARK  status: ('A' for Active; 'I' for Inactive)
REMARK    1  A    between atoms: N_1  and  C_19
REMARK    2  A    between atoms: C_2  and  N_9
REMARK    3  A    between atoms: C_19  and  C_20
REMARK    4  A    between atoms: C_20  and  C_21
REMARK    5  A    between atoms: C_21  and  C_23
REMARK    6  A    between atoms: C_23  and  C_25
REMARK                            x       y       z     vdW  Elec       q    Type
REMARK                         _______ _______ _______ _____ _____    ______ ____
ROOT
ATOM      1  N   UNL     1      35.194 -15.677 -23.920  0.00  0.00    +0.387 N 
ATOM      2  C   UNL     1      35.033 -17.948 -22.083  0.00  0.00    +0.086 C 
ATOM      3  C   UNL     1      35.427 -18.111 -23.551  0.00  0.00    -0.000 C 
ATOM      4  C   UNL     1      35.357 -16.533 -21.605  0.00  0.00    -0.000 C 
ATOM      5  C   UNL     1      34.816 -17.007 -24.416  0.00  0.00    -0.075 C 
ATOM      6  C   UNL     1      34.749 -15.479 -22.533  0.00  0.00    -0.075 C 
ATOM      7  H   UNL     1      36.212 -15.613 -23.935  0.00  0.00    -0.080 HD
ENDROOT
BRANCH   2   9
ATOM      8  O   UNL     1      37.976 -18.367 -21.574  0.00  0.00    -0.247 OA
ATOM      9  N   UNL     1      35.688 -18.931 -21.257  0.00  0.00    -0.282 N 
ATOM     10  N   UNL     1      37.272 -20.150 -20.189  0.00  0.00    -0.305 N 
ATOM     11  C   UNL     1      35.042 -19.920 -20.503  0.00  0.00    +0.079 A 
ATOM     12  C   UNL     1      37.093 -19.052 -21.078  0.00  0.00    +0.328 A 
ATOM     13  C   UNL     1      36.021 -20.665 -19.850  0.00  0.00    +0.076 A 
ATOM     14  C   UNL     1      33.701 -20.204 -20.354  0.00  0.00    +0.019 C 
ATOM     15  C   UNL     1      35.716 -21.722 -19.021  0.00  0.00    +0.019 C 
ATOM     16  C   UNL     1      33.364 -21.273 -19.517  0.00  0.00    +0.002 C 
ATOM     17  C   UNL     1      34.361 -22.024 -18.858  0.00  0.00    +0.002 C 
ATOM     18  H   UNL     1      38.139 -20.490 -19.866  0.00  0.00    +0.170 HD
ENDBRANCH   2   9
BRANCH   1  19
ATOM     19  C   UNL     1      34.646 -14.633 -24.786  0.00  0.00    -0.077 C 
BRANCH  19  20
ATOM     20  C   UNL     1      33.736 -13.702 -23.981  0.00  0.00    -0.015 C 
BRANCH  20  21
ATOM     21  C   UNL     1      34.434 -12.394 -23.600  0.00  0.00    +0.067 C 
BRANCH  21  23
ATOM     22  O   UNL     1      34.074 -11.529 -25.825  0.00  0.00    -0.291 OA
ATOM     23  C   UNL     1      34.252 -11.290 -24.632  0.00  0.00    +0.173 C 
BRANCH  23  25
ATOM     24  F   UNL     1      34.329  -5.978 -22.913  0.00  0.00    -0.204 F 
ATOM     25  C   UNL     1      34.272  -9.872 -24.173  0.00  0.00    +0.035 C 
ATOM     26  C   UNL     1      35.433  -9.146 -24.321  0.00  0.00    +0.005 C 
ATOM     27  C   UNL     1      33.130  -9.340 -23.617  0.00  0.00    +0.005 C 
ATOM     28  C   UNL     1      35.453  -7.819 -23.892  0.00  0.00    +0.030 C 
ATOM     29  C   UNL     1      33.150  -8.014 -23.188  0.00  0.00    +0.030 C 
ATOM     30  C   UNL     1      34.310  -7.253 -23.325  0.00  0.00    +0.140 C 
ENDBRANCH  23  25
ENDBRANCH  21  23
ENDBRANCH  20  21
ENDBRANCH  19  20
ENDBRANCH   1  19
TORSDOF 6
ENDMDL
MODEL 4
REMARK VINA RESULT:     -11.0      3.106      5.598
REMARK  Name = 16363
REMARK  6 active torsions:
REMARK  status: ('A' for Active; 'I' for Inactive)
REMARK    1  A    between atoms: N_1  and  C_19
REMARK    2  A    between atoms: C_2  and  N_9
REMARK    3  A    between atoms: C_19  and  C_20
REMARK    4  A    between atoms: C_20  and  C_21
REMARK    5  A    between atoms: C_21  and  C_23
REMARK    6  A    between atoms: C_23  and  C_25
REMARK                            x       y       z     vdW  Elec       q    Type
REMARK                         _______ _______ _______ _____ _____    ______ ____
ROOT
ATOM      1  N   UNL     1      36.113 -19.750 -20.093  0.00  0.00    +0.387 N 
ATOM      2  C   UNL     1      35.639 -18.199 -22.528  0.00  0.00    +0.086 C 
ATOM      3  C   UNL     1      34.503 -18.857 -21.744  0.00  0.00    -0.000 C 
ATOM      4  C   UNL     1      36.827 -17.928 -21.605  0.00  0.00    -0.000 C 
ATOM      5  C   UNL     1      34.994 -20.090 -20.983  0.00  0.00    -0.075 C 
ATOM      6  C   UNL     1      37.243 -19.190 -20.847  0.00  0.00    -0.075 C 
ATOM      7  H   UNL     1      35.789 -19.038 -19.438  0.00  0.00    -0.080 HD
ENDROOT
BRANCH   2   9
ATOM      8  O   UNL     1      35.142 -17.640 -25.449  0.00  0.00    -0.247 OA
ATOM      9  N   UNL     1      35.196 -16.984 -23.164  0.00  0.00    -0.282 N 
ATOM     10  N   UNL     1      34.557 -15.467 -24.721  0.00  0.00    -0.305 N 
ATOM     11  C   UNL     1      34.900 -15.783 -22.506  0.00  0.00    +0.079 A 
ATOM     12  C   UNL     1      34.988 -16.814 -24.560  0.00  0.00    +0.328 A 
ATOM     13  C   UNL     1      34.509 -14.856 -23.469  0.00  0.00    +0.076 A 
ATOM     14  C   UNL     1      34.948 -15.456 -21.167  0.00  0.00    +0.019 C 
ATOM     15  C   UNL     1      34.148 -13.565 -23.148  0.00  0.00    +0.019 C 
ATOM     16  C   UNL     1      34.587 -14.151 -20.816  0.00  0.00    +0.002 C 
ATOM     17  C   UNL     1      34.191 -13.216 -21.796  0.00  0.00    +0.002 C 
ATOM     18  H   UNL     1      34.330 -15.037 -25.578  0.00  0.00    +0.170 HD
ENDBRANCH   2   9
BRANCH   1  19
ATOM     19  C   UNL     1      36.538 -20.927 -19.334  0.00  0.00    -0.077 C 
BRANCH  19  20
ATOM     20  C   UNL     1      35.427 -21.978 -19.323  0.00  0.00    -0.015 C 
BRANCH  20  21
ATOM     21  C   UNL     1      34.882 -22.233 -17.915  0.00  0.00    +0.067 C 
BRANCH  21  23
ATOM     22  O   UNL     1      32.662 -22.187 -18.860  0.00  0.00    -0.291 OA
ATOM     23  C   UNL     1      33.366 -22.353 -17.865  0.00  0.00    +0.173 C 
BRANCH  23  25
ATOM     24  F   UNL     1      30.940 -23.664 -13.011  0.00  0.00    -0.204 F 
ATOM     25  C   UNL     1      32.719 -22.702 -16.569  0.00  0.00    +0.035 C 
ATOM     26  C   UNL     1      31.344 -22.671 -16.487  0.00  0.00    +0.005 C 
ATOM     27  C   UNL     1      33.518 -23.045 -15.501  0.00  0.00    +0.005 C 
ATOM     28  C   UNL     1      30.738 -22.998 -15.275  0.00  0.00    +0.030 C 
ATOM     29  C   UNL     1      32.912 -23.372 -14.289  0.00  0.00    +0.030 C 
ATOM     30  C   UNL     1      31.522 -23.349 -14.175  0.00  0.00    +0.140 C 
ENDBRANCH  23  25
ENDBRANCH  21  23
ENDBRANCH  20  21
ENDBRANCH  19  20
ENDBRANCH   1  19
TORSDOF 6
ENDMDL
MODEL 5
REMARK VINA RESULT:     -10.8      2.375      3.596
REMARK  Name = 16363
REMARK  6 active torsions:
REMARK  status: ('A' for Active; 'I' for Inactive)
REMARK    1  A    between atoms: N_1  and  C_19
REMARK    2  A    between atoms: C_2  and  N_9
REMARK    3  A    between atoms: C_19  and  C_20
REMARK    4  A    between atoms: C_20  and  C_21
REMARK    5  A    between atoms: C_21  and  C_23
REMARK    6  A    between atoms: C_23  and  C_25
REMARK                            x       y       z     vdW  Elec       q    Type
REMARK                         _______ _______ _______ _____ _____    ______ ____
ROOT
ATOM      1  N   UNL     1      33.286 -13.700 -24.608  0.00  0.00    +0.387 N 
ATOM      2  C   UNL     1      33.725 -11.026 -23.504  0.00  0.00    +0.086 C 
ATOM      3  C   UNL     1      33.538 -11.272 -25.001  0.00  0.00    -0.000 C 
ATOM      4  C   UNL     1      33.058 -12.142 -22.700  0.00  0.00    -0.000 C 
ATOM      5  C   UNL     1      33.990 -12.679 -25.395  0.00  0.00    -0.075 C 
ATOM      6  C   UNL     1      33.525 -13.521 -23.168  0.00  0.00    -0.075 C 
ATOM      7  H   UNL     1      32.286 -13.592 -24.775  0.00  0.00    -0.080 HD
ENDROOT
BRANCH   2   9
ATOM      8  O   UNL     1      31.190 -10.344 -22.021  0.00  0.00    -0.247 OA
ATOM      9  N   UNL     1      33.209  -9.737 -23.120  0.00  0.00    -0.282 N 
ATOM     10  N   UNL     1      31.897  -8.100 -22.262  0.00  0.00    -0.305 N 
ATOM     11  C   UNL     1      33.824  -8.505 -23.380  0.00  0.00    +0.079 A 
ATOM     12  C   UNL     1      31.994  -9.513 -22.417  0.00  0.00    +0.328 A 
ATOM     13  C   UNL     1      33.012  -7.504 -22.850  0.00  0.00    +0.076 A 
ATOM     14  C   UNL     1      35.005  -8.208 -24.027  0.00  0.00    +0.019 C 
ATOM     15  C   UNL     1      33.334  -6.168 -22.938  0.00  0.00    +0.019 C 
ATOM     16  C   UNL     1      35.355  -6.858 -24.129  0.00  0.00    +0.002 C 
ATOM     17  C   UNL     1      34.528  -5.849 -23.590  0.00  0.00    +0.002 C 
ATOM     18  H   UNL     1      31.162  -7.623 -21.812  0.00  0.00    +0.170 HD
ENDBRANCH   2   9
BRANCH   1  19
ATOM     19  C   UNL     1      33.690 -15.041 -25.030  0.00  0.00    -0.077 C 
BRANCH  19  20
ATOM     20  C   UNL     1      34.751 -15.598 -24.078  0.00  0.00    -0.015 C 
BRANCH  20  21
ATOM     21  C   UNL     1      35.295 -16.951 -24.542  0.00  0.00    +0.067 C 
BRANCH  21  23
ATOM     22  O   UNL     1      33.629 -18.671 -24.236  0.00  0.00    -0.291 OA
ATOM     23  C   UNL     1      34.658 -18.136 -23.829  0.00  0.00    +0.173 C 
BRANCH  23  25
ATOM     24  F   UNL     1      37.134 -20.152 -19.249  0.00  0.00    -0.204 F 
ATOM     25  C   UNL     1      35.319 -18.673 -22.606  0.00  0.00    +0.035 C 
ATOM     26  C   UNL     1      34.596 -19.497 -21.772  0.00  0.00    +0.005 C 
ATOM     27  C   UNL     1      36.628 -18.327 -22.355  0.00  0.00    +0.005 C 
ATOM     28  C   UNL     1      35.214 -20.001 -20.629  0.00  0.00    +0.030 C 
ATOM     29  C   UNL     1      37.246 -18.831 -21.211  0.00  0.00    +0.030 C 
ATOM     30  C   UNL     1      36.541 -19.668 -20.348  0.00  0.00    +0.140 C 
ENDBRANCH  23  25
ENDBRANCH  21  23
ENDBRANCH  20  21
ENDBRANCH  19  20
ENDBRANCH   1  19
TORSDOF 6
ENDMDL
MODEL 6
REMARK VINA RESULT:     -10.7      1.603      2.455
REMARK  Name = 16363
REMARK  6 active torsions:
REMARK  status: ('A' for Active; 'I' for Inactive)
REMARK    1  A    between atoms: N_1  and  C_19
REMARK    2  A    between atoms: C_2  and  N_9
REMARK    3  A    between atoms: C_19  and  C_20
REMARK    4  A    between atoms: C_20  and  C_21
REMARK    5  A    between atoms: C_21  and  C_23
REMARK    6  A    between atoms: C_23  and  C_25
REMARK                            x       y       z     vdW  Elec       q    Type
REMARK                         _______ _______ _______ _____ _____    ______ ____
ROOT
ATOM      1  N   UNL     1      34.253 -14.186 -24.620  0.00  0.00    +0.387 N 
ATOM      2  C   UNL     1      33.694 -11.358 -24.115  0.00  0.00    +0.086 C 
ATOM      3  C   UNL     1      34.306 -12.273 -23.054  0.00  0.00    -0.000 C 
ATOM      4  C   UNL     1      34.006 -11.892 -25.513  0.00  0.00    -0.000 C 
ATOM      5  C   UNL     1      33.893 -13.730 -23.270  0.00  0.00    -0.075 C 
ATOM      6  C   UNL     1      33.604 -13.362 -25.650  0.00  0.00    -0.075 C 
ATOM      7  H   UNL     1      35.262 -14.086 -24.728  0.00  0.00    -0.080 HD
ENDROOT
BRANCH   2   9
ATOM      8  O   UNL     1      36.046  -9.992 -25.417  0.00  0.00    -0.247 OA
ATOM      9  N   UNL     1      34.163 -10.004 -23.966  0.00  0.00    -0.282 N 
ATOM     10  N   UNL     1      35.368  -8.096 -24.177  0.00  0.00    -0.305 N 
ATOM     11  C   UNL     1      33.579  -9.028 -23.147  0.00  0.00    +0.079 A 
ATOM     12  C   UNL     1      35.290  -9.445 -24.627  0.00  0.00    +0.328 A 
ATOM     13  C   UNL     1      34.324  -7.858 -23.282  0.00  0.00    +0.076 A 
ATOM     14  C   UNL     1      32.477  -9.089 -22.320  0.00  0.00    +0.019 C 
ATOM     15  C   UNL     1      34.012  -6.701 -22.605  0.00  0.00    +0.019 C 
ATOM     16  C   UNL     1      32.139  -7.926 -21.621  0.00  0.00    +0.002 C 
ATOM     17  C   UNL     1      32.898  -6.745 -21.761  0.00  0.00    +0.002 C 
ATOM     18  H   UNL     1      36.046  -7.438 -24.453  0.00  0.00    +0.170 HD
ENDBRANCH   2   9
BRANCH   1  19
ATOM     19  C   UNL     1      33.899 -15.594 -24.796  0.00  0.00    -0.077 C 
BRANCH  19  20
ATOM     20  C   UNL     1      35.144 -16.473 -24.660  0.00  0.00    -0.015 C 
BRANCH  20  21
ATOM     21  C   UNL     1      34.900 -17.693 -23.767  0.00  0.00    +0.067 C 
BRANCH  21  23
ATOM     22  O   UNL     1      35.505 -16.351 -21.855  0.00  0.00    -0.291 OA
ATOM     23  C   UNL     1      35.309 -17.473 -22.318  0.00  0.00    +0.173 C 
BRANCH  23  25
ATOM     24  F   UNL     1      35.865 -21.919 -18.987  0.00  0.00    -0.204 F 
ATOM     25  C   UNL     1      35.457 -18.660 -21.429  0.00  0.00    +0.035 C 
ATOM     26  C   UNL     1      36.716 -19.002 -20.989  0.00  0.00    +0.005 C 
ATOM     27  C   UNL     1      34.330 -19.370 -21.081  0.00  0.00    +0.005 C 
ATOM     28  C   UNL     1      36.855 -20.113 -20.157  0.00  0.00    +0.030 C 
ATOM     29  C   UNL     1      34.469 -20.480 -20.249  0.00  0.00    +0.030 C 
ATOM     30  C   UNL     1      35.731 -20.852 -19.787  0.00  0.00    +0.140 C 
ENDBRANCH  23  25
ENDBRANCH  21  23
ENDBRANCH  20  21
ENDBRANCH  19  20
ENDBRANCH   1  19
TORSDOF 6
ENDMDL
MODEL 7
REMARK VINA RESULT:     -10.7      3.505      6.293
REMARK  Name = 16363
REMARK  6 active torsions:
REMARK  status: ('A' for Active; 'I' for Inactive)
REMARK    1  A    between atoms: N_1  and  C_19
REMARK    2  A    between atoms: C_2  and  N_9
REMARK    3  A    between atoms: C_19  and  C_20
REMARK    4  A    between atoms: C_20  and  C_21
REMARK    5  A    between atoms: C_21  and  C_23
REMARK    6  A    between atoms: C_23  and  C_25
REMARK                            x       y       z     vdW  Elec       q    Type
REMARK                         _______ _______ _______ _____ _____    ______ ____
ROOT
ATOM      1  N   UNL     1      35.788 -20.800 -20.155  0.00  0.00    +0.387 N 
ATOM      2  C   UNL     1      35.317 -18.174 -21.355  0.00  0.00    +0.086 C 
ATOM      3  C   UNL     1      36.716 -18.779 -21.237  0.00  0.00    -0.000 C 
ATOM      4  C   UNL     1      34.264 -19.281 -21.376  0.00  0.00    -0.000 C 
ATOM      5  C   UNL     1      36.805 -19.745 -20.053  0.00  0.00    -0.075 C 
ATOM      6  C   UNL     1      34.433 -20.232 -20.189  0.00  0.00    -0.075 C 
ATOM      7  H   UNL     1      35.940 -21.301 -21.030  0.00  0.00    -0.080 HD
ENDROOT
BRANCH   2   9
ATOM      8  O   UNL     1      35.505 -18.933 -24.268  0.00  0.00    -0.247 OA
ATOM      9  N   UNL     1      35.210 -17.341 -22.526  0.00  0.00    -0.282 N 
ATOM     10  N   UNL     1      35.144 -16.631 -24.678  0.00  0.00    -0.305 N 
ATOM     11  C   UNL     1      34.986 -15.958 -22.522  0.00  0.00    +0.079 A 
ATOM     12  C   UNL     1      35.312 -17.792 -23.870  0.00  0.00    +0.328 A 
ATOM     13  C   UNL     1      34.947 -15.529 -23.847  0.00  0.00    +0.076 A 
ATOM     14  C   UNL     1      34.821 -15.077 -21.474  0.00  0.00    +0.019 C 
ATOM     15  C   UNL     1      34.742 -14.211 -24.191  0.00  0.00    +0.019 C 
ATOM     16  C   UNL     1      34.611 -13.732 -21.797  0.00  0.00    +0.002 C 
ATOM     17  C   UNL     1      34.573 -13.304 -23.141  0.00  0.00    +0.002 C 
ATOM     18  H   UNL     1      35.162 -16.611 -25.662  0.00  0.00    +0.170 HD
ENDBRANCH   2   9
BRANCH   1  19
ATOM     19  C   UNL     1      35.918 -21.745 -19.045  0.00  0.00    -0.077 C 
BRANCH  19  20
ATOM     20  C   UNL     1      34.626 -22.547 -18.879  0.00  0.00    -0.015 C 
BRANCH  20  21
ATOM     21  C   UNL     1      34.229 -22.713 -17.410  0.00  0.00    +0.067 C 
BRANCH  21  23
ATOM     22  O   UNL     1      32.004 -21.979 -17.985  0.00  0.00    -0.291 OA
ATOM     23  C   UNL     1      32.743 -22.508 -17.157  0.00  0.00    +0.173 C 
BRANCH  23  25
ATOM     24  F   UNL     1      30.575 -24.301 -12.335  0.00  0.00    -0.204 F 
ATOM     25  C   UNL     1      32.164 -22.986 -15.869  0.00  0.00    +0.035 C 
ATOM     26  C   UNL     1      30.822 -23.292 -15.822  0.00  0.00    +0.005 C 
ATOM     27  C   UNL     1      32.992 -23.105 -14.776  0.00  0.00    +0.005 C 
ATOM     28  C   UNL     1      30.281 -23.740 -14.617  0.00  0.00    +0.030 C 
ATOM     29  C   UNL     1      32.451 -23.553 -13.572  0.00  0.00    +0.030 C 
ATOM     30  C   UNL     1      31.096 -23.871 -13.491  0.00  0.00    +0.140 C 
ENDBRANCH  23  25
ENDBRANCH  21  23
ENDBRANCH  20  21
ENDBRANCH  19  20
ENDBRANCH   1  19
TORSDOF 6
ENDMDL
MODEL 8
REMARK VINA RESULT:     -10.5      4.202      7.077
REMARK  Name = 16363
REMARK  6 active torsions:
REMARK  status: ('A' for Active; 'I' for Inactive)
REMARK    1  A    between atoms: N_1  and  C_19
REMARK    2  A    between atoms: C_2  and  N_9
REMARK    3  A    between atoms: C_19  and  C_20
REMARK    4  A    between atoms: C_20  and  C_21
REMARK    5  A    between atoms: C_21  and  C_23
REMARK    6  A    between atoms: C_23  and  C_25
REMARK                            x       y       z     vdW  Elec       q    Type
REMARK                         _______ _______ _______ _____ _____    ______ ____
ROOT
ATOM      1  N   UNL     1      32.309  -9.793 -20.588  0.00  0.00    +0.387 N 
ATOM      2  C   UNL     1      31.787  -7.152 -21.733  0.00  0.00    +0.086 C 
ATOM      3  C   UNL     1      32.815  -7.373 -20.623  0.00  0.00    -0.000 C 
ATOM      4  C   UNL     1      31.586  -8.442 -22.529  0.00  0.00    -0.000 C 
ATOM      5  C   UNL     1      32.453  -8.586 -19.763  0.00  0.00    -0.075 C 
ATOM      6  C   UNL     1      31.265  -9.620 -21.608  0.00  0.00    -0.075 C 
ATOM      7  H   UNL     1      33.193  -9.955 -21.068  0.00  0.00    -0.080 HD
ENDROOT
BRANCH   2   9
ATOM      8  O   UNL     1      30.463  -4.481 -22.185  0.00  0.00    -0.247 OA
ATOM      9  N   UNL     1      32.182  -6.070 -22.599  0.00  0.00    -0.282 N 
ATOM     10  N   UNL     1      32.239  -4.089 -23.697  0.00  0.00    -0.305 N 
ATOM     11  C   UNL     1      33.311  -6.065 -23.429  0.00  0.00    +0.079 A 
ATOM     12  C   UNL     1      31.488  -4.838 -22.747  0.00  0.00    +0.328 A 
ATOM     13  C   UNL     1      33.339  -4.844 -24.101  0.00  0.00    +0.076 A 
ATOM     14  C   UNL     1      34.283  -7.022 -23.631  0.00  0.00    +0.019 C 
ATOM     15  C   UNL     1      34.330  -4.519 -25.000  0.00  0.00    +0.019 C 
ATOM     16  C   UNL     1      35.301  -6.715 -24.540  0.00  0.00    +0.002 C 
ATOM     17  C   UNL     1      35.324  -5.477 -25.218  0.00  0.00    +0.002 C 
ATOM     18  H   UNL     1      32.017  -3.184 -24.017  0.00  0.00    +0.170 HD
ENDBRANCH   2   9
BRANCH   1  19
ATOM     19  C   UNL     1      32.013 -10.954 -19.747  0.00  0.00    -0.077 C 
BRANCH  19  20
ATOM     20  C   UNL     1      31.706 -12.173 -20.618  0.00  0.00    -0.015 C 
BRANCH  20  21
ATOM     21  C   UNL     1      32.960 -12.992 -20.935  0.00  0.00    +0.067 C 
BRANCH  21  23
ATOM     22  O   UNL     1      33.458 -11.730 -22.931  0.00  0.00    -0.291 OA
ATOM     23  C   UNL     1      33.447 -12.823 -22.367  0.00  0.00    +0.173 C 
BRANCH  23  25
ATOM     24  F   UNL     1      35.313 -17.316 -25.105  0.00  0.00    -0.204 F 
ATOM     25  C   UNL     1      33.945 -14.022 -23.099  0.00  0.00    +0.035 C 
ATOM     26  C   UNL     1      34.863 -14.840 -22.478  0.00  0.00    +0.005 C 
ATOM     27  C   UNL     1      33.470 -14.268 -24.367  0.00  0.00    +0.005 C 
ATOM     28  C   UNL     1      35.329 -15.963 -23.161  0.00  0.00    +0.030 C 
ATOM     29  C   UNL     1      33.936 -15.390 -25.051  0.00  0.00    +0.030 C 
ATOM     30  C   UNL     1      34.865 -16.238 -24.449  0.00  0.00    +0.140 C 
ENDBRANCH  23  25
ENDBRANCH  21  23
ENDBRANCH  20  21
ENDBRANCH  19  20
ENDBRANCH   1  19
TORSDOF 6
ENDMDL
MODEL 9
REMARK VINA RESULT:     -10.5      3.381      5.713
REMARK  Name = 16363
REMARK  6 active torsions:
REMARK  status: ('A' for Active; 'I' for Inactive)
REMARK    1  A    between atoms: N_1  and  C_19
REMARK    2  A    between atoms: C_2  and  N_9
REMARK    3  A    between atoms: C_19  and  C_20
REMARK    4  A    between atoms: C_20  and  C_21
REMARK    5  A    between atoms: C_21  and  C_23
REMARK    6  A    between atoms: C_23  and  C_25
REMARK                            x       y       z     vdW  Elec       q    Type
REMARK                         _______ _______ _______ _____ _____    ______ ____
ROOT
ATOM      1  N   UNL     1      33.798 -10.274 -24.285  0.00  0.00    +0.387 N 
ATOM      2  C   UNL     1      33.557  -8.105 -22.336  0.00  0.00    +0.086 C 
ATOM      3  C   UNL     1      34.456  -8.001 -23.568  0.00  0.00    -0.000 C 
ATOM      4  C   UNL     1      32.427  -9.102 -22.593  0.00  0.00    -0.000 C 
ATOM      5  C   UNL     1      34.935  -9.380 -24.025  0.00  0.00    -0.075 C 
ATOM      6  C   UNL     1      32.970 -10.446 -23.083  0.00  0.00    -0.075 C 
ATOM      7  H   UNL     1      33.219  -9.846 -25.006  0.00  0.00    -0.080 HD
ENDROOT
BRANCH   2   9
ATOM      8  O   UNL     1      33.139  -6.922 -19.594  0.00  0.00    -0.247 OA
ATOM      9  N   UNL     1      33.030  -6.816 -21.967  0.00  0.00    -0.282 N 
ATOM     10  N   UNL     1      32.320  -5.034 -20.760  0.00  0.00    -0.305 N 
ATOM     11  C   UNL     1      32.595  -5.830 -22.862  0.00  0.00    +0.079 A 
ATOM     12  C   UNL     1      32.869  -6.342 -20.636  0.00  0.00    +0.328 A 
ATOM     13  C   UNL     1      32.160  -4.738 -22.113  0.00  0.00    +0.076 A 
ATOM     14  C   UNL     1      32.554  -5.821 -24.240  0.00  0.00    +0.019 C 
ATOM     15  C   UNL     1      31.667  -3.591 -22.696  0.00  0.00    +0.019 C 
ATOM     16  C   UNL     1      32.057  -4.667 -24.857  0.00  0.00    +0.002 C 
ATOM     17  C   UNL     1      31.618  -3.565 -24.093  0.00  0.00    +0.002 C 
ATOM     18  H   UNL     1      32.092  -4.436 -20.012  0.00  0.00    +0.170 HD
ENDBRANCH   2   9
BRANCH   1  19
ATOM     19  C   UNL     1      34.269 -11.572 -24.770  0.00  0.00    -0.077 C 
BRANCH  19  20
ATOM     20  C   UNL     1      33.670 -12.700 -23.928  0.00  0.00    -0.015 C 
BRANCH  20  21
ATOM     21  C   UNL     1      34.698 -13.783 -23.591  0.00  0.00    +0.067 C 
BRANCH  21  23
ATOM     22  O   UNL     1      34.138 -15.063 -25.559  0.00  0.00    -0.291 OA
ATOM     23  C   UNL     1      34.508 -15.066 -24.387  0.00  0.00    +0.173 C 
BRANCH  23  25
ATOM     24  F   UNL     1      35.603 -19.943 -21.898  0.00  0.00    -0.204 F 
ATOM     25  C   UNL     1      34.801 -16.369 -23.723  0.00  0.00    +0.035 C 
ATOM     26  C   UNL     1      35.339 -16.357 -22.456  0.00  0.00    +0.005 C 
ATOM     27  C   UNL     1      34.522 -17.534 -24.401  0.00  0.00    +0.005 C 
ATOM     28  C   UNL     1      35.612 -17.575 -21.834  0.00  0.00    +0.030 C 
ATOM     29  C   UNL     1      34.796 -18.752 -23.779  0.00  0.00    +0.030 C 
ATOM     30  C   UNL     1      35.340 -18.773 -22.496  0.00  0.00    +0.140 C 
ENDBRANCH  23  25
ENDBRANCH  21  23
ENDBRANCH  20  21
ENDBRANCH  19  20
ENDBRANCH   1  19
TORSDOF 6
ENDMDL
