MODEL 1
REMARK VINA RESULT:     -11.2      0.000      0.000
REMARK  Name = 25118925
REMARK  3 active torsions:
REMARK  status: ('A' for Active; 'I' for Inactive)
REMARK    1  A    between atoms: C_3  and  C_12
REMARK    2  A    between atoms: C_5  and  C_24
REMARK    3  A    between atoms: C_27  and  C_33
REMARK                            x       y       z     vdW  Elec       q    Type
REMARK                         _______ _______ _______ _____ _____    ______ ____
ROOT
ATOM      1  N   UNL     1      35.055 -18.857 -24.024  0.00  0.00    -0.279 N 
ATOM      2  N   UNL     1      34.624 -17.477 -22.337  0.00  0.00    -0.394 NA
ATOM      3  C   UNL     1      34.827 -18.730 -22.681  0.00  0.00    +0.160 C 
ATOM      4  C   UNL     1      34.993 -17.605 -24.570  0.00  0.00    +0.152 C 
ATOM      5  C   UNL     1      34.726 -16.771 -23.510  0.00  0.00    +0.130 C 
ATOM      6  C   UNL     1      35.314 -20.078 -24.747  0.00  0.00    +0.115 C 
ENDROOT
BRANCH   3  12
ATOM      7  N   UNL     1      35.111 -21.271 -19.201  0.00  0.00    -0.296 N 
ATOM      8  N   UNL     1      34.258 -22.879 -17.658  0.00  0.00    -0.233 NA
ATOM      9  N   UNL     1      37.416 -22.112 -15.286  0.00  0.00    -0.223 N 
ATOM     10  N   UNL     1      35.387 -23.406 -15.561  0.00  0.00    -0.232 NA
ATOM     11  N   UNL     1      38.134 -21.176 -15.933  0.00  0.00    -0.183 NA
ATOM     12  C   UNL     1      34.821 -19.924 -21.746  0.00  0.00    +0.070 C 
ATOM     13  C   UNL     1      33.770 -19.782 -20.635  0.00  0.00    +0.030 C 
ATOM     14  C   UNL     1      36.200 -20.175 -21.119  0.00  0.00    +0.030 C 
ATOM     15  C   UNL     1      33.762 -21.007 -19.721  0.00  0.00    +0.092 C 
ATOM     16  C   UNL     1      36.180 -21.395 -20.197  0.00  0.00    +0.092 C 
ATOM     17  C   UNL     1      35.208 -21.974 -17.994  0.00  0.00    +0.118 C 
ATOM     18  C   UNL     1      36.275 -21.759 -17.127  0.00  0.00    +0.152 C 
ATOM     19  C   UNL     1      36.292 -22.497 -15.956  0.00  0.00    +0.133 C 
ATOM     20  C   UNL     1      37.434 -20.965 -17.053  0.00  0.00    +0.105 C 
ATOM     21  C   UNL     1      34.404 -23.530 -16.479  0.00  0.00    +0.252 C 
ATOM     22  H   UNL     1      37.676 -22.484 -14.413  0.00  0.00    +0.176 HD
ENDBRANCH   3  12
BRANCH   5  24
ATOM     23  F   UNL     1      34.125 -11.255 -23.864  0.00  0.00    -0.204 F 
ATOM     24  C   UNL     1      34.571 -15.353 -23.604  0.00  0.00    +0.027 C 
ATOM     25  C   UNL     1      34.170 -14.772 -24.807  0.00  0.00    +0.008 C 
ATOM     26  C   UNL     1      34.818 -14.549 -22.491  0.00  0.00    +0.005 C 
ATOM     27  C   UNL     1      34.019 -13.389 -24.899  0.00  0.00    +0.099 C 
ATOM     28  C   UNL     1      34.668 -13.166 -22.581  0.00  0.00    +0.030 C 
ATOM     29  C   UNL     1      34.267 -12.586 -23.786  0.00  0.00    +0.144 C 
BRANCH  27  33
ATOM     30  F   UNL     1      33.123 -11.494 -26.051  0.00  0.00    -0.166 F 
ATOM     31  F   UNL     1      34.594 -12.685 -27.111  0.00  0.00    -0.166 F 
ATOM     32  F   UNL     1      32.588 -13.466 -26.796  0.00  0.00    -0.166 F 
ATOM     33  C   UNL     1      33.592 -12.770 -26.186  0.00  0.00    +0.421 C 
ENDBRANCH  27  33
ENDBRANCH   5  24
TORSDOF 3
ENDMDL
MODEL 2
REMARK VINA RESULT:     -11.1      7.606     13.374
REMARK  Name = 25118925
REMARK  3 active torsions:
REMARK  status: ('A' for Active; 'I' for Inactive)
REMARK    1  A    between atoms: C_3  and  C_12
REMARK    2  A    between atoms: C_5  and  C_24
REMARK    3  A    between atoms: C_27  and  C_33
REMARK                            x       y       z     vdW  Elec       q    Type
REMARK                         _______ _______ _______ _____ _____    ______ ____
ROOT
ATOM      1  N   UNL     1      32.007 -10.895 -21.114  0.00  0.00    -0.279 N 
ATOM      2  N   UNL     1      33.199 -10.903 -22.988  0.00  0.00    -0.394 NA
ATOM      3  C   UNL     1      32.570 -10.150 -22.112  0.00  0.00    +0.160 C 
ATOM      4  C   UNL     1      32.296 -12.206 -21.368  0.00  0.00    +0.152 C 
ATOM      5  C   UNL     1      33.032 -12.186 -22.529  0.00  0.00    +0.130 C 
ATOM      6  C   UNL     1      31.244 -10.404 -19.991  0.00  0.00    +0.115 C 
ENDROOT
BRANCH   3  12
ATOM      7  N   UNL     1      32.443  -6.039 -23.433  0.00  0.00    -0.296 N 
ATOM      8  N   UNL     1      31.413  -3.897 -23.645  0.00  0.00    -0.233 NA
ATOM      9  N   UNL     1      34.278  -2.907 -26.291  0.00  0.00    -0.223 N 
ATOM     10  N   UNL     1      32.292  -2.165 -25.121  0.00  0.00    -0.232 NA
ATOM     11  N   UNL     1      35.069  -3.991 -26.390  0.00  0.00    -0.183 NA
ATOM     12  C   UNL     1      32.452  -8.638 -22.159  0.00  0.00    +0.070 C 
ATOM     13  C   UNL     1      31.280  -8.176 -23.038  0.00  0.00    +0.030 C 
ATOM     14  C   UNL     1      33.749  -7.972 -22.640  0.00  0.00    +0.030 C 
ATOM     15  C   UNL     1      31.163  -6.652 -23.048  0.00  0.00    +0.092 C 
ATOM     16  C   UNL     1      33.620  -6.448 -22.659  0.00  0.00    +0.092 C 
ATOM     17  C   UNL     1      32.399  -4.759 -23.996  0.00  0.00    +0.118 C 
ATOM     18  C   UNL     1      33.358  -4.349 -24.917  0.00  0.00    +0.152 C 
ATOM     19  C   UNL     1      33.238  -3.067 -25.423  0.00  0.00    +0.133 C 
ATOM     20  C   UNL     1      34.504  -4.866 -25.551  0.00  0.00    +0.105 C 
ATOM     21  C   UNL     1      31.421  -2.671 -24.221  0.00  0.00    +0.252 C 
ATOM     22  H   UNL     1      34.435  -2.077 -26.796  0.00  0.00    +0.176 HD
ENDBRANCH   3  12
BRANCH   5  24
ATOM     23  F   UNL     1      35.076 -16.681 -25.084  0.00  0.00    -0.204 F 
ATOM     24  C   UNL     1      33.560 -13.343 -23.183  0.00  0.00    +0.027 C 
ATOM     25  C   UNL     1      34.193 -14.338 -22.440  0.00  0.00    +0.008 C 
ATOM     26  C   UNL     1      33.437 -13.477 -24.566  0.00  0.00    +0.005 C 
ATOM     27  C   UNL     1      34.707 -15.466 -23.078  0.00  0.00    +0.099 C 
ATOM     28  C   UNL     1      33.951 -14.605 -25.206  0.00  0.00    +0.030 C 
ATOM     29  C   UNL     1      34.585 -15.600 -24.461  0.00  0.00    +0.144 C 
BRANCH  27  33
ATOM     30  F   UNL     1      34.800 -17.757 -22.398  0.00  0.00    -0.166 F 
ATOM     31  F   UNL     1      36.692 -16.722 -22.629  0.00  0.00    -0.166 F 
ATOM     32  F   UNL     1      35.397 -16.255 -20.944  0.00  0.00    -0.166 F 
ATOM     33  C   UNL     1      35.385 -16.528 -22.281  0.00  0.00    +0.421 C 
ENDBRANCH  27  33
ENDBRANCH   5  24
TORSDOF 3
ENDMDL
MODEL 3
REMARK VINA RESULT:     -10.6      6.508     11.821
REMARK  Name = 25118925
REMARK  3 active torsions:
REMARK  status: ('A' for Active; 'I' for Inactive)
REMARK    1  A    between atoms: C_3  and  C_12
REMARK    2  A    between atoms: C_5  and  C_24
REMARK    3  A    between atoms: C_27  and  C_33
REMARK                            x       y       z     vdW  Elec       q    Type
REMARK                         _______ _______ _______ _____ _____    ______ ____
ROOT
ATOM      1  N   UNL     1      33.757 -12.619 -25.090  0.00  0.00    -0.279 N 
ATOM      2  N   UNL     1      34.210 -13.669 -23.186  0.00  0.00    -0.394 NA
ATOM      3  C   UNL     1      33.932 -12.509 -23.739  0.00  0.00    +0.160 C 
ATOM      4  C   UNL     1      33.935 -13.933 -25.421  0.00  0.00    +0.152 C 
ATOM      5  C   UNL     1      34.214 -14.561 -24.230  0.00  0.00    +0.130 C 
ATOM      6  C   UNL     1      33.443 -11.555 -26.013  0.00  0.00    +0.115 C 
ENDROOT
BRANCH   3  12
ATOM      7  N   UNL     1      32.697  -8.560 -22.498  0.00  0.00    -0.296 N 
ATOM      8  N   UNL     1      31.932  -6.971 -20.891  0.00  0.00    -0.233 NA
ATOM      9  N   UNL     1      31.244  -4.411 -23.917  0.00  0.00    -0.223 N 
ATOM     10  N   UNL     1      31.143  -4.750 -21.522  0.00  0.00    -0.232 NA
ATOM     11  N   UNL     1      31.603  -5.068 -25.035  0.00  0.00    -0.183 NA
ATOM     12  C   UNL     1      33.809 -11.183 -23.013  0.00  0.00    +0.070 C 
ATOM     13  C   UNL     1      32.429 -11.006 -22.361  0.00  0.00    +0.030 C 
ATOM     14  C   UNL     1      34.096  -9.989 -23.936  0.00  0.00    +0.030 C 
ATOM     15  C   UNL     1      32.337  -9.677 -21.612  0.00  0.00    +0.092 C 
ATOM     16  C   UNL     1      33.990  -8.663 -23.182  0.00  0.00    +0.092 C 
ATOM     17  C   UNL     1      32.182  -7.298 -22.182  0.00  0.00    +0.118 C 
ATOM     18  C   UNL     1      31.921  -6.363 -23.179  0.00  0.00    +0.152 C 
ATOM     19  C   UNL     1      31.413  -5.140 -22.778  0.00  0.00    +0.133 C 
ATOM     20  C   UNL     1      32.015  -6.256 -24.579  0.00  0.00    +0.105 C 
ATOM     21  C   UNL     1      31.436  -5.735 -20.645  0.00  0.00    +0.252 C 
ATOM     22  H   UNL     1      30.893  -3.491 -23.921  0.00  0.00    +0.176 HD
ENDBRANCH   3  12
BRANCH   5  24
ATOM     23  F   UNL     1      35.223 -20.000 -23.671  0.00  0.00    -0.204 F 
ATOM     24  C   UNL     1      34.476 -15.959 -24.084  0.00  0.00    +0.027 C 
ATOM     25  C   UNL     1      35.343 -16.407 -23.087  0.00  0.00    +0.008 C 
ATOM     26  C   UNL     1      33.862 -16.876 -24.938  0.00  0.00    +0.005 C 
ATOM     27  C   UNL     1      35.598 -17.771 -22.945  0.00  0.00    +0.099 C 
ATOM     28  C   UNL     1      34.116 -18.240 -24.796  0.00  0.00    +0.030 C 
ATOM     29  C   UNL     1      34.984 -18.687 -23.800  0.00  0.00    +0.144 C 
BRANCH  27  33
ATOM     30  F   UNL     1      36.203 -19.479 -21.385  0.00  0.00    -0.166 F 
ATOM     31  F   UNL     1      37.822 -18.359 -22.294  0.00  0.00    -0.166 F 
ATOM     32  F   UNL     1      36.556 -17.416 -20.798  0.00  0.00    -0.166 F 
ATOM     33  C   UNL     1      36.526 -18.248 -21.880  0.00  0.00    +0.421 C 
ENDBRANCH  27  33
ENDBRANCH   5  24
TORSDOF 3
ENDMDL
MODEL 4
REMARK VINA RESULT:     -10.3      4.700      7.774
REMARK  Name = 25118925
REMARK  3 active torsions:
REMARK  status: ('A' for Active; 'I' for Inactive)
REMARK    1  A    between atoms: C_3  and  C_12
REMARK    2  A    between atoms: C_5  and  C_24
REMARK    3  A    between atoms: C_27  and  C_33
REMARK                            x       y       z     vdW  Elec       q    Type
REMARK                         _______ _______ _______ _____ _____    ______ ____
ROOT
ATOM      1  N   UNL     1      32.859 -11.464 -22.516  0.00  0.00    -0.279 N 
ATOM      2  N   UNL     1      34.166 -10.423 -23.980  0.00  0.00    -0.394 NA
ATOM      3  C   UNL     1      33.793 -11.592 -23.507  0.00  0.00    +0.160 C 
ATOM      4  C   UNL     1      32.623 -10.128 -22.347  0.00  0.00    +0.152 C 
ATOM      5  C   UNL     1      33.440  -9.507 -23.261  0.00  0.00    +0.130 C 
ATOM      6  C   UNL     1      32.230 -12.530 -21.774  0.00  0.00    +0.115 C 
ENDROOT
BRANCH   3  12
ATOM      7  N   UNL     1      34.567 -15.825 -23.876  0.00  0.00    -0.296 N 
ATOM      8  N   UNL     1      34.622 -17.888 -25.074  0.00  0.00    -0.233 NA
ATOM      9  N   UNL     1      35.298 -19.769 -21.583  0.00  0.00    -0.223 N 
ATOM     10  N   UNL     1      35.000 -20.031 -23.972  0.00  0.00    -0.232 NA
ATOM     11  N   UNL     1      35.322 -18.801 -20.649  0.00  0.00    -0.183 NA
ATOM     12  C   UNL     1      34.303 -12.944 -23.967  0.00  0.00    +0.070 C 
ATOM     13  C   UNL     1      33.162 -13.872 -24.411  0.00  0.00    +0.030 C 
ATOM     14  C   UNL     1      35.143 -13.643 -22.888  0.00  0.00    +0.030 C 
ATOM     15  C   UNL     1      33.700 -15.218 -24.896  0.00  0.00    +0.092 C 
ATOM     16  C   UNL     1      35.668 -14.994 -23.377  0.00  0.00    +0.092 C 
ATOM     17  C   UNL     1      34.711 -17.217 -23.900  0.00  0.00    +0.118 C 
ATOM     18  C   UNL     1      34.947 -17.932 -22.730  0.00  0.00    +0.152 C 
ATOM     19  C   UNL     1      35.076 -19.305 -22.846  0.00  0.00    +0.133 C 
ATOM     20  C   UNL     1      35.108 -17.684 -21.354  0.00  0.00    +0.105 C 
ATOM     21  C   UNL     1      34.770 -19.234 -25.038  0.00  0.00    +0.252 C 
ATOM     22  H   UNL     1      35.428 -20.723 -21.375  0.00  0.00    +0.176 HD
ENDBRANCH   3  12
BRANCH   5  24
ATOM     23  F   UNL     1      33.811  -4.007 -23.986  0.00  0.00    -0.204 F 
ATOM     24  C   UNL     1      33.533  -8.092 -23.447  0.00  0.00    +0.027 C 
ATOM     25  C   UNL     1      32.456  -7.272 -23.110  0.00  0.00    +0.008 C 
ATOM     26  C   UNL     1      34.701  -7.532 -23.963  0.00  0.00    +0.005 C 
ATOM     27  C   UNL     1      32.546  -5.892 -23.291  0.00  0.00    +0.099 C 
ATOM     28  C   UNL     1      34.793  -6.152 -24.145  0.00  0.00    +0.030 C 
ATOM     29  C   UNL     1      33.715  -5.332 -23.808  0.00  0.00    +0.144 C 
BRANCH  27  33
ATOM     30  F   UNL     1      30.388  -5.677 -22.284  0.00  0.00    -0.166 F 
ATOM     31  F   UNL     1      31.730  -3.982 -22.106  0.00  0.00    -0.166 F 
ATOM     32  F   UNL     1      30.811  -4.442 -24.023  0.00  0.00    -0.166 F 
ATOM     33  C   UNL     1      31.394  -5.017 -22.931  0.00  0.00    +0.421 C 
ENDBRANCH  27  33
ENDBRANCH   5  24
TORSDOF 3
ENDMDL
MODEL 5
REMARK VINA RESULT:     -10.3      2.248      3.967
REMARK  Name = 25118925
REMARK  3 active torsions:
REMARK  status: ('A' for Active; 'I' for Inactive)
REMARK    1  A    between atoms: C_3  and  C_12
REMARK    2  A    between atoms: C_5  and  C_24
REMARK    3  A    between atoms: C_27  and  C_33
REMARK                            x       y       z     vdW  Elec       q    Type
REMARK                         _______ _______ _______ _____ _____    ______ ____
ROOT
ATOM      1  N   UNL     1      36.121 -20.270 -20.171  0.00  0.00    -0.279 N 
ATOM      2  N   UNL     1      34.215 -19.566 -21.068  0.00  0.00    -0.394 NA
ATOM      3  C   UNL     1      34.766 -20.438 -20.253  0.00  0.00    +0.160 C 
ATOM      4  C   UNL     1      36.454 -19.225 -20.986  0.00  0.00    +0.152 C 
ATOM      5  C   UNL     1      35.262 -18.807 -21.529  0.00  0.00    +0.130 C 
ATOM      6  C   UNL     1      37.044 -21.045 -19.376  0.00  0.00    +0.115 C 
ENDROOT
BRANCH   3  12
ATOM      7  N   UNL     1      33.057 -22.831 -17.089  0.00  0.00    -0.296 N 
ATOM      8  N   UNL     1      31.253 -23.941 -15.991  0.00  0.00    -0.233 NA
ATOM      9  N   UNL     1      33.662 -24.467 -12.811  0.00  0.00    -0.223 N 
ATOM     10  N   UNL     1      31.455 -24.846 -13.734  0.00  0.00    -0.232 NA
ATOM     11  N   UNL     1      34.837 -23.906 -13.151  0.00  0.00    -0.183 NA
ATOM     12  C   UNL     1      34.036 -21.516 -19.475  0.00  0.00    +0.070 C 
ATOM     13  C   UNL     1      32.858 -20.950 -18.669  0.00  0.00    +0.030 C 
ATOM     14  C   UNL     1      34.975 -22.289 -18.537  0.00  0.00    +0.030 C 
ATOM     15  C   UNL     1      32.120 -22.056 -17.915  0.00  0.00    +0.092 C 
ATOM     16  C   UNL     1      34.228 -23.386 -17.778  0.00  0.00    +0.092 C 
ATOM     17  C   UNL     1      32.533 -23.497 -15.975  0.00  0.00    +0.118 C 
ATOM     18  C   UNL     1      33.311 -23.714 -14.842  0.00  0.00    +0.152 C 
ATOM     19  C   UNL     1      32.713 -24.380 -13.786  0.00  0.00    +0.133 C 
ATOM     20  C   UNL     1      34.617 -23.449 -14.389  0.00  0.00    +0.105 C 
ATOM     21  C   UNL     1      30.801 -24.579 -14.885  0.00  0.00    +0.252 C 
ATOM     22  H   UNL     1      33.502 -24.900 -11.942  0.00  0.00    +0.176 HD
ENDBRANCH   3  12
BRANCH   5  24
ATOM     23  F   UNL     1      34.710 -14.611 -25.134  0.00  0.00    -0.204 F 
ATOM     24  C   UNL     1      35.119 -17.726 -22.454  0.00  0.00    +0.027 C 
ATOM     25  C   UNL     1      34.887 -16.433 -21.986  0.00  0.00    +0.008 C 
ATOM     26  C   UNL     1      35.214 -17.964 -23.825  0.00  0.00    +0.005 C 
ATOM     27  C   UNL     1      34.748 -15.378 -22.888  0.00  0.00    +0.099 C 
ATOM     28  C   UNL     1      35.075 -16.911 -24.728  0.00  0.00    +0.030 C 
ATOM     29  C   UNL     1      34.842 -15.618 -24.259  0.00  0.00    +0.144 C 
BRANCH  27  33
ATOM     30  F   UNL     1      35.168 -13.032 -23.083  0.00  0.00    -0.166 F 
ATOM     31  F   UNL     1      33.185 -13.625 -22.436  0.00  0.00    -0.166 F 
ATOM     32  F   UNL     1      34.876 -13.835 -21.084  0.00  0.00    -0.166 F 
ATOM     33  C   UNL     1      34.499 -13.997 -22.385  0.00  0.00    +0.421 C 
ENDBRANCH  27  33
ENDBRANCH   5  24
TORSDOF 3
ENDMDL
MODEL 6
REMARK VINA RESULT:     -10.0      5.835     10.482
REMARK  Name = 25118925
REMARK  3 active torsions:
REMARK  status: ('A' for Active; 'I' for Inactive)
REMARK    1  A    between atoms: C_3  and  C_12
REMARK    2  A    between atoms: C_5  and  C_24
REMARK    3  A    between atoms: C_27  and  C_33
REMARK                            x       y       z     vdW  Elec       q    Type
REMARK                         _______ _______ _______ _____ _____    ______ ____
ROOT
ATOM      1  N   UNL     1      33.964 -15.518 -24.724  0.00  0.00    -0.279 N 
ATOM      2  N   UNL     1      34.516 -15.309 -22.583  0.00  0.00    -0.394 NA
ATOM      3  C   UNL     1      33.953 -14.719 -23.615  0.00  0.00    +0.160 C 
ATOM      4  C   UNL     1      34.572 -16.692 -24.378  0.00  0.00    +0.152 C 
ATOM      5  C   UNL     1      34.904 -16.539 -23.053  0.00  0.00    +0.130 C 
ATOM      6  C   UNL     1      33.437 -15.196 -26.029  0.00  0.00    +0.115 C 
ENDROOT
BRANCH   3  12
ATOM      7  N   UNL     1      32.950 -10.628 -22.660  0.00  0.00    -0.296 N 
ATOM      8  N   UNL     1      32.726  -8.309 -23.177  0.00  0.00    -0.233 NA
ATOM      9  N   UNL     1      32.149  -7.605 -19.258  0.00  0.00    -0.223 N 
ATOM     10  N   UNL     1      32.303  -6.623 -21.466  0.00  0.00    -0.232 NA
ATOM     11  N   UNL     1      32.225  -8.809 -18.660  0.00  0.00    -0.183 NA
ATOM     12  C   UNL     1      33.352 -13.327 -23.626  0.00  0.00    +0.070 C 
ATOM     13  C   UNL     1      34.418 -12.237 -23.811  0.00  0.00    +0.030 C 
ATOM     14  C   UNL     1      32.538 -13.038 -22.356  0.00  0.00    +0.030 C 
ATOM     15  C   UNL     1      33.788 -10.845 -23.847  0.00  0.00    +0.092 C 
ATOM     16  C   UNL     1      31.921 -11.639 -22.394  0.00  0.00    +0.092 C 
ATOM     17  C   UNL     1      32.735  -9.305 -22.258  0.00  0.00    +0.118 C 
ATOM     18  C   UNL     1      32.528  -8.989 -20.918  0.00  0.00    +0.152 C 
ATOM     19  C   UNL     1      32.324  -7.656 -20.609  0.00  0.00    +0.133 C 
ATOM     20  C   UNL     1      32.455  -9.647 -19.676  0.00  0.00    +0.105 C 
ATOM     21  C   UNL     1      32.513  -7.049 -22.731  0.00  0.00    +0.252 C 
ATOM     22  H   UNL     1      31.984  -6.768 -18.768  0.00  0.00    +0.176 HD
ENDBRANCH   3  12
BRANCH   5  24
ATOM     23  F   UNL     1      37.493 -20.368 -19.963  0.00  0.00    -0.204 F 
ATOM     24  C   UNL     1      35.567 -17.525 -22.257  0.00  0.00    +0.027 C 
ATOM     25  C   UNL     1      34.832 -18.543 -21.650  0.00  0.00    +0.008 C 
ATOM     26  C   UNL     1      36.951 -17.469 -22.089  0.00  0.00    +0.005 C 
ATOM     27  C   UNL     1      35.479 -19.505 -20.875  0.00  0.00    +0.099 C 
ATOM     28  C   UNL     1      37.599 -18.430 -21.313  0.00  0.00    +0.030 C 
ATOM     29  C   UNL     1      36.862 -19.448 -20.707  0.00  0.00    +0.144 C 
BRANCH  27  33
ATOM     30  F   UNL     1      35.103 -21.847 -20.574  0.00  0.00    -0.166 F 
ATOM     31  F   UNL     1      34.742 -20.565 -18.862  0.00  0.00    -0.166 F 
ATOM     32  F   UNL     1      33.364 -20.542 -20.546  0.00  0.00    -0.166 F 
ATOM     33  C   UNL     1      34.691 -20.592 -20.227  0.00  0.00    +0.421 C 
ENDBRANCH  27  33
ENDBRANCH   5  24
TORSDOF 3
ENDMDL
MODEL 7
REMARK VINA RESULT:      -9.9      7.460     13.231
REMARK  Name = 25118925
REMARK  3 active torsions:
REMARK  status: ('A' for Active; 'I' for Inactive)
REMARK    1  A    between atoms: C_3  and  C_12
REMARK    2  A    between atoms: C_5  and  C_24
REMARK    3  A    between atoms: C_27  and  C_33
REMARK                            x       y       z     vdW  Elec       q    Type
REMARK                         _______ _______ _______ _____ _____    ______ ____
ROOT
ATOM      1  N   UNL     1      31.720 -10.508 -20.354  0.00  0.00    -0.279 N 
ATOM      2  N   UNL     1      33.088 -10.749 -22.087  0.00  0.00    -0.394 NA
ATOM      3  C   UNL     1      32.345  -9.903 -21.408  0.00  0.00    +0.160 C 
ATOM      4  C   UNL     1      32.088 -11.825 -20.361  0.00  0.00    +0.152 C 
ATOM      5  C   UNL     1      32.931 -11.949 -21.439  0.00  0.00    +0.130 C 
ATOM      6  C   UNL     1      30.832  -9.888 -19.400  0.00  0.00    +0.115 C 
ENDROOT
BRANCH   3  12
ATOM      7  N   UNL     1      32.268  -6.056 -23.371  0.00  0.00    -0.296 N 
ATOM      8  N   UNL     1      31.196  -4.050 -24.092  0.00  0.00    -0.233 NA
ATOM      9  N   UNL     1      34.437  -3.260 -26.341  0.00  0.00    -0.223 N 
ATOM     10  N   UNL     1      32.242  -2.498 -25.657  0.00  0.00    -0.232 NA
ATOM     11  N   UNL     1      35.281  -4.286 -26.131  0.00  0.00    -0.183 NA
ATOM     12  C   UNL     1      32.169  -8.428 -21.714  0.00  0.00    +0.070 C 
ATOM     13  C   UNL     1      31.152  -8.188 -22.841  0.00  0.00    +0.030 C 
ATOM     14  C   UNL     1      33.499  -7.748 -22.071  0.00  0.00    +0.030 C 
ATOM     15  C   UNL     1      30.969  -6.696 -23.114  0.00  0.00    +0.092 C 
ATOM     16  C   UNL     1      33.306  -6.258 -22.354  0.00  0.00    +0.092 C 
ATOM     17  C   UNL     1      32.266  -4.880 -24.130  0.00  0.00    +0.118 C 
ATOM     18  C   UNL     1      33.354  -4.544 -24.929  0.00  0.00    +0.152 C 
ATOM     19  C   UNL     1      33.268  -3.364 -25.647  0.00  0.00    +0.133 C 
ATOM     20  C   UNL     1      34.616  -5.065 -25.270  0.00  0.00    +0.105 C 
ATOM     21  C   UNL     1      31.250  -2.927 -24.847  0.00  0.00    +0.252 C 
ATOM     22  H   UNL     1      34.643  -2.505 -26.938  0.00  0.00    +0.176 HD
ENDBRANCH   3  12
BRANCH   5  24
ATOM     23  F   UNL     1      35.413 -16.673 -23.001  0.00  0.00    -0.204 F 
ATOM     24  C   UNL     1      33.568 -13.164 -21.844  0.00  0.00    +0.027 C 
ATOM     25  C   UNL     1      33.519 -13.568 -23.178  0.00  0.00    +0.008 C 
ATOM     26  C   UNL     1      34.241 -13.945 -20.903  0.00  0.00    +0.005 C 
ATOM     27  C   UNL     1      34.141 -14.752 -23.572  0.00  0.00    +0.099 C 
ATOM     28  C   UNL     1      34.862 -15.129 -21.296  0.00  0.00    +0.030 C 
ATOM     29  C   UNL     1      34.812 -15.533 -22.631  0.00  0.00    +0.144 C 
BRANCH  27  33
ATOM     30  F   UNL     1      33.160 -16.157 -25.241  0.00  0.00    -0.166 F 
ATOM     31  F   UNL     1      33.773 -14.172 -25.863  0.00  0.00    -0.166 F 
ATOM     32  F   UNL     1      35.274 -15.689 -25.440  0.00  0.00    -0.166 F 
ATOM     33  C   UNL     1      34.086 -15.182 -24.999  0.00  0.00    +0.421 C 
ENDBRANCH  27  33
ENDBRANCH   5  24
TORSDOF 3
ENDMDL
MODEL 8
REMARK VINA RESULT:      -9.6      1.658      2.540
REMARK  Name = 25118925
REMARK  3 active torsions:
REMARK  status: ('A' for Active; 'I' for Inactive)
REMARK    1  A    between atoms: C_3  and  C_12
REMARK    2  A    between atoms: C_5  and  C_24
REMARK    3  A    between atoms: C_27  and  C_33
REMARK                            x       y       z     vdW  Elec       q    Type
REMARK                         _______ _______ _______ _____ _____    ______ ____
ROOT
ATOM      1  N   UNL     1      35.744 -18.339 -23.304  0.00  0.00    -0.279 N 
ATOM      2  N   UNL     1      34.614 -17.289 -21.705  0.00  0.00    -0.394 NA
ATOM      3  C   UNL     1      35.138 -18.435 -22.082  0.00  0.00    +0.160 C 
ATOM      4  C   UNL     1      35.598 -17.049 -23.734  0.00  0.00    +0.152 C 
ATOM      5  C   UNL     1      34.898 -16.421 -22.731  0.00  0.00    +0.130 C 
ATOM      6  C   UNL     1      36.418 -19.394 -24.023  0.00  0.00    +0.115 C 
ENDROOT
BRANCH   3  12
ATOM      7  N   UNL     1      35.207 -21.363 -18.908  0.00  0.00    -0.296 N 
ATOM      8  N   UNL     1      34.292 -23.180 -17.661  0.00  0.00    -0.233 NA
ATOM      9  N   UNL     1      37.147 -22.572 -14.893  0.00  0.00    -0.223 N 
ATOM     10  N   UNL     1      35.230 -23.908 -15.530  0.00  0.00    -0.232 NA
ATOM     11  N   UNL     1      37.875 -21.535 -15.347  0.00  0.00    -0.183 NA
ATOM     12  C   UNL     1      35.102 -19.732 -21.297  0.00  0.00    +0.070 C 
ATOM     13  C   UNL     1      33.938 -19.770 -20.295  0.00  0.00    +0.030 C 
ATOM     14  C   UNL     1      36.423 -19.998 -20.560  0.00  0.00    +0.030 C 
ATOM     15  C   UNL     1      33.905 -21.095 -19.535  0.00  0.00    +0.092 C 
ATOM     16  C   UNL     1      36.377 -21.320 -19.792  0.00  0.00    +0.092 C 
ATOM     17  C   UNL     1      35.220 -22.201 -17.788  0.00  0.00    +0.118 C 
ATOM     18  C   UNL     1      36.180 -22.048 -16.792  0.00  0.00    +0.152 C 
ATOM     19  C   UNL     1      36.119 -22.920 -15.719  0.00  0.00    +0.133 C 
ATOM     20  C   UNL     1      37.281 -21.220 -16.504  0.00  0.00    +0.105 C 
ATOM     21  C   UNL     1      34.354 -23.961 -16.557  0.00  0.00    +0.252 C 
ATOM     22  H   UNL     1      37.337 -23.035 -14.046  0.00  0.00    +0.176 HD
ENDBRANCH   3  12
BRANCH   5  24
ATOM     23  F   UNL     1      33.394 -11.069 -22.788  0.00  0.00    -0.204 F 
ATOM     24  C   UNL     1      34.509 -15.045 -22.743  0.00  0.00    +0.027 C 
ATOM     25  C   UNL     1      33.727 -14.531 -21.709  0.00  0.00    +0.008 C 
ATOM     26  C   UNL     1      34.914 -14.216 -23.789  0.00  0.00    +0.005 C 
ATOM     27  C   UNL     1      33.348 -13.189 -21.721  0.00  0.00    +0.099 C 
ATOM     28  C   UNL     1      34.535 -12.874 -23.802  0.00  0.00    +0.030 C 
ATOM     29  C   UNL     1      33.752 -12.361 -22.767  0.00  0.00    +0.144 C 
BRANCH  27  33
ATOM     30  F   UNL     1      33.158 -11.716 -19.846  0.00  0.00    -0.166 F 
ATOM     31  F   UNL     1      31.377 -12.015 -21.046  0.00  0.00    -0.166 F 
ATOM     32  F   UNL     1      32.090 -13.608 -19.747  0.00  0.00    -0.166 F 
ATOM     33  C   UNL     1      32.511 -12.642 -20.614  0.00  0.00    +0.421 C 
ENDBRANCH  27  33
ENDBRANCH   5  24
TORSDOF 3
ENDMDL
MODEL 9
REMARK VINA RESULT:      -9.5      1.227      2.148
REMARK  Name = 25118925
REMARK  3 active torsions:
REMARK  status: ('A' for Active; 'I' for Inactive)
REMARK    1  A    between atoms: C_3  and  C_12
REMARK    2  A    between atoms: C_5  and  C_24
REMARK    3  A    between atoms: C_27  and  C_33
REMARK                            x       y       z     vdW  Elec       q    Type
REMARK                         _______ _______ _______ _____ _____    ______ ____
ROOT
ATOM      1  N   UNL     1      36.649 -18.221 -21.945  0.00  0.00    -0.279 N 
ATOM      2  N   UNL     1      34.495 -18.090 -22.473  0.00  0.00    -0.394 NA
ATOM      3  C   UNL     1      35.408 -18.782 -21.826  0.00  0.00    +0.160 C 
ATOM      4  C   UNL     1      36.520 -17.101 -22.717  0.00  0.00    +0.152 C 
ATOM      5  C   UNL     1      35.183 -17.041 -23.030  0.00  0.00    +0.130 C 
ATOM      6  C   UNL     1      37.880 -18.709 -21.370  0.00  0.00    +0.115 C 
ENDROOT
BRANCH   3  12
ATOM      7  N   UNL     1      34.961 -21.647 -18.625  0.00  0.00    -0.296 N 
ATOM      8  N   UNL     1      33.762 -23.305 -17.397  0.00  0.00    -0.233 NA
ATOM      9  N   UNL     1      36.571 -23.052 -14.529  0.00  0.00    -0.223 N 
ATOM     10  N   UNL     1      34.514 -24.123 -15.226  0.00  0.00    -0.232 NA
ATOM     11  N   UNL     1      37.450 -22.130 -14.964  0.00  0.00    -0.183 NA
ATOM     12  C   UNL     1      35.167 -20.051 -21.031  0.00  0.00    +0.070 C 
ATOM     13  C   UNL     1      33.973 -19.916 -20.074  0.00  0.00    +0.030 C 
ATOM     14  C   UNL     1      36.411 -20.484 -20.242  0.00  0.00    +0.030 C 
ATOM     15  C   UNL     1      33.731 -21.213 -19.303  0.00  0.00    +0.092 C 
ATOM     16  C   UNL     1      36.157 -21.776 -19.464  0.00  0.00    +0.092 C 
ATOM     17  C   UNL     1      34.819 -22.464 -17.497  0.00  0.00    +0.118 C 
ATOM     18  C   UNL     1      35.754 -22.428 -16.467  0.00  0.00    +0.152 C 
ATOM     19  C   UNL     1      35.536 -23.269 -15.390  0.00  0.00    +0.133 C 
ATOM     20  C   UNL     1      36.947 -21.754 -16.145  0.00  0.00    +0.105 C 
ATOM     21  C   UNL     1      33.677 -24.071 -16.284  0.00  0.00    +0.252 C 
ATOM     22  H   UNL     1      36.666 -23.525 -13.671  0.00  0.00    +0.176 HD
ENDBRANCH   3  12
BRANCH   5  24
ATOM     23  F   UNL     1      32.819 -13.099 -26.158  0.00  0.00    -0.204 F 
ATOM     24  C   UNL     1      34.575 -16.025 -23.833  0.00  0.00    +0.027 C 
ATOM     25  C   UNL     1      34.688 -14.684 -23.465  0.00  0.00    +0.008 C 
ATOM     26  C   UNL     1      33.871 -16.375 -24.985  0.00  0.00    +0.005 C 
ATOM     27  C   UNL     1      34.096 -13.694 -24.248  0.00  0.00    +0.099 C 
ATOM     28  C   UNL     1      33.278 -15.385 -25.768  0.00  0.00    +0.030 C 
ATOM     29  C   UNL     1      33.391 -14.044 -25.399  0.00  0.00    +0.144 C 
BRANCH  27  33
ATOM     30  F   UNL     1      34.798 -11.477 -24.809  0.00  0.00    -0.166 F 
ATOM     31  F   UNL     1      33.018 -11.665 -23.585  0.00  0.00    -0.166 F 
ATOM     32  F   UNL     1      34.973 -12.088 -22.729  0.00  0.00    -0.166 F 
ATOM     33  C   UNL     1      34.217 -12.261 -23.853  0.00  0.00    +0.421 C 
ENDBRANCH  27  33
ENDBRANCH   5  24
TORSDOF 3
ENDMDL
