MODEL 1
REMARK VINA RESULT:     -11.6      0.000      0.000
REMARK  Name = 44129624
REMARK  6 active torsions:
REMARK  status: ('A' for Active; 'I' for Inactive)
REMARK    1  A    between atoms: C_1  and  O_20
REMARK    2  A    between atoms: C_4  and  C_8
REMARK    3  A    between atoms: C_8  and  C_9
REMARK    4  A    between atoms: C_10  and  C_16
REMARK    5  A    between atoms: O_20  and  C_21
REMARK    6  A    between atoms: C_21  and  C_23
REMARK                            x       y       z     vdW  Elec       q    Type
REMARK                         _______ _______ _______ _____ _____    ______ ____
ROOT
ATOM      1  C   UNL     1      33.701 -21.666 -19.124  0.00  0.00    +0.138 C 
ATOM      2  C   UNL     1      33.182 -20.697 -19.982  0.00  0.00    +0.037 C 
ATOM      3  C   UNL     1      35.081 -21.779 -18.952  0.00  0.00    +0.037 C 
ATOM      4  C   UNL     1      35.422 -19.952 -20.495  0.00  0.00    +0.039 C 
ATOM      5  C   UNL     1      34.042 -19.840 -20.667  0.00  0.00    +0.006 C 
ATOM      6  C   UNL     1      35.941 -20.921 -19.637  0.00  0.00    +0.006 C 
ENDROOT
BRANCH   4   8
ATOM      7  O   UNL     1      37.539 -19.272 -21.218  0.00  0.00    -0.287 OA
ATOM      8  C   UNL     1      36.318 -19.056 -21.208  0.00  0.00    +0.196 C 
BRANCH   8   9
ATOM      9  C   UNL     1      35.828 -17.856 -21.951  0.00  0.00    +0.039 C 
ATOM     10  C   UNL     1      34.912 -15.615 -23.337  0.00  0.00    +0.001 C 
ATOM     11  C   UNL     1      35.707 -17.897 -23.340  0.00  0.00    +0.003 C 
ATOM     12  C   UNL     1      35.492 -16.694 -21.255  0.00  0.00    +0.003 C 
ATOM     13  C   UNL     1      35.249 -16.776 -24.033  0.00  0.00    +0.000 C 
ATOM     14  C   UNL     1      35.034 -15.574 -21.948  0.00  0.00    +0.000 C 
BRANCH  10  16
ATOM     15  S   UNL     1      33.940 -11.994 -24.560  0.00  0.00    -0.086 S 
ATOM     16  C   UNL     1      34.440 -14.463 -24.052  0.00  0.00    +0.007 C 
ATOM     17  C   UNL     1      33.801 -14.443 -25.325  0.00  0.00    +0.007 C 
ATOM     18  C   UNL     1      34.578 -13.198 -23.523  0.00  0.00    +0.035 C 
ATOM     19  C   UNL     1      33.476 -13.164 -25.721  0.00  0.00    +0.035 C 
ENDBRANCH  10  16
ENDBRANCH   8   9
ENDBRANCH   4   8
BRANCH   1  20
ATOM     20  O   UNL     1      32.855 -22.511 -18.449  0.00  0.00    -0.478 OA
BRANCH  20  21
ATOM     21  C   UNL     1      33.180 -22.800 -17.099  0.00  0.00    +0.184 C 
BRANCH  21  23
ATOM     22  N   UNL     1      30.724 -22.514 -16.901  0.00  0.00    +0.388 N 
ATOM     23  C   UNL     1      31.910 -23.198 -16.364  0.00  0.00    -0.017 C 
ATOM     24  C   UNL     1      31.915 -22.783 -14.901  0.00  0.00    -0.020 C 
ATOM     25  C   UNL     1      30.441 -22.701 -14.535  0.00  0.00    -0.025 C 
ATOM     26  C   UNL     1      29.699 -22.680 -15.865  0.00  0.00    -0.082 C 
ATOM     27  H   UNL     1      30.425 -22.946 -17.775  0.00  0.00    -0.084 HD
ATOM     28  H   UNL     1      30.906 -21.532 -17.111  0.00  0.00    -0.084 HD
ENDBRANCH  21  23
ENDBRANCH  20  21
ENDBRANCH   1  20
TORSDOF 6
ENDMDL
MODEL 2
REMARK VINA RESULT:     -11.5      0.486      1.563
REMARK  Name = 44129624
REMARK  6 active torsions:
REMARK  status: ('A' for Active; 'I' for Inactive)
REMARK    1  A    between atoms: C_1  and  O_20
REMARK    2  A    between atoms: C_4  and  C_8
REMARK    3  A    between atoms: C_8  and  C_9
REMARK    4  A    between atoms: C_10  and  C_16
REMARK    5  A    between atoms: O_20  and  C_21
REMARK    6  A    between atoms: C_21  and  C_23
REMARK                            x       y       z     vdW  Elec       q    Type
REMARK                         _______ _______ _______ _____ _____    ______ ____
ROOT
ATOM      1  C   UNL     1      33.688 -21.582 -19.173  0.00  0.00    +0.138 C 
ATOM      2  C   UNL     1      35.067 -21.695 -19.000  0.00  0.00    +0.037 C 
ATOM      3  C   UNL     1      33.170 -20.613 -20.033  0.00  0.00    +0.037 C 
ATOM      4  C   UNL     1      35.411 -19.871 -20.545  0.00  0.00    +0.039 C 
ATOM      5  C   UNL     1      35.928 -20.840 -19.685  0.00  0.00    +0.006 C 
ATOM      6  C   UNL     1      34.032 -19.758 -20.719  0.00  0.00    +0.006 C 
ENDROOT
BRANCH   4   8
ATOM      7  O   UNL     1      37.530 -19.201 -21.272  0.00  0.00    -0.287 OA
ATOM      8  C   UNL     1      36.310 -18.981 -21.262  0.00  0.00    +0.196 C 
BRANCH   8   9
ATOM      9  C   UNL     1      35.824 -17.781 -22.008  0.00  0.00    +0.039 C 
ATOM     10  C   UNL     1      34.917 -15.541 -23.402  0.00  0.00    +0.001 C 
ATOM     11  C   UNL     1      35.532 -16.603 -21.320  0.00  0.00    +0.003 C 
ATOM     12  C   UNL     1      35.661 -17.839 -23.393  0.00  0.00    +0.003 C 
ATOM     13  C   UNL     1      35.079 -15.483 -22.018  0.00  0.00    +0.000 C 
ATOM     14  C   UNL     1      35.208 -16.719 -24.089  0.00  0.00    +0.000 C 
BRANCH  10  16
ATOM     15  S   UNL     1      33.395 -13.001 -26.006  0.00  0.00    -0.086 S 
ATOM     16  C   UNL     1      34.451 -14.387 -24.118  0.00  0.00    +0.007 C 
ATOM     17  C   UNL     1      34.514 -13.028 -23.694  0.00  0.00    +0.007 C 
ATOM     18  C   UNL     1      33.866 -14.515 -25.358  0.00  0.00    +0.035 C 
ATOM     19  C   UNL     1      33.975 -12.169 -24.626  0.00  0.00    +0.035 C 
ENDBRANCH  10  16
ENDBRANCH   8   9
ENDBRANCH   4   8
BRANCH   1  20
ATOM     20  O   UNL     1      32.838 -22.423 -18.498  0.00  0.00    -0.478 OA
BRANCH  20  21
ATOM     21  C   UNL     1      33.220 -22.801 -17.186  0.00  0.00    +0.184 C 
BRANCH  21  23
ATOM     22  N   UNL     1      30.781 -22.463 -16.883  0.00  0.00    +0.388 N 
ATOM     23  C   UNL     1      31.972 -23.179 -16.402  0.00  0.00    -0.017 C 
ATOM     24  C   UNL     1      32.047 -22.780 -14.937  0.00  0.00    -0.020 C 
ATOM     25  C   UNL     1      30.591 -22.669 -14.510  0.00  0.00    -0.025 C 
ATOM     26  C   UNL     1      29.796 -22.618 -15.807  0.00  0.00    -0.082 C 
ATOM     27  H   UNL     1      30.437 -22.879 -17.748  0.00  0.00    -0.084 HD
ATOM     28  H   UNL     1      30.977 -21.484 -17.090  0.00  0.00    -0.084 HD
ENDBRANCH  21  23
ENDBRANCH  20  21
ENDBRANCH   1  20
TORSDOF 6
ENDMDL
MODEL 3
REMARK VINA RESULT:     -10.6      5.030     10.427
REMARK  Name = 44129624
REMARK  6 active torsions:
REMARK  status: ('A' for Active; 'I' for Inactive)
REMARK    1  A    between atoms: C_1  and  O_20
REMARK    2  A    between atoms: C_4  and  C_8
REMARK    3  A    between atoms: C_8  and  C_9
REMARK    4  A    between atoms: C_10  and  C_16
REMARK    5  A    between atoms: O_20  and  C_21
REMARK    6  A    between atoms: C_21  and  C_23
REMARK                            x       y       z     vdW  Elec       q    Type
REMARK                         _______ _______ _______ _____ _____    ______ ____
ROOT
ATOM      1  C   UNL     1      33.905 -12.877 -23.700  0.00  0.00    +0.138 C 
ATOM      2  C   UNL     1      34.589 -13.543 -22.684  0.00  0.00    +0.037 C 
ATOM      3  C   UNL     1      33.604 -13.540 -24.890  0.00  0.00    +0.037 C 
ATOM      4  C   UNL     1      34.671 -15.536 -24.046  0.00  0.00    +0.039 C 
ATOM      5  C   UNL     1      34.972 -14.872 -22.856  0.00  0.00    +0.006 C 
ATOM      6  C   UNL     1      33.987 -14.870 -25.062  0.00  0.00    +0.006 C 
ENDROOT
BRANCH   4   8
ATOM      7  O   UNL     1      35.307 -17.364 -25.359  0.00  0.00    -0.287 OA
ATOM      8  C   UNL     1      35.069 -16.924 -24.225  0.00  0.00    +0.196 C 
BRANCH   8   9
ATOM      9  C   UNL     1      35.209 -17.872 -23.078  0.00  0.00    +0.039 C 
ATOM     10  C   UNL     1      35.471 -19.641 -20.938  0.00  0.00    +0.001 C 
ATOM     11  C   UNL     1      34.170 -18.748 -22.768  0.00  0.00    +0.003 C 
ATOM     12  C   UNL     1      36.379 -17.879 -22.318  0.00  0.00    +0.003 C 
ATOM     13  C   UNL     1      34.301 -19.633 -21.697  0.00  0.00    +0.000 C 
ATOM     14  C   UNL     1      36.510 -18.763 -21.248  0.00  0.00    +0.000 C 
BRANCH  10  16
ATOM     15  S   UNL     1      34.938 -22.307 -18.081  0.00  0.00    -0.086 S 
ATOM     16  C   UNL     1      35.605 -20.553 -19.837  0.00  0.00    +0.007 C 
ATOM     17  C   UNL     1      36.780 -20.817 -19.076  0.00  0.00    +0.007 C 
ATOM     18  C   UNL     1      34.529 -21.297 -19.402  0.00  0.00    +0.035 C 
ATOM     19  C   UNL     1      36.558 -21.751 -18.088  0.00  0.00    +0.035 C 
ENDBRANCH  10  16
ENDBRANCH   8   9
ENDBRANCH   4   8
BRANCH   1  20
ATOM     20  O   UNL     1      33.528 -11.568 -23.531  0.00  0.00    -0.478 OA
BRANCH  20  21
ATOM     21  C   UNL     1      34.100 -10.617 -24.413  0.00  0.00    +0.184 C 
BRANCH  21  23
ATOM     22  N   UNL     1      33.387  -8.427 -23.492  0.00  0.00    +0.388 N 
ATOM     23  C   UNL     1      34.496  -9.384 -23.615  0.00  0.00    -0.017 C 
ATOM     24  C   UNL     1      35.586  -8.565 -24.289  0.00  0.00    -0.020 C 
ATOM     25  C   UNL     1      35.406  -7.168 -23.714  0.00  0.00    -0.025 C 
ATOM     26  C   UNL     1      34.024  -7.173 -23.076  0.00  0.00    -0.082 C 
ATOM     27  H   UNL     1      32.718  -8.741 -22.789  0.00  0.00    -0.084 HD
ATOM     28  H   UNL     1      32.866  -8.326 -24.362  0.00  0.00    -0.084 HD
ENDBRANCH  21  23
ENDBRANCH  20  21
ENDBRANCH   1  20
TORSDOF 6
ENDMDL
MODEL 4
REMARK VINA RESULT:     -10.5      2.167      3.648
REMARK  Name = 44129624
REMARK  6 active torsions:
REMARK  status: ('A' for Active; 'I' for Inactive)
REMARK    1  A    between atoms: C_1  and  O_20
REMARK    2  A    between atoms: C_4  and  C_8
REMARK    3  A    between atoms: C_8  and  C_9
REMARK    4  A    between atoms: C_10  and  C_16
REMARK    5  A    between atoms: O_20  and  C_21
REMARK    6  A    between atoms: C_21  and  C_23
REMARK                            x       y       z     vdW  Elec       q    Type
REMARK                         _______ _______ _______ _____ _____    ______ ____
ROOT
ATOM      1  C   UNL     1      36.166 -19.597 -20.642  0.00  0.00    +0.138 C 
ATOM      2  C   UNL     1      34.874 -19.719 -21.152  0.00  0.00    +0.037 C 
ATOM      3  C   UNL     1      37.065 -18.702 -21.223  0.00  0.00    +0.037 C 
ATOM      4  C   UNL     1      35.378 -18.051 -22.826  0.00  0.00    +0.039 C 
ATOM      5  C   UNL     1      34.480 -18.947 -22.244  0.00  0.00    +0.006 C 
ATOM      6  C   UNL     1      36.670 -17.929 -22.315  0.00  0.00    +0.006 C 
ENDROOT
BRANCH   4   8
ATOM      7  O   UNL     1      34.879 -17.752 -25.091  0.00  0.00    -0.287 OA
ATOM      8  C   UNL     1      34.965 -17.244 -23.963  0.00  0.00    +0.196 C 
BRANCH   8   9
ATOM      9  C   UNL     1      34.630 -15.793 -23.836  0.00  0.00    +0.039 C 
ATOM     10  C   UNL     1      34.003 -13.085 -23.600  0.00  0.00    +0.001 C 
ATOM     11  C   UNL     1      33.966 -15.139 -24.874  0.00  0.00    +0.003 C 
ATOM     12  C   UNL     1      34.981 -15.094 -22.681  0.00  0.00    +0.003 C 
ATOM     13  C   UNL     1      33.652 -13.784 -24.755  0.00  0.00    +0.000 C 
ATOM     14  C   UNL     1      34.668 -13.740 -22.563  0.00  0.00    +0.000 C 
BRANCH  10  16
ATOM     15  S   UNL     1      32.556  -9.559 -22.588  0.00  0.00    -0.086 S 
ATOM     16  C   UNL     1      33.679 -11.692 -23.479  0.00  0.00    +0.007 C 
ATOM     17  C   UNL     1      34.199 -10.618 -24.257  0.00  0.00    +0.007 C 
ATOM     18  C   UNL     1      32.775 -11.257 -22.535  0.00  0.00    +0.035 C 
ATOM     19  C   UNL     1      33.673  -9.402 -23.877  0.00  0.00    +0.035 C 
ENDBRANCH  10  16
ENDBRANCH   8   9
ENDBRANCH   4   8
BRANCH   1  20
ATOM     20  O   UNL     1      36.556 -20.357 -19.567  0.00  0.00    -0.478 OA
BRANCH  20  21
ATOM     21  C   UNL     1      36.037 -21.675 -19.493  0.00  0.00    +0.184 C 
BRANCH  21  23
ATOM     22  N   UNL     1      35.615 -22.421 -17.165  0.00  0.00    +0.388 N 
ATOM     23  C   UNL     1      35.046 -21.747 -18.342  0.00  0.00    -0.017 C 
ATOM     24  C   UNL     1      33.822 -22.590 -18.665  0.00  0.00    -0.020 C 
ATOM     25  C   UNL     1      33.308 -23.030 -17.303  0.00  0.00    -0.025 C 
ATOM     26  C   UNL     1      34.453 -22.762 -16.337  0.00  0.00    -0.082 C 
ATOM     27  H   UNL     1      36.244 -21.796 -16.663  0.00  0.00    -0.084 HD
ATOM     28  H   UNL     1      36.164 -23.242 -17.419  0.00  0.00    -0.084 HD
ENDBRANCH  21  23
ENDBRANCH  20  21
ENDBRANCH   1  20
TORSDOF 6
ENDMDL
MODEL 5
REMARK VINA RESULT:     -10.5      4.460      6.427
REMARK  Name = 44129624
REMARK  6 active torsions:
REMARK  status: ('A' for Active; 'I' for Inactive)
REMARK    1  A    between atoms: C_1  and  O_20
REMARK    2  A    between atoms: C_4  and  C_8
REMARK    3  A    between atoms: C_8  and  C_9
REMARK    4  A    between atoms: C_10  and  C_16
REMARK    5  A    between atoms: O_20  and  C_21
REMARK    6  A    between atoms: C_21  and  C_23
REMARK                            x       y       z     vdW  Elec       q    Type
REMARK                         _______ _______ _______ _____ _____    ______ ____
ROOT
ATOM      1  C   UNL     1      36.860 -22.951 -14.419  0.00  0.00    +0.138 C 
ATOM      2  C   UNL     1      35.601 -23.549 -14.368  0.00  0.00    +0.037 C 
ATOM      3  C   UNL     1      37.253 -22.251 -15.560  0.00  0.00    +0.037 C 
ATOM      4  C   UNL     1      35.128 -22.748 -16.597  0.00  0.00    +0.039 C 
ATOM      5  C   UNL     1      34.736 -23.448 -15.456  0.00  0.00    +0.006 C 
ATOM      6  C   UNL     1      36.387 -22.149 -16.649  0.00  0.00    +0.006 C 
ENDROOT
BRANCH   4   8
ATOM      7  O   UNL     1      33.244 -23.395 -17.822  0.00  0.00    -0.287 OA
ATOM      8  C   UNL     1      34.224 -22.640 -17.731  0.00  0.00    +0.196 C 
BRANCH   8   9
ATOM      9  C   UNL     1      34.422 -21.638 -18.821  0.00  0.00    +0.039 C 
ATOM     10  C   UNL     1      34.790 -19.768 -20.858  0.00  0.00    +0.001 C 
ATOM     11  C   UNL     1      35.710 -21.323 -19.254  0.00  0.00    +0.003 C 
ATOM     12  C   UNL     1      33.318 -21.017 -19.406  0.00  0.00    +0.003 C 
ATOM     13  C   UNL     1      35.894 -20.388 -20.272  0.00  0.00    +0.000 C 
ATOM     14  C   UNL     1      33.502 -20.082 -20.424  0.00  0.00    +0.000 C 
BRANCH  10  16
ATOM     15  S   UNL     1      34.834 -17.742 -24.241  0.00  0.00    -0.086 S 
ATOM     16  C   UNL     1      34.981 -18.806 -21.907  0.00  0.00    +0.007 C 
ATOM     17  C   UNL     1      35.673 -17.563 -21.819  0.00  0.00    +0.007 C 
ATOM     18  C   UNL     1      34.475 -19.028 -23.169  0.00  0.00    +0.035 C 
ATOM     19  C   UNL     1      35.668 -16.883 -23.017  0.00  0.00    +0.035 C 
ENDBRANCH  10  16
ENDBRANCH   8   9
ENDBRANCH   4   8
BRANCH   1  20
ATOM     20  O   UNL     1      37.713 -23.050 -13.349  0.00  0.00    -0.478 OA
BRANCH  20  21
ATOM     21  C   UNL     1      38.121 -24.355 -12.973  0.00  0.00    +0.184 C 
BRANCH  21  23
ATOM     22  N   UNL     1      38.180 -26.336 -14.465  0.00  0.00    +0.388 N 
ATOM     23  C   UNL     1      38.779 -25.026 -14.169  0.00  0.00    -0.017 C 
ATOM     24  C   UNL     1      40.243 -25.362 -13.930  0.00  0.00    -0.020 C 
ATOM     25  C   UNL     1      40.524 -26.498 -14.902  0.00  0.00    -0.025 C 
ATOM     26  C   UNL     1      39.154 -27.000 -15.338  0.00  0.00    -0.082 C 
ATOM     27  H   UNL     1      37.287 -26.221 -14.945  0.00  0.00    -0.084 HD
ATOM     28  H   UNL     1      37.988 -26.873 -13.620  0.00  0.00    -0.084 HD
ENDBRANCH  21  23
ENDBRANCH  20  21
ENDBRANCH   1  20
TORSDOF 6
ENDMDL
MODEL 6
REMARK VINA RESULT:     -10.5      4.448      9.165
REMARK  Name = 44129624
REMARK  6 active torsions:
REMARK  status: ('A' for Active; 'I' for Inactive)
REMARK    1  A    between atoms: C_1  and  O_20
REMARK    2  A    between atoms: C_4  and  C_8
REMARK    3  A    between atoms: C_8  and  C_9
REMARK    4  A    between atoms: C_10  and  C_16
REMARK    5  A    between atoms: O_20  and  C_21
REMARK    6  A    between atoms: C_21  and  C_23
REMARK                            x       y       z     vdW  Elec       q    Type
REMARK                         _______ _______ _______ _____ _____    ______ ____
ROOT
ATOM      1  C   UNL     1      34.346 -14.835 -23.452  0.00  0.00    +0.138 C 
ATOM      2  C   UNL     1      34.575 -15.827 -24.405  0.00  0.00    +0.037 C 
ATOM      3  C   UNL     1      34.785 -15.012 -22.140  0.00  0.00    +0.037 C 
ATOM      4  C   UNL     1      35.683 -17.175 -22.735  0.00  0.00    +0.039 C 
ATOM      5  C   UNL     1      35.243 -16.996 -24.047  0.00  0.00    +0.006 C 
ATOM      6  C   UNL     1      35.454 -16.183 -21.782  0.00  0.00    +0.006 C 
ENDROOT
BRANCH   4   8
ATOM      7  O   UNL     1      37.434 -18.712 -22.939  0.00  0.00    -0.287 OA
ATOM      8  C   UNL     1      36.383 -18.394 -22.363  0.00  0.00    +0.196 C 
BRANCH   8   9
ATOM      9  C   UNL     1      35.885 -19.309 -21.291  0.00  0.00    +0.039 C 
ATOM     10  C   UNL     1      34.956 -21.016 -19.290  0.00  0.00    +0.001 C 
ATOM     11  C   UNL     1      34.520 -19.571 -21.177  0.00  0.00    +0.003 C 
ATOM     12  C   UNL     1      36.785 -19.899 -20.404  0.00  0.00    +0.003 C 
ATOM     13  C   UNL     1      34.056 -20.425 -20.177  0.00  0.00    +0.000 C 
ATOM     14  C   UNL     1      36.321 -20.752 -19.403  0.00  0.00    +0.000 C 
BRANCH  10  16
ATOM     15  S   UNL     1      34.505 -23.347 -16.142  0.00  0.00    -0.086 S 
ATOM     16  C   UNL     1      34.476 -21.895 -18.261  0.00  0.00    +0.007 C 
ATOM     17  C   UNL     1      33.167 -22.443 -18.140  0.00  0.00    +0.007 C 
ATOM     18  C   UNL     1      35.306 -22.306 -17.241  0.00  0.00    +0.035 C 
ATOM     19  C   UNL     1      33.045 -23.251 -17.031  0.00  0.00    +0.035 C 
ENDBRANCH  10  16
ENDBRANCH   8   9
ENDBRANCH   4   8
BRANCH   1  20
ATOM     20  O   UNL     1      33.687 -13.683 -23.803  0.00  0.00    -0.478 OA
BRANCH  20  21
ATOM     21  C   UNL     1      33.970 -12.523 -23.038  0.00  0.00    +0.184 C 
BRANCH  21  23
ATOM     22  N   UNL     1      32.675 -10.466 -22.544  0.00  0.00    +0.388 N 
ATOM     23  C   UNL     1      32.661 -11.937 -22.533  0.00  0.00    -0.017 C 
ATOM     24  C   UNL     1      32.384 -12.269 -21.075  0.00  0.00    -0.020 C 
ATOM     25  C   UNL     1      31.445 -11.164 -20.617  0.00  0.00    -0.025 C 
ATOM     26  C   UNL     1      31.554 -10.079 -21.680  0.00  0.00    -0.082 C 
ATOM     27  H   UNL     1      32.538 -10.113 -23.491  0.00  0.00    -0.084 HD
ATOM     28  H   UNL     1      33.563 -10.086 -22.219  0.00  0.00    -0.084 HD
ENDBRANCH  21  23
ENDBRANCH  20  21
ENDBRANCH   1  20
TORSDOF 6
ENDMDL
MODEL 7
REMARK VINA RESULT:     -10.4      4.475      9.162
REMARK  Name = 44129624
REMARK  6 active torsions:
REMARK  status: ('A' for Active; 'I' for Inactive)
REMARK    1  A    between atoms: C_1  and  O_20
REMARK    2  A    between atoms: C_4  and  C_8
REMARK    3  A    between atoms: C_8  and  C_9
REMARK    4  A    between atoms: C_10  and  C_16
REMARK    5  A    between atoms: O_20  and  C_21
REMARK    6  A    between atoms: C_21  and  C_23
REMARK                            x       y       z     vdW  Elec       q    Type
REMARK                         _______ _______ _______ _____ _____    ______ ____
ROOT
ATOM      1  C   UNL     1      34.656 -14.517 -22.375  0.00  0.00    +0.138 C 
ATOM      2  C   UNL     1      34.877 -15.158 -21.156  0.00  0.00    +0.037 C 
ATOM      3  C   UNL     1      34.822 -15.215 -23.571  0.00  0.00    +0.037 C 
ATOM      4  C   UNL     1      35.428 -17.197 -22.328  0.00  0.00    +0.039 C 
ATOM      5  C   UNL     1      35.262 -16.497 -21.132  0.00  0.00    +0.006 C 
ATOM      6  C   UNL     1      35.208 -16.556 -23.547  0.00  0.00    +0.006 C 
ENDROOT
BRANCH   4   8
ATOM      7  O   UNL     1      36.502 -19.068 -23.230  0.00  0.00    -0.287 OA
ATOM      8  C   UNL     1      35.828 -18.595 -22.303  0.00  0.00    +0.196 C 
BRANCH   8   9
ATOM      9  C   UNL     1      35.457 -19.514 -21.185  0.00  0.00    +0.039 C 
ATOM     10  C   UNL     1      34.765 -21.231 -19.098  0.00  0.00    +0.001 C 
ATOM     11  C   UNL     1      36.454 -20.096 -20.402  0.00  0.00    +0.003 C 
ATOM     12  C   UNL     1      34.114 -19.791 -20.925  0.00  0.00    +0.003 C 
ATOM     13  C   UNL     1      36.107 -20.954 -19.358  0.00  0.00    +0.000 C 
ATOM     14  C   UNL     1      33.769 -20.649 -19.882  0.00  0.00    +0.000 C 
BRANCH  10  16
ATOM     15  S   UNL     1      34.665 -23.497 -15.873  0.00  0.00    -0.086 S 
ATOM     16  C   UNL     1      34.410 -22.114 -18.023  0.00  0.00    +0.007 C 
ATOM     17  C   UNL     1      33.155 -22.755 -17.815  0.00  0.00    +0.007 C 
ATOM     18  C   UNL     1      35.322 -22.430 -17.040  0.00  0.00    +0.035 C 
ATOM     19  C   UNL     1      33.156 -23.538 -16.681  0.00  0.00    +0.035 C 
ENDBRANCH  10  16
ENDBRANCH   8   9
ENDBRANCH   4   8
BRANCH   1  20
ATOM     20  O   UNL     1      34.277 -13.198 -22.399  0.00  0.00    -0.478 OA
BRANCH  20  21
ATOM     21  C   UNL     1      33.045 -12.896 -23.033  0.00  0.00    +0.184 C 
BRANCH  21  23
ATOM     22  N   UNL     1      32.437 -10.654 -22.164  0.00  0.00    +0.388 N 
ATOM     23  C   UNL     1      32.180 -12.099 -22.069  0.00  0.00    -0.017 C 
ATOM     24  C   UNL     1      32.476 -12.408 -20.610  0.00  0.00    -0.020 C 
ATOM     25  C   UNL     1      32.011 -11.164 -19.868  0.00  0.00    -0.025 C 
ATOM     26  C   UNL     1      31.855 -10.094 -20.939  0.00  0.00    -0.082 C 
ATOM     27  H   UNL     1      31.984 -10.262 -22.989  0.00  0.00    -0.084 HD
ATOM     28  H   UNL     1      33.431 -10.444 -22.251  0.00  0.00    -0.084 HD
ENDBRANCH  21  23
ENDBRANCH  20  21
ENDBRANCH   1  20
TORSDOF 6
ENDMDL
MODEL 8
REMARK VINA RESULT:     -10.3      2.934      5.708
REMARK  Name = 44129624
REMARK  6 active torsions:
REMARK  status: ('A' for Active; 'I' for Inactive)
REMARK    1  A    between atoms: C_1  and  O_20
REMARK    2  A    between atoms: C_4  and  C_8
REMARK    3  A    between atoms: C_8  and  C_9
REMARK    4  A    between atoms: C_10  and  C_16
REMARK    5  A    between atoms: O_20  and  C_21
REMARK    6  A    between atoms: C_21  and  C_23
REMARK                            x       y       z     vdW  Elec       q    Type
REMARK                         _______ _______ _______ _____ _____    ______ ____
ROOT
ATOM      1  C   UNL     1      35.650 -18.206 -23.052  0.00  0.00    +0.138 C 
ATOM      2  C   UNL     1      34.741 -18.544 -24.054  0.00  0.00    +0.037 C 
ATOM      3  C   UNL     1      35.907 -16.865 -22.767  0.00  0.00    +0.037 C 
ATOM      4  C   UNL     1      34.343 -16.201 -24.485  0.00  0.00    +0.039 C 
ATOM      5  C   UNL     1      34.087 -17.543 -24.770  0.00  0.00    +0.006 C 
ATOM      6  C   UNL     1      35.253 -15.863 -23.484  0.00  0.00    +0.006 C 
ENDROOT
BRANCH   4   8
ATOM      7  O   UNL     1      32.942 -15.448 -26.199  0.00  0.00    -0.287 OA
ATOM      8  C   UNL     1      33.660 -15.157 -25.230  0.00  0.00    +0.196 C 
BRANCH   8   9
ATOM      9  C   UNL     1      33.781 -13.709 -24.878  0.00  0.00    +0.039 C 
ATOM     10  C   UNL     1      34.008 -11.008 -24.219  0.00  0.00    +0.001 C 
ATOM     11  C   UNL     1      33.669 -13.305 -23.548  0.00  0.00    +0.003 C 
ATOM     12  C   UNL     1      34.006 -12.764 -25.879  0.00  0.00    +0.003 C 
ATOM     13  C   UNL     1      33.783 -11.954 -23.219  0.00  0.00    +0.000 C 
ATOM     14  C   UNL     1      34.119 -11.414 -25.549  0.00  0.00    +0.000 C 
BRANCH  10  16
ATOM     15  S   UNL     1      33.464  -7.307 -22.972  0.00  0.00    -0.086 S 
ATOM     16  C   UNL     1      34.126  -9.618 -23.879  0.00  0.00    +0.007 C 
ATOM     17  C   UNL     1      35.253  -8.773 -24.091  0.00  0.00    +0.007 C 
ATOM     18  C   UNL     1      33.082  -8.948 -23.279  0.00  0.00    +0.035 C 
ATOM     19  C   UNL     1      35.029  -7.489 -23.644  0.00  0.00    +0.035 C 
ENDBRANCH  10  16
ENDBRANCH   8   9
ENDBRANCH   4   8
BRANCH   1  20
ATOM     20  O   UNL     1      36.295 -19.192 -22.347  0.00  0.00    -0.478 OA
BRANCH  20  21
ATOM     21  C   UNL     1      36.110 -19.200 -20.941  0.00  0.00    +0.184 C 
BRANCH  21  23
ATOM     22  N   UNL     1      33.959 -20.161 -20.165  0.00  0.00    +0.388 N 
ATOM     23  C   UNL     1      35.346 -20.457 -20.554  0.00  0.00    -0.017 C 
ATOM     24  C   UNL     1      35.914 -21.140 -19.320  0.00  0.00    -0.020 C 
ATOM     25  C   UNL     1      34.740 -21.935 -18.766  0.00  0.00    -0.025 C 
ATOM     26  C   UNL     1      33.509 -21.365 -19.457  0.00  0.00    -0.082 C 
ATOM     27  H   UNL     1      33.383 -19.993 -20.990  0.00  0.00    -0.084 HD
ATOM     28  H   UNL     1      33.890 -19.324 -19.588  0.00  0.00    -0.084 HD
ENDBRANCH  21  23
ENDBRANCH  20  21
ENDBRANCH   1  20
TORSDOF 6
ENDMDL
MODEL 9
REMARK VINA RESULT:     -10.3      4.917     10.235
REMARK  Name = 44129624
REMARK  6 active torsions:
REMARK  status: ('A' for Active; 'I' for Inactive)
REMARK    1  A    between atoms: C_1  and  O_20
REMARK    2  A    between atoms: C_4  and  C_8
REMARK    3  A    between atoms: C_8  and  C_9
REMARK    4  A    between atoms: C_10  and  C_16
REMARK    5  A    between atoms: O_20  and  C_21
REMARK    6  A    between atoms: C_21  and  C_23
REMARK                            x       y       z     vdW  Elec       q    Type
REMARK                         _______ _______ _______ _____ _____    ______ ____
ROOT
ATOM      1  C   UNL     1      35.901 -19.225 -20.966  0.00  0.00    +0.138 C 
ATOM      2  C   UNL     1      34.521 -19.412 -20.913  0.00  0.00    +0.037 C 
ATOM      3  C   UNL     1      36.747 -20.061 -20.236  0.00  0.00    +0.037 C 
ATOM      4  C   UNL     1      34.829 -21.271 -19.402  0.00  0.00    +0.039 C 
ATOM      5  C   UNL     1      33.984 -20.434 -20.132  0.00  0.00    +0.006 C 
ATOM      6  C   UNL     1      36.210 -21.085 -19.455  0.00  0.00    +0.006 C 
ENDROOT
BRANCH   4   8
ATOM      7  O   UNL     1      33.380 -23.072 -19.047  0.00  0.00    -0.287 OA
ATOM      8  C   UNL     1      34.270 -22.339 -18.589  0.00  0.00    +0.196 C 
BRANCH   8   9
ATOM      9  C   UNL     1      34.725 -22.605 -17.191  0.00  0.00    +0.039 C 
ATOM     10  C   UNL     1      35.575 -23.101 -14.580  0.00  0.00    +0.001 C 
ATOM     11  C   UNL     1      36.018 -22.258 -16.801  0.00  0.00    +0.003 C 
ATOM     12  C   UNL     1      33.857 -23.201 -16.276  0.00  0.00    +0.003 C 
ATOM     13  C   UNL     1      36.443 -22.506 -15.496  0.00  0.00    +0.000 C 
ATOM     14  C   UNL     1      34.282 -23.449 -14.971  0.00  0.00    +0.000 C 
BRANCH  10  16
ATOM     15  S   UNL     1      35.980 -24.267 -10.836  0.00  0.00    -0.086 S 
ATOM     16  C   UNL     1      36.014 -23.354 -13.237  0.00  0.00    +0.007 C 
ATOM     17  C   UNL     1      37.219 -22.902 -12.626  0.00  0.00    +0.007 C 
ATOM     18  C   UNL     1      35.247 -24.107 -12.375  0.00  0.00    +0.035 C 
ATOM     19  C   UNL     1      37.328 -23.328 -11.320  0.00  0.00    +0.035 C 
ENDBRANCH  10  16
ENDBRANCH   8   9
ENDBRANCH   4   8
BRANCH   1  20
ATOM     20  O   UNL     1      36.430 -18.219 -21.735  0.00  0.00    -0.478 OA
BRANCH  20  21
ATOM     21  C   UNL     1      36.085 -18.213 -23.110  0.00  0.00    +0.184 C 
BRANCH  21  23
ATOM     22  N   UNL     1      35.305 -16.463 -24.686  0.00  0.00    +0.388 N 
ATOM     23  C   UNL     1      35.106 -17.078 -23.365  0.00  0.00    -0.017 C 
ATOM     24  C   UNL     1      35.288 -15.909 -22.409  0.00  0.00    -0.020 C 
ATOM     25  C   UNL     1      34.706 -14.722 -23.161  0.00  0.00    -0.025 C 
ATOM     26  C   UNL     1      34.596 -15.181 -24.609  0.00  0.00    -0.082 C 
ATOM     27  H   UNL     1      34.908 -17.051 -25.419  0.00  0.00    -0.084 HD
ATOM     28  H   UNL     1      36.292 -16.346 -24.911  0.00  0.00    -0.084 HD
ENDBRANCH  21  23
ENDBRANCH  20  21
ENDBRANCH   1  20
TORSDOF 6
ENDMDL
