MODEL 1
REMARK VINA RESULT:     -11.7      0.000      0.000
REMARK  Name = 46937091
REMARK  8 active torsions:
REMARK  status: ('A' for Active; 'I' for Inactive)
REMARK    1  A    between atoms: C_1  and  C_4
REMARK    2  A    between atoms: C_1  and  C_18
REMARK    3  A    between atoms: C_10  and  C_12
REMARK    4  A    between atoms: C_18  and  C_19
REMARK    5  A    between atoms: C_19  and  N_20
REMARK    6  A    between atoms: C_19  and  C_30
REMARK    7  A    between atoms: C_24  and  C_27
REMARK    8  A    between atoms: C_30  and  O_32
REMARK                            x       y       z     vdW  Elec       q    Type
REMARK                         _______ _______ _______ _____ _____    ______ ____
ROOT
ATOM      1  C   UNL     1      34.924 -24.498 -14.364  0.00  0.00    +0.031 C 
ENDROOT
BRANCH   1   4
ATOM      2  O   UNL     1      33.971 -22.861 -16.765  0.00  0.00    -0.425 OA
ATOM      3  N   UNL     1      31.838 -22.411 -17.382  0.00  0.00    -0.368 NA
ATOM      4  C   UNL     1      33.495 -24.214 -14.753  0.00  0.00    +0.014 C 
ATOM      5  C   UNL     1      33.138 -23.458 -15.863  0.00  0.00    +0.170 C 
ATOM      6  C   UNL     1      32.432 -24.712 -13.993  0.00  0.00    -0.005 C 
ATOM      7  C   UNL     1      31.833 -23.181 -16.244  0.00  0.00    +0.151 C 
ATOM      8  C   UNL     1      31.100 -24.455 -14.342  0.00  0.00    -0.019 C 
ATOM      9  C   UNL     1      30.779 -23.688 -15.471  0.00  0.00    +0.088 C 
ATOM     10  C   UNL     1      33.118 -22.258 -17.639  0.00  0.00    +0.282 C 
BRANCH  10  12
ATOM     11 CL   UNL     1      35.732 -19.293 -22.082  0.00  0.00    -0.082 Cl
ATOM     12  C   UNL     1      33.750 -21.541 -18.712  0.00  0.00    +0.066 C 
ATOM     13  C   UNL     1      32.985 -20.743 -19.563  0.00  0.00    +0.007 C 
ATOM     14  C   UNL     1      35.127 -21.643 -18.904  0.00  0.00    +0.007 C 
ATOM     15  C   UNL     1      33.598 -20.048 -20.605  0.00  0.00    +0.012 C 
ATOM     16  C   UNL     1      35.740 -20.948 -19.946  0.00  0.00    +0.012 C 
ATOM     17  C   UNL     1      34.975 -20.150 -20.796  0.00  0.00    +0.058 C 
ENDBRANCH  10  12
ENDBRANCH   1   4
BRANCH   1  18
ATOM     18  C   UNL     1      35.260 -24.172 -12.899  0.00  0.00    +0.023 C 
BRANCH  18  19
ATOM     19  C   UNL     1      36.598 -23.416 -12.683  0.00  0.00    +0.087 C 
BRANCH  19  20
ATOM     20  N   UNL     1      37.693 -23.870 -13.640  0.00  0.00    -0.246 NA
ATOM     21  N   UNL     1      39.043 -23.877 -15.403  0.00  0.00    -0.251 NA
ATOM     22  C   UNL     1      38.477 -24.979 -13.505  0.00  0.00    +0.125 C 
ATOM     23  C   UNL     1      38.068 -23.239 -14.793  0.00  0.00    +0.201 C 
ATOM     24  C   UNL     1      39.304 -24.963 -14.604  0.00  0.00    +0.124 C 
BRANCH  24  27
ATOM     25  O   UNL     1      41.326 -26.098 -14.194  0.00  0.00    -0.269 OA
ATOM     26  N   UNL     1      40.154 -26.716 -16.065  0.00  0.00    -0.324 N 
ATOM     27  C   UNL     1      40.313 -25.926 -14.918  0.00  0.00    +0.257 C 
ATOM     28  H   UNL     1      40.836 -27.386 -16.301  0.00  0.00    +0.145 HD
ATOM     29  H   UNL     1      39.360 -26.601 -16.635  0.00  0.00    +0.145 HD
ENDBRANCH  24  27
ENDBRANCH  19  20
BRANCH  19  30
ATOM     30  C   UNL     1      37.029 -23.489 -11.193  0.00  0.00    +0.125 C 
ATOM     31  C   UNL     1      35.963 -24.073 -10.271  0.00  0.00    +0.033 C 
BRANCH  30  32
ATOM     32  O   UNL     1      37.412 -22.203 -10.712  0.00  0.00    -0.383 OA
ATOM     33  H   UNL     1      37.007 -22.048  -9.845  0.00  0.00    +0.210 HD
ENDBRANCH  30  32
ENDBRANCH  19  30
ENDBRANCH  18  19
ENDBRANCH   1  18
TORSDOF 8
ENDMDL
MODEL 2
REMARK VINA RESULT:     -11.5      1.230      1.719
REMARK  Name = 46937091
REMARK  8 active torsions:
REMARK  status: ('A' for Active; 'I' for Inactive)
REMARK    1  A    between atoms: C_1  and  C_4
REMARK    2  A    between atoms: C_1  and  C_18
REMARK    3  A    between atoms: C_10  and  C_12
REMARK    4  A    between atoms: C_18  and  C_19
REMARK    5  A    between atoms: C_19  and  N_20
REMARK    6  A    between atoms: C_19  and  C_30
REMARK    7  A    between atoms: C_24  and  C_27
REMARK    8  A    between atoms: C_30  and  O_32
REMARK                            x       y       z     vdW  Elec       q    Type
REMARK                         _______ _______ _______ _____ _____    ______ ____
ROOT
ATOM      1  C   UNL     1      36.000 -24.265 -15.050  0.00  0.00    +0.031 C 
ENDROOT
BRANCH   1   4
ATOM      2  O   UNL     1      34.614 -22.626 -17.229  0.00  0.00    -0.425 OA
ATOM      3  N   UNL     1      32.393 -22.263 -17.494  0.00  0.00    -0.368 NA
ATOM      4  C   UNL     1      34.517 -24.039 -15.204  0.00  0.00    +0.014 C 
ATOM      5  C   UNL     1      33.959 -23.278 -16.224  0.00  0.00    +0.170 C 
ATOM      6  C   UNL     1      33.608 -24.600 -14.300  0.00  0.00    -0.005 C 
ATOM      7  C   UNL     1      32.600 -23.054 -16.390  0.00  0.00    +0.151 C 
ATOM      8  C   UNL     1      32.229 -24.398 -14.431  0.00  0.00    -0.019 C 
ATOM      9  C   UNL     1      31.702 -23.624 -15.476  0.00  0.00    +0.088 C 
ATOM     10  C   UNL     1      33.610 -22.046 -17.942  0.00  0.00    +0.282 C 
BRANCH  10  12
ATOM     11 CL   UNL     1      35.372 -18.878 -22.657  0.00  0.00    -0.082 Cl
ATOM     12  C   UNL     1      34.035 -21.280 -19.082  0.00  0.00    +0.066 C 
ATOM     13  C   UNL     1      35.392 -21.191 -19.394  0.00  0.00    +0.007 C 
ATOM     14  C   UNL     1      33.093 -20.627 -19.875  0.00  0.00    +0.007 C 
ATOM     15  C   UNL     1      35.805 -20.448 -20.500  0.00  0.00    +0.012 C 
ATOM     16  C   UNL     1      33.506 -19.884 -20.980  0.00  0.00    +0.012 C 
ATOM     17  C   UNL     1      34.862 -19.795 -21.293  0.00  0.00    +0.058 C 
ENDBRANCH  10  12
ENDBRANCH   1   4
BRANCH   1  18
ATOM     18  C   UNL     1      36.441 -24.638 -13.624  0.00  0.00    +0.023 C 
BRANCH  18  19
ATOM     19  C   UNL     1      37.894 -24.232 -13.257  0.00  0.00    +0.087 C 
BRANCH  19  20
ATOM     20  N   UNL     1      38.939 -25.121 -13.918  0.00  0.00    -0.246 NA
ATOM     21  N   UNL     1      40.930 -25.882 -14.540  0.00  0.00    -0.251 NA
ATOM     22  C   UNL     1      38.695 -26.236 -14.668  0.00  0.00    +0.125 C 
ATOM     23  C   UNL     1      40.294 -24.948 -13.868  0.00  0.00    +0.201 C 
ATOM     24  C   UNL     1      39.939 -26.690 -15.040  0.00  0.00    +0.124 C 
BRANCH  24  27
ATOM     25  O   UNL     1      41.029 -28.729 -15.486  0.00  0.00    -0.269 OA
ATOM     26  N   UNL     1      39.535 -27.989 -17.060  0.00  0.00    -0.324 N 
ATOM     27  C   UNL     1      40.214 -27.841 -15.842  0.00  0.00    +0.257 C 
ATOM     28  H   UNL     1      39.708 -28.775 -17.629  0.00  0.00    +0.145 HD
ATOM     29  H   UNL     1      38.885 -27.309 -17.347  0.00  0.00    +0.145 HD
ENDBRANCH  24  27
ENDBRANCH  19  20
BRANCH  19  30
ATOM     30  C   UNL     1      38.060 -24.145 -11.716  0.00  0.00    +0.125 C 
ATOM     31  C   UNL     1      36.743 -24.201 -10.949  0.00  0.00    +0.033 C 
BRANCH  30  32
ATOM     32  O   UNL     1      38.767 -22.962 -11.349  0.00  0.00    -0.383 OA
ATOM     33  H   UNL     1      38.185 -22.386 -10.829  0.00  0.00    +0.210 HD
ENDBRANCH  30  32
ENDBRANCH  19  30
ENDBRANCH  18  19
ENDBRANCH   1  18
TORSDOF 8
ENDMDL
MODEL 3
REMARK VINA RESULT:     -11.3      3.727      7.469
REMARK  Name = 46937091
REMARK  8 active torsions:
REMARK  status: ('A' for Active; 'I' for Inactive)
REMARK    1  A    between atoms: C_1  and  C_4
REMARK    2  A    between atoms: C_1  and  C_18
REMARK    3  A    between atoms: C_10  and  C_12
REMARK    4  A    between atoms: C_18  and  C_19
REMARK    5  A    between atoms: C_19  and  N_20
REMARK    6  A    between atoms: C_19  and  C_30
REMARK    7  A    between atoms: C_24  and  C_27
REMARK    8  A    between atoms: C_30  and  O_32
REMARK                            x       y       z     vdW  Elec       q    Type
REMARK                         _______ _______ _______ _____ _____    ______ ____
ROOT
ATOM      1  C   UNL     1      33.109 -23.106 -17.091  0.00  0.00    +0.031 C 
ENDROOT
BRANCH   1   4
ATOM      2  O   UNL     1      34.860 -21.334 -18.864  0.00  0.00    -0.425 OA
ATOM      3  N   UNL     1      37.046 -20.811 -18.579  0.00  0.00    -0.368 NA
ATOM      4  C   UNL     1      34.563 -22.773 -16.877  0.00  0.00    +0.014 C 
ATOM      5  C   UNL     1      35.297 -21.957 -17.731  0.00  0.00    +0.170 C 
ATOM      6  C   UNL     1      35.263 -23.286 -15.780  0.00  0.00    -0.005 C 
ATOM      7  C   UNL     1      36.635 -21.634 -17.559  0.00  0.00    +0.151 C 
ATOM      8  C   UNL     1      36.615 -22.985 -15.570  0.00  0.00    -0.019 C 
ATOM      9  C   UNL     1      37.322 -22.156 -16.453  0.00  0.00    +0.088 C 
ATOM     10  C   UNL     1      35.963 -20.672 -19.310  0.00  0.00    +0.282 C 
BRANCH  10  12
ATOM     11 CL   UNL     1      35.177 -17.552 -24.312  0.00  0.00    -0.082 Cl
ATOM     12  C   UNL     1      35.774 -19.917 -20.519  0.00  0.00    +0.066 C 
ATOM     13  C   UNL     1      34.533 -19.923 -21.157  0.00  0.00    +0.007 C 
ATOM     14  C   UNL     1      36.829 -19.179 -21.054  0.00  0.00    +0.007 C 
ATOM     15  C   UNL     1      34.349 -19.192 -22.330  0.00  0.00    +0.012 C 
ATOM     16  C   UNL     1      36.645 -18.448 -22.227  0.00  0.00    +0.012 C 
ATOM     17  C   UNL     1      35.404 -18.454 -22.865  0.00  0.00    +0.058 C 
ENDBRANCH  10  12
ENDBRANCH   1   4
BRANCH   1  18
ATOM     18  C   UNL     1      32.196 -22.759 -15.902  0.00  0.00    +0.023 C 
BRANCH  18  19
ATOM     19  C   UNL     1      31.157 -23.851 -15.529  0.00  0.00    +0.087 C 
BRANCH  19  20
ATOM     20  N   UNL     1      29.757 -23.529 -16.036  0.00  0.00    -0.246 NA
ATOM     21  N   UNL     1      27.825 -23.769 -17.105  0.00  0.00    -0.251 NA
ATOM     22  C   UNL     1      29.041 -22.396 -15.772  0.00  0.00    +0.125 C 
ATOM     23  C   UNL     1      28.987 -24.323 -16.839  0.00  0.00    +0.201 C 
ATOM     24  C   UNL     1      27.852 -22.567 -16.442  0.00  0.00    +0.124 C 
BRANCH  24  27
ATOM     25  O   UNL     1      26.615 -20.807 -17.400  0.00  0.00    -0.269 OA
ATOM     26  N   UNL     1      25.810 -21.690 -15.443  0.00  0.00    -0.324 N 
ATOM     27  C   UNL     1      26.760 -21.644 -16.474  0.00  0.00    +0.257 C 
ATOM     28  H   UNL     1      25.050 -21.064 -15.445  0.00  0.00    +0.145 HD
ATOM     29  H   UNL     1      25.904 -22.348 -14.717  0.00  0.00    +0.145 HD
ENDBRANCH  24  27
ENDBRANCH  19  20
BRANCH  19  30
ATOM     30  C   UNL     1      31.197 -24.140 -14.005  0.00  0.00    +0.125 C 
ATOM     31  C   UNL     1      32.564 -24.589 -13.498  0.00  0.00    +0.033 C 
BRANCH  30  32
ATOM     32  O   UNL     1      30.220 -25.116 -13.648  0.00  0.00    -0.383 OA
ATOM     33  H   UNL     1      29.709 -24.798 -12.888  0.00  0.00    +0.210 HD
ENDBRANCH  30  32
ENDBRANCH  19  30
ENDBRANCH  18  19
ENDBRANCH   1  18
TORSDOF 8
ENDMDL
MODEL 4
REMARK VINA RESULT:     -10.3     11.382     15.270
REMARK  Name = 46937091
REMARK  8 active torsions:
REMARK  status: ('A' for Active; 'I' for Inactive)
REMARK    1  A    between atoms: C_1  and  C_4
REMARK    2  A    between atoms: C_1  and  C_18
REMARK    3  A    between atoms: C_10  and  C_12
REMARK    4  A    between atoms: C_18  and  C_19
REMARK    5  A    between atoms: C_19  and  N_20
REMARK    6  A    between atoms: C_19  and  C_30
REMARK    7  A    between atoms: C_24  and  C_27
REMARK    8  A    between atoms: C_30  and  O_32
REMARK                            x       y       z     vdW  Elec       q    Type
REMARK                         _______ _______ _______ _____ _____    ______ ____
ROOT
ATOM      1  C   UNL     1      32.069 -11.735 -22.441  0.00  0.00    +0.031 C 
ENDROOT
BRANCH   1   4
ATOM      2  O   UNL     1      32.872  -8.791 -22.649  0.00  0.00    -0.425 OA
ATOM      3  N   UNL     1      32.851  -7.226 -21.010  0.00  0.00    -0.368 NA
ATOM      4  C   UNL     1      32.045 -10.713 -21.333  0.00  0.00    +0.014 C 
ATOM      5  C   UNL     1      32.427  -9.387 -21.504  0.00  0.00    +0.170 C 
ATOM      6  C   UNL     1      31.626 -11.061 -20.044  0.00  0.00    -0.005 C 
ATOM      7  C   UNL     1      32.415  -8.427 -20.503  0.00  0.00    +0.151 C 
ATOM      8  C   UNL     1      31.600 -10.122 -19.006  0.00  0.00    -0.019 C 
ATOM      9  C   UNL     1      31.992  -8.791 -19.217  0.00  0.00    +0.088 C 
ATOM     10  C   UNL     1      33.103  -7.504 -22.270  0.00  0.00    +0.282 C 
BRANCH  10  12
ATOM     11 CL   UNL     1      35.121  -3.932 -26.576  0.00  0.00    -0.082 Cl
ATOM     12  C   UNL     1      33.590  -6.640 -23.311  0.00  0.00    +0.066 C 
ATOM     13  C   UNL     1      34.894  -6.787 -23.785  0.00  0.00    +0.007 C 
ATOM     14  C   UNL     1      32.760  -5.657 -23.847  0.00  0.00    +0.007 C 
ATOM     15  C   UNL     1      35.367  -5.950 -24.795  0.00  0.00    +0.012 C 
ATOM     16  C   UNL     1      33.233  -4.819 -24.857  0.00  0.00    +0.012 C 
ATOM     17  C   UNL     1      34.537  -4.966 -25.331  0.00  0.00    +0.058 C 
ENDBRANCH  10  12
ENDBRANCH   1   4
BRANCH   1  18
ATOM     18  C   UNL     1      33.465 -12.298 -22.755  0.00  0.00    +0.023 C 
BRANCH  18  19
ATOM     19  C   UNL     1      33.568 -13.106 -24.077  0.00  0.00    +0.087 C 
BRANCH  19  20
ATOM     20  N   UNL     1      34.169 -14.491 -23.876  0.00  0.00    -0.246 NA
ATOM     21  N   UNL     1      34.772 -16.581 -24.320  0.00  0.00    -0.251 NA
ATOM     22  C   UNL     1      34.799 -14.944 -22.753  0.00  0.00    +0.125 C 
ATOM     23  C   UNL     1      34.177 -15.507 -24.790  0.00  0.00    +0.201 C 
ATOM     24  C   UNL     1      35.163 -16.237 -23.050  0.00  0.00    +0.124 C 
BRANCH  24  27
ATOM     25  O   UNL     1      35.649 -17.177 -20.946  0.00  0.00    -0.269 OA
ATOM     26  N   UNL     1      36.784 -18.029 -22.746  0.00  0.00    -0.324 N 
ATOM     27  C   UNL     1      35.855 -17.140 -22.185  0.00  0.00    +0.257 C 
ATOM     28  H   UNL     1      37.273 -18.660 -22.169  0.00  0.00    +0.145 HD
ATOM     29  H   UNL     1      36.948 -18.021 -23.716  0.00  0.00    +0.145 HD
ENDBRANCH  24  27
ENDBRANCH  19  20
BRANCH  19  30
ATOM     30  C   UNL     1      34.305 -12.277 -25.164  0.00  0.00    +0.125 C 
ATOM     31  C   UNL     1      34.527 -10.818 -24.782  0.00  0.00    +0.033 C 
BRANCH  30  32
ATOM     32  O   UNL     1      33.607 -12.337 -26.406  0.00  0.00    -0.383 OA
ATOM     33  H   UNL     1      32.972 -13.071 -26.385  0.00  0.00    +0.210 HD
ENDBRANCH  30  32
ENDBRANCH  19  30
ENDBRANCH  18  19
ENDBRANCH   1  18
TORSDOF 8
ENDMDL
MODEL 5
REMARK VINA RESULT:     -10.1      7.305     12.346
REMARK  Name = 46937091
REMARK  8 active torsions:
REMARK  status: ('A' for Active; 'I' for Inactive)
REMARK    1  A    between atoms: C_1  and  C_4
REMARK    2  A    between atoms: C_1  and  C_18
REMARK    3  A    between atoms: C_10  and  C_12
REMARK    4  A    between atoms: C_18  and  C_19
REMARK    5  A    between atoms: C_19  and  N_20
REMARK    6  A    between atoms: C_19  and  C_30
REMARK    7  A    between atoms: C_24  and  C_27
REMARK    8  A    between atoms: C_30  and  O_32
REMARK                            x       y       z     vdW  Elec       q    Type
REMARK                         _______ _______ _______ _____ _____    ______ ____
ROOT
ATOM      1  C   UNL     1      35.056 -15.426 -20.919  0.00  0.00    +0.031 C 
ENDROOT
BRANCH   1   4
ATOM      2  O   UNL     1      34.893 -18.464 -20.614  0.00  0.00    -0.425 OA
ATOM      3  N   UNL     1      35.025 -20.033 -22.244  0.00  0.00    -0.368 NA
ATOM      4  C   UNL     1      35.145 -16.449 -22.022  0.00  0.00    +0.014 C 
ATOM      5  C   UNL     1      35.063 -17.820 -21.806  0.00  0.00    +0.170 C 
ATOM      6  C   UNL     1      35.321 -16.056 -23.353  0.00  0.00    -0.005 C 
ATOM      7  C   UNL     1      35.142 -18.783 -22.801  0.00  0.00    +0.151 C 
ATOM      8  C   UNL     1      35.407 -16.996 -24.388  0.00  0.00    -0.019 C 
ATOM      9  C   UNL     1      35.318 -18.372 -24.130  0.00  0.00    +0.088 C 
ATOM     10  C   UNL     1      34.881 -19.781 -20.962  0.00  0.00    +0.282 C 
BRANCH  10  12
ATOM     11 CL   UNL     1      34.180 -23.578 -16.438  0.00  0.00    -0.082 Cl
ATOM     12  C   UNL     1      34.712 -20.699 -19.869  0.00  0.00    +0.066 C 
ATOM     13  C   UNL     1      33.437 -21.149 -19.528  0.00  0.00    +0.007 C 
ATOM     14  C   UNL     1      35.823 -21.139 -19.149  0.00  0.00    +0.007 C 
ATOM     15  C   UNL     1      33.273 -22.039 -18.467  0.00  0.00    +0.012 C 
ATOM     16  C   UNL     1      35.658 -22.029 -18.089  0.00  0.00    +0.012 C 
ATOM     17  C   UNL     1      34.383 -22.479 -17.748  0.00  0.00    +0.058 C 
ENDBRANCH  10  12
ENDBRANCH   1   4
BRANCH   1  18
ATOM     18  C   UNL     1      34.903 -13.975 -21.408  0.00  0.00    +0.023 C 
BRANCH  18  19
ATOM     19  C   UNL     1      33.527 -13.634 -22.040  0.00  0.00    +0.087 C 
BRANCH  19  20
ATOM     20  N   UNL     1      33.653 -13.003 -23.420  0.00  0.00    -0.246 NA
ATOM     21  N   UNL     1      34.077 -11.481 -24.981  0.00  0.00    -0.251 NA
ATOM     22  C   UNL     1      33.364 -13.601 -24.613  0.00  0.00    +0.125 C 
ATOM     23  C   UNL     1      34.078 -11.731 -23.690  0.00  0.00    +0.201 C 
ATOM     24  C   UNL     1      33.634 -12.642 -25.562  0.00  0.00    +0.124 C 
BRANCH  24  27
ATOM     25  O   UNL     1      34.472 -12.906 -27.748  0.00  0.00    -0.269 OA
ATOM     26  N   UNL     1      32.192 -12.820 -27.518  0.00  0.00    -0.324 N 
ATOM     27  C   UNL     1      33.486 -12.789 -26.977  0.00  0.00    +0.257 C 
ATOM     28  H   UNL     1      32.066 -12.920 -28.489  0.00  0.00    +0.145 HD
ATOM     29  H   UNL     1      31.410 -12.742 -26.926  0.00  0.00    +0.145 HD
ENDBRANCH  24  27
ENDBRANCH  19  20
BRANCH  19  30
ATOM     30  C   UNL     1      32.676 -12.783 -21.060  0.00  0.00    +0.125 C 
ATOM     31  C   UNL     1      32.272 -13.524 -19.790  0.00  0.00    +0.033 C 
BRANCH  30  32
ATOM     32  O   UNL     1      31.506 -12.286 -21.706  0.00  0.00    -0.383 OA
ATOM     33  H   UNL     1      31.763 -11.763 -22.482  0.00  0.00    +0.210 HD
ENDBRANCH  30  32
ENDBRANCH  19  30
ENDBRANCH  18  19
ENDBRANCH   1  18
TORSDOF 8
ENDMDL
MODEL 6
REMARK VINA RESULT:     -10.1      2.977      5.759
REMARK  Name = 46937091
REMARK  8 active torsions:
REMARK  status: ('A' for Active; 'I' for Inactive)
REMARK    1  A    between atoms: C_1  and  C_4
REMARK    2  A    between atoms: C_1  and  C_18
REMARK    3  A    between atoms: C_10  and  C_12
REMARK    4  A    between atoms: C_18  and  C_19
REMARK    5  A    between atoms: C_19  and  N_20
REMARK    6  A    between atoms: C_19  and  C_30
REMARK    7  A    between atoms: C_24  and  C_27
REMARK    8  A    between atoms: C_30  and  O_32
REMARK                            x       y       z     vdW  Elec       q    Type
REMARK                         _______ _______ _______ _____ _____    ______ ____
ROOT
ATOM      1  C   UNL     1      32.976 -22.289 -18.109  0.00  0.00    +0.031 C 
ENDROOT
BRANCH   1   4
ATOM      2  O   UNL     1      34.627 -20.446 -19.906  0.00  0.00    -0.425 OA
ATOM      3  N   UNL     1      36.849 -20.016 -19.789  0.00  0.00    -0.368 NA
ATOM      4  C   UNL     1      34.456 -22.020 -18.008  0.00  0.00    +0.014 C 
ATOM      5  C   UNL     1      35.140 -21.166 -18.866  0.00  0.00    +0.170 C 
ATOM      6  C   UNL     1      35.232 -22.635 -17.020  0.00  0.00    -0.005 C 
ATOM      7  C   UNL     1      36.500 -20.900 -18.796  0.00  0.00    +0.151 C 
ATOM      8  C   UNL     1      36.608 -22.394 -16.917  0.00  0.00    -0.019 C 
ATOM      9  C   UNL     1      37.263 -21.525 -17.800  0.00  0.00    +0.088 C 
ATOM     10  C   UNL     1      35.710 -19.788 -20.404  0.00  0.00    +0.282 C 
BRANCH  10  12
ATOM     11 CL   UNL     1      34.599 -16.275 -25.073  0.00  0.00    -0.082 Cl
ATOM     12  C   UNL     1      35.441 -18.939 -21.533  0.00  0.00    +0.066 C 
ATOM     13  C   UNL     1      35.746 -17.580 -21.471  0.00  0.00    +0.007 C 
ATOM     14  C   UNL     1      34.877 -19.475 -22.690  0.00  0.00    +0.007 C 
ATOM     15  C   UNL     1      35.485 -16.756 -22.565  0.00  0.00    +0.012 C 
ATOM     16  C   UNL     1      34.616 -18.651 -23.785  0.00  0.00    +0.012 C 
ATOM     17  C   UNL     1      34.921 -17.291 -23.722  0.00  0.00    +0.058 C 
ENDBRANCH  10  12
ENDBRANCH   1   4
BRANCH   1  18
ATOM     18  C   UNL     1      32.443 -23.303 -17.082  0.00  0.00    +0.023 C 
BRANCH  18  19
ATOM     19  C   UNL     1      31.790 -22.681 -15.820  0.00  0.00    +0.087 C 
BRANCH  19  20
ATOM     20  N   UNL     1      32.473 -23.112 -14.529  0.00  0.00    -0.246 NA
ATOM     21  N   UNL     1      32.812 -23.415 -12.355  0.00  0.00    -0.251 NA
ATOM     22  C   UNL     1      33.677 -23.748 -14.424  0.00  0.00    +0.125 C 
ATOM     23  C   UNL     1      31.991 -22.934 -13.262  0.00  0.00    +0.201 C 
ATOM     24  C   UNL     1      33.866 -23.925 -13.073  0.00  0.00    +0.124 C 
BRANCH  24  27
ATOM     25  O   UNL     1      35.063 -24.726 -11.209  0.00  0.00    -0.269 OA
ATOM     26  N   UNL     1      36.046 -24.994 -13.263  0.00  0.00    -0.324 N 
ATOM     27  C   UNL     1      34.992 -24.549 -12.451  0.00  0.00    +0.257 C 
ATOM     28  H   UNL     1      36.832 -25.427 -12.857  0.00  0.00    +0.145 HD
ATOM     29  H   UNL     1      36.000 -24.874 -14.239  0.00  0.00    +0.145 HD
ENDBRANCH  24  27
ENDBRANCH  19  20
BRANCH  19  30
ATOM     30  C   UNL     1      30.260 -22.947 -15.813  0.00  0.00    +0.125 C 
ATOM     31  C   UNL     1      29.892 -24.427 -15.817  0.00  0.00    +0.033 C 
BRANCH  30  32
ATOM     32  O   UNL     1      29.629 -22.302 -16.917  0.00  0.00    -0.383 OA
ATOM     33  H   UNL     1      28.979 -22.903 -17.313  0.00  0.00    +0.210 HD
ENDBRANCH  30  32
ENDBRANCH  19  30
ENDBRANCH  18  19
ENDBRANCH   1  18
TORSDOF 8
ENDMDL
MODEL 7
REMARK VINA RESULT:      -9.9      3.641      7.642
REMARK  Name = 46937091
REMARK  8 active torsions:
REMARK  status: ('A' for Active; 'I' for Inactive)
REMARK    1  A    between atoms: C_1  and  C_4
REMARK    2  A    between atoms: C_1  and  C_18
REMARK    3  A    between atoms: C_10  and  C_12
REMARK    4  A    between atoms: C_18  and  C_19
REMARK    5  A    between atoms: C_19  and  N_20
REMARK    6  A    between atoms: C_19  and  C_30
REMARK    7  A    between atoms: C_24  and  C_27
REMARK    8  A    between atoms: C_30  and  O_32
REMARK                            x       y       z     vdW  Elec       q    Type
REMARK                         _______ _______ _______ _____ _____    ______ ____
ROOT
ATOM      1  C   UNL     1      37.215 -21.807 -17.085  0.00  0.00    +0.031 C 
ENDROOT
BRANCH   1   4
ATOM      2  O   UNL     1      34.665 -22.798 -15.717  0.00  0.00    -0.425 OA
ATOM      3  N   UNL     1      34.488 -24.295 -14.025  0.00  0.00    -0.368 NA
ATOM      4  C   UNL     1      37.125 -22.807 -15.960  0.00  0.00    +0.014 C 
ATOM      5  C   UNL     1      35.924 -23.209 -15.386  0.00  0.00    +0.170 C 
ATOM      6  C   UNL     1      38.277 -23.391 -15.425  0.00  0.00    -0.005 C 
ATOM      7  C   UNL     1      35.812 -24.126 -14.351  0.00  0.00    +0.151 C 
ATOM      8  C   UNL     1      38.208 -24.320 -14.380  0.00  0.00    -0.019 C 
ATOM      9  C   UNL     1      36.977 -24.703 -13.826  0.00  0.00    +0.088 C 
ATOM     10  C   UNL     1      33.866 -23.491 -14.860  0.00  0.00    +0.282 C 
BRANCH  10  12
ATOM     11 CL   UNL     1      28.041 -22.440 -15.436  0.00  0.00    -0.082 Cl
ATOM     12  C   UNL     1      32.458 -23.238 -14.998  0.00  0.00    +0.066 C 
ATOM     13  C   UNL     1      31.938 -22.856 -16.235  0.00  0.00    +0.007 C 
ATOM     14  C   UNL     1      31.613 -23.373 -13.898  0.00  0.00    +0.007 C 
ATOM     15  C   UNL     1      30.571 -22.610 -16.370  0.00  0.00    +0.012 C 
ATOM     16  C   UNL     1      30.247 -23.126 -14.033  0.00  0.00    +0.012 C 
ATOM     17  C   UNL     1      29.726 -22.745 -15.269  0.00  0.00    +0.058 C 
ENDBRANCH  10  12
ENDBRANCH   1   4
BRANCH   1  18
ATOM     18  C   UNL     1      35.856 -21.378 -17.664  0.00  0.00    +0.023 C 
BRANCH  18  19
ATOM     19  C   UNL     1      35.682 -21.622 -19.187  0.00  0.00    +0.087 C 
BRANCH  19  20
ATOM     20  N   UNL     1      35.986 -20.383 -20.020  0.00  0.00    -0.246 NA
ATOM     21  N   UNL     1      37.099 -18.636 -20.820  0.00  0.00    -0.251 NA
ATOM     22  C   UNL     1      35.161 -19.805 -20.941  0.00  0.00    +0.125 C 
ATOM     23  C   UNL     1      37.138 -19.648 -19.981  0.00  0.00    +0.201 C 
ATOM     24  C   UNL     1      35.869 -18.728 -21.422  0.00  0.00    +0.124 C 
BRANCH  24  27
ATOM     25  O   UNL     1      35.622 -16.563 -22.316  0.00  0.00    -0.269 OA
ATOM     26  N   UNL     1      34.763 -18.294 -23.549  0.00  0.00    -0.324 N 
ATOM     27  C   UNL     1      35.425 -17.800 -22.415  0.00  0.00    +0.257 C 
ATOM     28  H   UNL     1      34.448 -17.674 -24.246  0.00  0.00    +0.145 HD
ATOM     29  H   UNL     1      34.612 -19.262 -23.647  0.00  0.00    +0.145 HD
ENDBRANCH  24  27
ENDBRANCH  19  20
BRANCH  19  30
ATOM     30  C   UNL     1      34.281 -22.222 -19.485  0.00  0.00    +0.125 C 
ATOM     31  C   UNL     1      33.124 -21.301 -19.112  0.00  0.00    +0.033 C 
BRANCH  30  32
ATOM     32  O   UNL     1      34.117 -23.475 -18.824  0.00  0.00    -0.383 OA
ATOM     33  H   UNL     1      34.179 -24.193 -19.473  0.00  0.00    +0.210 HD
ENDBRANCH  30  32
ENDBRANCH  19  30
ENDBRANCH  18  19
ENDBRANCH   1  18
TORSDOF 8
ENDMDL
MODEL 8
REMARK VINA RESULT:      -9.7      3.559      8.514
REMARK  Name = 46937091
REMARK  8 active torsions:
REMARK  status: ('A' for Active; 'I' for Inactive)
REMARK    1  A    between atoms: C_1  and  C_4
REMARK    2  A    between atoms: C_1  and  C_18
REMARK    3  A    between atoms: C_10  and  C_12
REMARK    4  A    between atoms: C_18  and  C_19
REMARK    5  A    between atoms: C_19  and  N_20
REMARK    6  A    between atoms: C_19  and  C_30
REMARK    7  A    between atoms: C_24  and  C_27
REMARK    8  A    between atoms: C_30  and  O_32
REMARK                            x       y       z     vdW  Elec       q    Type
REMARK                         _______ _______ _______ _____ _____    ______ ____
ROOT
ATOM      1  C   UNL     1      32.612 -22.615 -17.988  0.00  0.00    +0.031 C 
ENDROOT
BRANCH   1   4
ATOM      2  O   UNL     1      35.280 -22.800 -16.504  0.00  0.00    -0.425 OA
ATOM      3  N   UNL     1      37.274 -21.915 -17.116  0.00  0.00    -0.368 NA
ATOM      4  C   UNL     1      33.927 -22.017 -18.419  0.00  0.00    +0.014 C 
ATOM      5  C   UNL     1      35.103 -22.143 -17.688  0.00  0.00    +0.170 C 
ATOM      6  C   UNL     1      34.028 -21.286 -19.607  0.00  0.00    -0.005 C 
ATOM      7  C   UNL     1      36.326 -21.604 -18.060  0.00  0.00    +0.151 C 
ATOM      8  C   UNL     1      35.243 -20.724 -20.018  0.00  0.00    -0.019 C 
ATOM      9  C   UNL     1      36.410 -20.874 -19.254  0.00  0.00    +0.088 C 
ATOM     10  C   UNL     1      36.601 -22.617 -16.231  0.00  0.00    +0.282 C 
BRANCH  10  12
ATOM     11 CL   UNL     1      38.502 -25.114 -11.179  0.00  0.00    -0.082 Cl
ATOM     12  C   UNL     1      37.061 -23.221 -15.011  0.00  0.00    +0.066 C 
ATOM     13  C   UNL     1      36.456 -22.890 -13.798  0.00  0.00    +0.007 C 
ATOM     14  C   UNL     1      38.111 -24.138 -15.038  0.00  0.00    +0.007 C 
ATOM     15  C   UNL     1      36.902 -23.475 -12.614  0.00  0.00    +0.012 C 
ATOM     16  C   UNL     1      38.557 -24.723 -13.853  0.00  0.00    +0.012 C 
ATOM     17  C   UNL     1      37.952 -24.392 -12.641  0.00  0.00    +0.058 C 
ENDBRANCH  10  12
ENDBRANCH   1   4
BRANCH   1  18
ATOM     18  C   UNL     1      32.228 -22.321 -16.527  0.00  0.00    +0.023 C 
BRANCH  18  19
ATOM     19  C   UNL     1      31.408 -23.436 -15.825  0.00  0.00    +0.087 C 
BRANCH  19  20
ATOM     20  N   UNL     1      29.922 -23.369 -16.153  0.00  0.00    -0.246 NA
ATOM     21  N   UNL     1      27.919 -24.005 -16.870  0.00  0.00    -0.251 NA
ATOM     22  C   UNL     1      29.095 -22.303 -15.945  0.00  0.00    +0.125 C 
ATOM     23  C   UNL     1      29.173 -24.368 -16.709  0.00  0.00    +0.201 C 
ATOM     24  C   UNL     1      27.863 -22.719 -16.395  0.00  0.00    +0.124 C 
BRANCH  24  27
ATOM     25  O   UNL     1      25.835 -21.993 -15.442  0.00  0.00    -0.269 OA
ATOM     26  N   UNL     1      26.396 -21.105 -17.480  0.00  0.00    -0.324 N 
ATOM     27  C   UNL     1      26.658 -21.950 -16.391  0.00  0.00    +0.257 C 
ATOM     28  H   UNL     1      25.572 -20.566 -17.499  0.00  0.00    +0.145 HD
ATOM     29  H   UNL     1      27.037 -21.050 -18.225  0.00  0.00    +0.145 HD
ENDBRANCH  24  27
ENDBRANCH  19  20
BRANCH  19  30
ATOM     30  C   UNL     1      31.691 -23.438 -14.298  0.00  0.00    +0.125 C 
ATOM     31  C   UNL     1      33.035 -24.053 -13.922  0.00  0.00    +0.033 C 
BRANCH  30  32
ATOM     32  O   UNL     1      30.652 -24.111 -13.591  0.00  0.00    -0.383 OA
ATOM     33  H   UNL     1      30.044 -23.458 -13.211  0.00  0.00    +0.210 HD
ENDBRANCH  30  32
ENDBRANCH  19  30
ENDBRANCH  18  19
ENDBRANCH   1  18
TORSDOF 8
ENDMDL
MODEL 9
REMARK VINA RESULT:      -9.7      2.593      4.848
REMARK  Name = 46937091
REMARK  8 active torsions:
REMARK  status: ('A' for Active; 'I' for Inactive)
REMARK    1  A    between atoms: C_1  and  C_4
REMARK    2  A    between atoms: C_1  and  C_18
REMARK    3  A    between atoms: C_10  and  C_12
REMARK    4  A    between atoms: C_18  and  C_19
REMARK    5  A    between atoms: C_19  and  N_20
REMARK    6  A    between atoms: C_19  and  C_30
REMARK    7  A    between atoms: C_24  and  C_27
REMARK    8  A    between atoms: C_30  and  O_32
REMARK                            x       y       z     vdW  Elec       q    Type
REMARK                         _______ _______ _______ _____ _____    ______ ____
ROOT
ATOM      1  C   UNL     1      37.266 -22.065 -16.632  0.00  0.00    +0.031 C 
ENDROOT
BRANCH   1   4
ATOM      2  O   UNL     1      34.251 -22.558 -16.780  0.00  0.00    -0.425 OA
ATOM      3  N   UNL     1      32.837 -22.022 -18.467  0.00  0.00    -0.368 NA
ATOM      4  C   UNL     1      36.346 -21.696 -17.768  0.00  0.00    +0.014 C 
ATOM      5  C   UNL     1      34.980 -21.954 -17.764  0.00  0.00    +0.170 C 
ATOM      6  C   UNL     1      36.838 -21.060 -18.912  0.00  0.00    -0.005 C 
ATOM      7  C   UNL     1      34.111 -21.626 -18.795  0.00  0.00    +0.151 C 
ATOM      8  C   UNL     1      35.996 -20.712 -19.975  0.00  0.00    -0.019 C 
ATOM      9  C   UNL     1      34.621 -20.989 -19.934  0.00  0.00    +0.088 C 
ATOM     10  C   UNL     1      32.983 -22.560 -17.277  0.00  0.00    +0.282 C 
BRANCH  10  12
ATOM     11 CL   UNL     1      28.890 -25.016 -13.730  0.00  0.00    -0.082 Cl
ATOM     12  C   UNL     1      31.994 -23.153 -16.420  0.00  0.00    +0.066 C 
ATOM     13  C   UNL     1      32.382 -24.042 -15.418  0.00  0.00    +0.007 C 
ATOM     14  C   UNL     1      30.646 -22.840 -16.589  0.00  0.00    +0.007 C 
ATOM     15  C   UNL     1      31.423 -24.618 -14.586  0.00  0.00    +0.012 C 
ATOM     16  C   UNL     1      29.686 -23.416 -15.758  0.00  0.00    +0.012 C 
ATOM     17  C   UNL     1      30.075 -24.305 -14.756  0.00  0.00    +0.058 C 
ENDBRANCH  10  12
ENDBRANCH   1   4
BRANCH   1  18
ATOM     18  C   UNL     1      36.545 -22.558 -15.365  0.00  0.00    +0.023 C 
BRANCH  18  19
ATOM     19  C   UNL     1      37.476 -23.083 -14.240  0.00  0.00    +0.087 C 
BRANCH  19  20
ATOM     20  N   UNL     1      38.032 -24.470 -14.534  0.00  0.00    -0.246 NA
ATOM     21  N   UNL     1      38.068 -26.643 -14.993  0.00  0.00    -0.251 NA
ATOM     22  C   UNL     1      39.351 -24.814 -14.610  0.00  0.00    +0.125 C 
ATOM     23  C   UNL     1      37.299 -25.599 -14.771  0.00  0.00    +0.201 C 
ATOM     24  C   UNL     1      39.349 -26.159 -14.895  0.00  0.00    +0.124 C 
BRANCH  24  27
ATOM     25  O   UNL     1      41.449 -27.008 -14.247  0.00  0.00    -0.269 OA
ATOM     26  N   UNL     1      40.563 -27.820 -16.200  0.00  0.00    -0.324 N 
ATOM     27  C   UNL     1      40.501 -26.988 -15.072  0.00  0.00    +0.257 C 
ATOM     28  H   UNL     1      41.347 -28.399 -16.343  0.00  0.00    +0.145 HD
ATOM     29  H   UNL     1      39.823 -27.825 -16.849  0.00  0.00    +0.145 HD
ENDBRANCH  24  27
ENDBRANCH  19  20
BRANCH  19  30
ATOM     30  C   UNL     1      36.765 -22.996 -12.862  0.00  0.00    +0.125 C 
ATOM     31  C   UNL     1      37.421 -23.842 -11.776  0.00  0.00    +0.033 C 
BRANCH  30  32
ATOM     32  O   UNL     1      35.391 -23.360 -12.977  0.00  0.00    -0.383 OA
ATOM     33  H   UNL     1      35.293 -24.309 -12.800  0.00  0.00    +0.210 HD
ENDBRANCH  30  32
ENDBRANCH  19  30
ENDBRANCH  18  19
ENDBRANCH   1  18
TORSDOF 8
ENDMDL
