MODEL 1
REMARK VINA RESULT:     -11.9      0.000      0.000
REMARK  Name = 9865515
REMARK  6 active torsions:
REMARK  status: ('A' for Active; 'I' for Inactive)
REMARK    1  A    between atoms: C_1  and  C_20
REMARK    2  A    between atoms: C_2  and  C_9
REMARK    3  A    between atoms: N_8  and  C_11
REMARK    4  A    between atoms: C_12  and  N_17
REMARK    5  A    between atoms: C_20  and  N_21
REMARK    6  A    between atoms: C_25  and  C_30
REMARK                            x       y       z     vdW  Elec       q    Type
REMARK                         _______ _______ _______ _____ _____    ______ ____
ROOT
ATOM      1  C   UNL     1      34.162 -23.397 -16.025  0.00  0.00    -0.002 C 
ATOM      2  C   UNL     1      34.042 -21.817 -18.321  0.00  0.00    +0.054 C 
ATOM      3  C   UNL     1      32.938 -23.179 -16.659  0.00  0.00    -0.002 C 
ATOM      4  C   UNL     1      35.325 -22.825 -16.539  0.00  0.00    -0.002 C 
ATOM      5  C   UNL     1      32.878 -22.388 -17.806  0.00  0.00    +0.004 C 
ATOM      6  C   UNL     1      35.265 -22.035 -17.687  0.00  0.00    +0.004 C 
ENDROOT
BRANCH   2   9
ATOM      7  O   UNL     1      32.880 -20.806 -20.064  0.00  0.00    -0.270 OA
ATOM      8  N   UNL     1      35.194 -20.440 -19.944  0.00  0.00    -0.279 N 
ATOM      9  C   UNL     1      33.978 -20.991 -19.517  0.00  0.00    +0.250 C 
ATOM     10  H   UNL     1      35.984 -20.679 -19.408  0.00  0.00    +0.155 HD
BRANCH   8  11
ATOM     11  C   UNL     1      35.434 -19.586 -21.049  0.00  0.00    +0.064 C 
ATOM     12  C   UNL     1      36.589 -18.823 -21.104  0.00  0.00    +0.055 C 
ATOM     13  C   UNL     1      34.488 -19.537 -22.059  0.00  0.00    +0.016 C 
ATOM     14  C   UNL     1      36.803 -17.988 -22.202  0.00  0.00    +0.015 C 
ATOM     15  C   UNL     1      34.702 -18.702 -23.156  0.00  0.00    +0.001 C 
ATOM     16  C   UNL     1      35.860 -17.927 -23.227  0.00  0.00    +0.001 C 
BRANCH  12  17
ATOM     17  N   UNL     1      37.558 -18.869 -20.078  0.00  0.00    -0.356 N 
ATOM     18  H   UNL     1      37.277 -18.956 -19.139  0.00  0.00    +0.142 HD
ATOM     19  H   UNL     1      38.516 -18.815 -20.302  0.00  0.00    +0.142 HD
ENDBRANCH  12  17
ENDBRANCH   8  11
ENDBRANCH   2   9
BRANCH   1  20
ATOM     20  C   UNL     1      34.227 -24.243 -14.798  0.00  0.00    +0.124 C 
BRANCH  20  21
ATOM     21  N   UNL     1      34.743 -23.489 -13.676  0.00  0.00    -0.264 N 
ATOM     22  N   UNL     1      36.850 -24.514 -13.815  0.00  0.00    -0.338 NA
ATOM     23  N   UNL     1      36.391 -22.851 -12.133  0.00  0.00    -0.170 NA
ATOM     24  C   UNL     1      36.034 -23.623 -13.194  0.00  0.00    +0.145 C 
ATOM     25  C   UNL     1      38.100 -24.618 -13.319  0.00  0.00    +0.147 C 
ATOM     26  C   UNL     1      38.563 -23.883 -12.246  0.00  0.00    +0.055 C 
ATOM     27  C   UNL     1      37.656 -23.007 -11.687  0.00  0.00    +0.114 C 
ATOM     28  H   UNL     1      34.144 -22.846 -13.233  0.00  0.00    +0.160 HD
BRANCH  25  30
ATOM     29  N   UNL     1      41.166 -26.470 -14.348  0.00  0.00    -0.242 NA
ATOM     30  C   UNL     1      38.951 -25.570 -13.993  0.00  0.00    +0.050 C 
ATOM     31  C   UNL     1      38.427 -26.479 -14.907  0.00  0.00    +0.006 C 
ATOM     32  C   UNL     1      40.314 -25.607 -13.751  0.00  0.00    +0.101 C 
ATOM     33  C   UNL     1      39.272 -27.383 -15.542  0.00  0.00    +0.021 C 
ATOM     34  C   UNL     1      40.621 -27.338 -15.230  0.00  0.00    +0.099 C 
ENDBRANCH  25  30
ENDBRANCH  20  21
ENDBRANCH   1  20
TORSDOF 6
ENDMDL
MODEL 2
REMARK VINA RESULT:     -11.7      3.764      6.428
REMARK  Name = 9865515
REMARK  6 active torsions:
REMARK  status: ('A' for Active; 'I' for Inactive)
REMARK    1  A    between atoms: C_1  and  C_20
REMARK    2  A    between atoms: C_2  and  C_9
REMARK    3  A    between atoms: N_8  and  C_11
REMARK    4  A    between atoms: C_12  and  N_17
REMARK    5  A    between atoms: C_20  and  N_21
REMARK    6  A    between atoms: C_25  and  C_30
REMARK                            x       y       z     vdW  Elec       q    Type
REMARK                         _______ _______ _______ _____ _____    ______ ____
ROOT
ATOM      1  C   UNL     1      35.274 -19.443 -21.222  0.00  0.00    -0.002 C 
ATOM      2  C   UNL     1      35.123 -17.341 -23.050  0.00  0.00    +0.054 C 
ATOM      3  C   UNL     1      34.630 -19.627 -22.446  0.00  0.00    -0.002 C 
ATOM      4  C   UNL     1      35.841 -18.207 -20.912  0.00  0.00    -0.002 C 
ATOM      5  C   UNL     1      34.554 -18.576 -23.360  0.00  0.00    +0.004 C 
ATOM      6  C   UNL     1      35.766 -17.156 -21.826  0.00  0.00    +0.004 C 
ENDROOT
BRANCH   2   9
ATOM      7  O   UNL     1      35.517 -16.395 -25.138  0.00  0.00    -0.270 OA
ATOM      8  N   UNL     1      34.392 -15.087 -23.548  0.00  0.00    -0.279 N 
ATOM      9  C   UNL     1      35.041 -16.244 -24.002  0.00  0.00    +0.250 C 
ATOM     10  H   UNL     1      34.068 -15.115 -22.619  0.00  0.00    +0.155 HD
BRANCH   8  11
ATOM     11  C   UNL     1      34.143 -13.883 -24.252  0.00  0.00    +0.064 C 
ATOM     12  C   UNL     1      33.449 -13.904 -25.450  0.00  0.00    +0.055 C 
ATOM     13  C   UNL     1      34.612 -12.696 -23.710  0.00  0.00    +0.016 C 
ATOM     14  C   UNL     1      33.217 -12.705 -26.126  0.00  0.00    +0.015 C 
ATOM     15  C   UNL     1      34.380 -11.499 -24.385  0.00  0.00    +0.001 C 
ATOM     16  C   UNL     1      33.682 -11.503 -25.594  0.00  0.00    +0.001 C 
BRANCH  12  17
ATOM     17  N   UNL     1      32.968 -15.109 -26.007  0.00  0.00    -0.356 N 
ATOM     18  H   UNL     1      33.447 -15.532 -26.756  0.00  0.00    +0.142 HD
ATOM     19  H   UNL     1      32.153 -15.528 -25.645  0.00  0.00    +0.142 HD
ENDBRANCH  12  17
ENDBRANCH   8  11
ENDBRANCH   2   9
BRANCH   1  20
ATOM     20  C   UNL     1      35.357 -20.567 -20.245  0.00  0.00    +0.124 C 
BRANCH  20  21
ATOM     21  N   UNL     1      34.039 -20.956 -19.792  0.00  0.00    -0.264 N 
ATOM     22  N   UNL     1      34.893 -22.055 -17.902  0.00  0.00    -0.338 NA
ATOM     23  N   UNL     1      32.522 -21.986 -18.327  0.00  0.00    -0.170 NA
ATOM     24  C   UNL     1      33.811 -21.688 -18.638  0.00  0.00    +0.145 C 
ATOM     25  C   UNL     1      34.635 -22.766 -16.785  0.00  0.00    +0.147 C 
ATOM     26  C   UNL     1      33.364 -23.122 -16.379  0.00  0.00    +0.055 C 
ATOM     27  C   UNL     1      32.336 -22.700 -17.197  0.00  0.00    +0.114 C 
ATOM     28  H   UNL     1      33.262 -20.685 -20.332  0.00  0.00    +0.160 HD
BRANCH  25  30
ATOM     29  N   UNL     1      38.105 -22.740 -15.428  0.00  0.00    -0.242 NA
ATOM     30  C   UNL     1      35.796 -23.146 -16.017  0.00  0.00    +0.050 C 
ATOM     31  C   UNL     1      35.760 -24.236 -15.153  0.00  0.00    +0.006 C 
ATOM     32  C   UNL     1      36.983 -22.437 -16.117  0.00  0.00    +0.101 C 
ATOM     33  C   UNL     1      36.895 -24.578 -14.427  0.00  0.00    +0.021 C 
ATOM     34  C   UNL     1      38.033 -23.805 -14.598  0.00  0.00    +0.099 C 
ENDBRANCH  25  30
ENDBRANCH  20  21
ENDBRANCH   1  20
TORSDOF 6
ENDMDL
MODEL 3
REMARK VINA RESULT:     -11.6      7.679     11.758
REMARK  Name = 9865515
REMARK  6 active torsions:
REMARK  status: ('A' for Active; 'I' for Inactive)
REMARK    1  A    between atoms: C_1  and  C_20
REMARK    2  A    between atoms: C_2  and  C_9
REMARK    3  A    between atoms: N_8  and  C_11
REMARK    4  A    between atoms: C_12  and  N_17
REMARK    5  A    between atoms: C_20  and  N_21
REMARK    6  A    between atoms: C_25  and  C_30
REMARK                            x       y       z     vdW  Elec       q    Type
REMARK                         _______ _______ _______ _____ _____    ______ ____
ROOT
ATOM      1  C   UNL     1      34.125 -13.635 -21.849  0.00  0.00    -0.002 C 
ATOM      2  C   UNL     1      32.632 -11.280 -21.937  0.00  0.00    +0.054 C 
ATOM      3  C   UNL     1      33.211 -13.350 -20.834  0.00  0.00    -0.002 C 
ATOM      4  C   UNL     1      34.292 -12.743 -22.907  0.00  0.00    -0.002 C 
ATOM      5  C   UNL     1      32.465 -12.172 -20.878  0.00  0.00    +0.004 C 
ATOM      6  C   UNL     1      33.546 -11.565 -22.952  0.00  0.00    +0.004 C 
ENDROOT
BRANCH   2   9
ATOM      7  O   UNL     1      30.617 -10.119 -21.966  0.00  0.00    -0.270 OA
ATOM      8  N   UNL     1      32.597  -8.861 -22.014  0.00  0.00    -0.279 N 
ATOM      9  C   UNL     1      31.856 -10.050 -21.982  0.00  0.00    +0.250 C 
ATOM     10  H   UNL     1      33.575  -8.966 -22.024  0.00  0.00    +0.155 HD
BRANCH   8  11
ATOM     11  C   UNL     1      32.120  -7.526 -22.036  0.00  0.00    +0.064 C 
ATOM     12  C   UNL     1      32.066  -6.784 -20.867  0.00  0.00    +0.055 C 
ATOM     13  C   UNL     1      31.713  -6.994 -23.248  0.00  0.00    +0.016 C 
ATOM     14  C   UNL     1      31.592  -5.473 -20.913  0.00  0.00    +0.015 C 
ATOM     15  C   UNL     1      31.239  -5.683 -23.294  0.00  0.00    +0.001 C 
ATOM     16  C   UNL     1      31.178  -4.922 -22.126  0.00  0.00    +0.001 C 
BRANCH  12  17
ATOM     17  N   UNL     1      32.480  -7.321 -19.629  0.00  0.00    -0.356 N 
ATOM     18  H   UNL     1      33.429  -7.286 -19.369  0.00  0.00    +0.142 HD
ATOM     19  H   UNL     1      31.820  -7.731 -19.023  0.00  0.00    +0.142 HD
ENDBRANCH  12  17
ENDBRANCH   8  11
ENDBRANCH   2   9
BRANCH   1  20
ATOM     20  C   UNL     1      34.922 -14.896 -21.803  0.00  0.00    +0.124 C 
BRANCH  20  21
ATOM     21  N   UNL     1      34.977 -15.519 -23.108  0.00  0.00    -0.264 N 
ATOM     22  N   UNL     1      34.921 -17.682 -22.198  0.00  0.00    -0.338 NA
ATOM     23  N   UNL     1      35.032 -17.344 -24.581  0.00  0.00    -0.170 NA
ATOM     24  C   UNL     1      34.977 -16.890 -23.301  0.00  0.00    +0.145 C 
ATOM     25  C   UNL     1      34.922 -19.012 -22.423  0.00  0.00    +0.147 C 
ATOM     26  C   UNL     1      34.976 -19.576 -23.681  0.00  0.00    +0.055 C 
ATOM     27  C   UNL     1      35.030 -18.686 -24.734  0.00  0.00    +0.114 C 
ATOM     28  H   UNL     1      35.017 -14.937 -23.900  0.00  0.00    +0.160 HD
BRANCH  25  30
ATOM     29  N   UNL     1      36.032 -21.061 -19.516  0.00  0.00    -0.242 NA
ATOM     30  C   UNL     1      34.862 -19.835 -21.239  0.00  0.00    +0.050 C 
ATOM     31  C   UNL     1      33.642 -20.199 -20.679  0.00  0.00    +0.006 C 
ATOM     32  C   UNL     1      36.018 -20.288 -20.624  0.00  0.00    +0.101 C 
ATOM     33  C   UNL     1      33.616 -20.994 -19.539  0.00  0.00    +0.021 C 
ATOM     34  C   UNL     1      34.828 -21.395 -19.000  0.00  0.00    +0.099 C 
ENDBRANCH  25  30
ENDBRANCH  20  21
ENDBRANCH   1  20
TORSDOF 6
ENDMDL
MODEL 4
REMARK VINA RESULT:     -11.4      2.964      4.810
REMARK  Name = 9865515
REMARK  6 active torsions:
REMARK  status: ('A' for Active; 'I' for Inactive)
REMARK    1  A    between atoms: C_1  and  C_20
REMARK    2  A    between atoms: C_2  and  C_9
REMARK    3  A    between atoms: N_8  and  C_11
REMARK    4  A    between atoms: C_12  and  N_17
REMARK    5  A    between atoms: C_20  and  N_21
REMARK    6  A    between atoms: C_25  and  C_30
REMARK                            x       y       z     vdW  Elec       q    Type
REMARK                         _______ _______ _______ _____ _____    ______ ____
ROOT
ATOM      1  C   UNL     1      35.703 -20.597 -19.910  0.00  0.00    -0.002 C 
ATOM      2  C   UNL     1      35.529 -18.533 -21.778  0.00  0.00    +0.054 C 
ATOM      3  C   UNL     1      34.477 -20.293 -20.501  0.00  0.00    -0.002 C 
ATOM      4  C   UNL     1      36.842 -19.869 -20.252  0.00  0.00    -0.002 C 
ATOM      5  C   UNL     1      34.390 -19.260 -21.434  0.00  0.00    +0.004 C 
ATOM      6  C   UNL     1      36.755 -18.837 -21.186  0.00  0.00    +0.004 C 
ENDROOT
BRANCH   2   9
ATOM      7  O   UNL     1      35.901 -17.627 -23.888  0.00  0.00    -0.270 OA
ATOM      8  N   UNL     1      34.794 -16.289 -22.311  0.00  0.00    -0.279 N 
ATOM      9  C   UNL     1      35.438 -17.454 -22.749  0.00  0.00    +0.250 C 
ATOM     10  H   UNL     1      34.479 -16.299 -21.378  0.00  0.00    +0.155 HD
BRANCH   8  11
ATOM     11  C   UNL     1      34.537 -15.098 -23.035  0.00  0.00    +0.064 C 
ATOM     12  C   UNL     1      34.563 -13.870 -22.393  0.00  0.00    +0.055 C 
ATOM     13  C   UNL     1      34.262 -15.199 -24.389  0.00  0.00    +0.016 C 
ATOM     14  C   UNL     1      34.307 -12.712 -23.127  0.00  0.00    +0.015 C 
ATOM     15  C   UNL     1      34.006 -14.040 -25.122  0.00  0.00    +0.001 C 
ATOM     16  C   UNL     1      34.028 -12.796 -24.491  0.00  0.00    +0.001 C 
BRANCH  12  17
ATOM     17  N   UNL     1      34.844 -13.761 -21.014  0.00  0.00    -0.356 N 
ATOM     18  H   UNL     1      35.677 -14.138 -20.649  0.00  0.00    +0.142 HD
ATOM     19  H   UNL     1      34.206 -13.307 -20.416  0.00  0.00    +0.142 HD
ENDBRANCH  12  17
ENDBRANCH   8  11
ENDBRANCH   2   9
BRANCH   1  20
ATOM     20  C   UNL     1      35.798 -21.703 -18.912  0.00  0.00    +0.124 C 
BRANCH  20  21
ATOM     21  N   UNL     1      34.502 -21.989 -18.334  0.00  0.00    -0.264 N 
ATOM     22  N   UNL     1      35.447 -23.063 -16.474  0.00  0.00    -0.338 NA
ATOM     23  N   UNL     1      33.058 -22.861 -16.704  0.00  0.00    -0.170 NA
ATOM     24  C   UNL     1      34.331 -22.658 -17.134  0.00  0.00    +0.145 C 
ATOM     25  C   UNL     1      35.244 -23.711 -15.309  0.00  0.00    +0.147 C 
ATOM     26  C   UNL     1      33.994 -23.969 -14.783  0.00  0.00    +0.055 C 
ATOM     27  C   UNL     1      32.926 -23.517 -15.531  0.00  0.00    +0.114 C 
ATOM     28  H   UNL     1      33.700 -21.691 -18.820  0.00  0.00    +0.160 HD
BRANCH  25  30
ATOM     29  N   UNL     1      38.208 -23.627 -13.051  0.00  0.00    -0.242 NA
ATOM     30  C   UNL     1      36.442 -24.133 -14.623  0.00  0.00    +0.050 C 
ATOM     31  C   UNL     1      36.989 -25.393 -14.842  0.00  0.00    +0.006 C 
ATOM     32  C   UNL     1      37.084 -23.295 -13.725  0.00  0.00    +0.101 C 
ATOM     33  C   UNL     1      38.144 -25.770 -14.167  0.00  0.00    +0.021 C 
ATOM     34  C   UNL     1      38.710 -24.859 -13.290  0.00  0.00    +0.099 C 
ENDBRANCH  25  30
ENDBRANCH  20  21
ENDBRANCH   1  20
TORSDOF 6
ENDMDL
MODEL 5
REMARK VINA RESULT:     -11.3      2.415      4.007
REMARK  Name = 9865515
REMARK  6 active torsions:
REMARK  status: ('A' for Active; 'I' for Inactive)
REMARK    1  A    between atoms: C_1  and  C_20
REMARK    2  A    between atoms: C_2  and  C_9
REMARK    3  A    between atoms: N_8  and  C_11
REMARK    4  A    between atoms: C_12  and  N_17
REMARK    5  A    between atoms: C_20  and  N_21
REMARK    6  A    between atoms: C_25  and  C_30
REMARK                            x       y       z     vdW  Elec       q    Type
REMARK                         _______ _______ _______ _____ _____    ______ ____
ROOT
ATOM      1  C   UNL     1      34.297 -22.277 -18.691  0.00  0.00    -0.002 C 
ATOM      2  C   UNL     1      35.214 -20.117 -20.199  0.00  0.00    +0.054 C 
ATOM      3  C   UNL     1      33.393 -21.495 -19.412  0.00  0.00    -0.002 C 
ATOM      4  C   UNL     1      35.658 -21.978 -18.725  0.00  0.00    -0.002 C 
ATOM      5  C   UNL     1      33.851 -20.414 -20.165  0.00  0.00    +0.004 C 
ATOM      6  C   UNL     1      36.117 -20.898 -19.479  0.00  0.00    +0.004 C 
ENDROOT
BRANCH   2   9
ATOM      7  O   UNL     1      36.883 -18.651 -20.891  0.00  0.00    -0.270 OA
ATOM      8  N   UNL     1      34.744 -18.377 -21.815  0.00  0.00    -0.279 N 
ATOM      9  C   UNL     1      35.691 -18.988 -20.983  0.00  0.00    +0.250 C 
ATOM     10  H   UNL     1      33.836 -18.755 -21.779  0.00  0.00    +0.155 HD
BRANCH   8  11
ATOM     11  C   UNL     1      34.923 -17.285 -22.701  0.00  0.00    +0.064 C 
ATOM     12  C   UNL     1      34.940 -17.492 -24.071  0.00  0.00    +0.055 C 
ATOM     13  C   UNL     1      35.080 -16.019 -22.161  0.00  0.00    +0.016 C 
ATOM     14  C   UNL     1      35.118 -16.402 -24.923  0.00  0.00    +0.015 C 
ATOM     15  C   UNL     1      35.259 -14.930 -23.013  0.00  0.00    +0.001 C 
ATOM     16  C   UNL     1      35.278 -15.121 -24.395  0.00  0.00    +0.001 C 
BRANCH  12  17
ATOM     17  N   UNL     1      34.779 -18.780 -24.628  0.00  0.00    -0.356 N 
ATOM     18  H   UNL     1      34.169 -19.426 -24.205  0.00  0.00    +0.142 HD
ATOM     19  H   UNL     1      35.276 -19.031 -25.440  0.00  0.00    +0.142 HD
ENDBRANCH  12  17
ENDBRANCH   8  11
ENDBRANCH   2   9
BRANCH   1  20
ATOM     20  C   UNL     1      33.807 -23.434 -17.887  0.00  0.00    +0.124 C 
BRANCH  20  21
ATOM     21  N   UNL     1      32.738 -23.031 -16.999  0.00  0.00    -0.264 N 
ATOM     22  N   UNL     1      33.911 -23.726 -15.089  0.00  0.00    -0.338 NA
ATOM     23  N   UNL     1      31.715 -22.753 -14.906  0.00  0.00    -0.170 NA
ATOM     24  C   UNL     1      32.790 -23.174 -15.623  0.00  0.00    +0.145 C 
ATOM     25  C   UNL     1      33.928 -23.851 -13.747  0.00  0.00    +0.147 C 
ATOM     26  C   UNL     1      32.891 -23.456 -12.927  0.00  0.00    +0.055 C 
ATOM     27  C   UNL     1      31.798 -22.908 -13.567  0.00  0.00    +0.114 C 
ATOM     28  H   UNL     1      31.930 -22.632 -17.396  0.00  0.00    +0.160 HD
BRANCH  25  30
ATOM     29  N   UNL     1      36.436 -25.031 -11.255  0.00  0.00    -0.242 NA
ATOM     30  C   UNL     1      35.128 -24.438 -13.200  0.00  0.00    +0.050 C 
ATOM     31  C   UNL     1      36.113 -24.964 -14.030  0.00  0.00    +0.006 C 
ATOM     32  C   UNL     1      35.336 -24.496 -11.831  0.00  0.00    +0.101 C 
ATOM     33  C   UNL     1      37.258 -25.523 -13.475  0.00  0.00    +0.021 C 
ATOM     34  C   UNL     1      37.370 -25.532 -12.093  0.00  0.00    +0.099 C 
ENDBRANCH  25  30
ENDBRANCH  20  21
ENDBRANCH   1  20
TORSDOF 6
ENDMDL
MODEL 6
REMARK VINA RESULT:     -11.2      7.552     14.566
REMARK  Name = 9865515
REMARK  6 active torsions:
REMARK  status: ('A' for Active; 'I' for Inactive)
REMARK    1  A    between atoms: C_1  and  C_20
REMARK    2  A    between atoms: C_2  and  C_9
REMARK    3  A    between atoms: N_8  and  C_11
REMARK    4  A    between atoms: C_12  and  N_17
REMARK    5  A    between atoms: C_20  and  N_21
REMARK    6  A    between atoms: C_25  and  C_30
REMARK                            x       y       z     vdW  Elec       q    Type
REMARK                         _______ _______ _______ _____ _____    ______ ____
ROOT
ATOM      1  C   UNL     1      34.125 -13.576 -23.459  0.00  0.00    -0.002 C 
ATOM      2  C   UNL     1      35.038 -16.127 -22.796  0.00  0.00    +0.054 C 
ATOM      3  C   UNL     1      34.514 -13.860 -22.150  0.00  0.00    -0.002 C 
ATOM      4  C   UNL     1      34.193 -14.568 -24.437  0.00  0.00    -0.002 C 
ATOM      5  C   UNL     1      34.969 -15.135 -21.818  0.00  0.00    +0.004 C 
ATOM      6  C   UNL     1      34.649 -15.844 -24.106  0.00  0.00    +0.004 C 
ENDROOT
BRANCH   2   9
ATOM      7  O   UNL     1      36.309 -18.031 -23.208  0.00  0.00    -0.270 OA
ATOM      8  N   UNL     1      35.028 -17.984 -21.243  0.00  0.00    -0.279 N 
ATOM      9  C   UNL     1      35.510 -17.459 -22.450  0.00  0.00    +0.250 C 
ATOM     10  H   UNL     1      34.398 -17.412 -20.749  0.00  0.00    +0.155 HD
BRANCH   8  11
ATOM     11  C   UNL     1      35.329 -19.231 -20.642  0.00  0.00    +0.064 C 
ATOM     12  C   UNL     1      36.628 -19.528 -20.261  0.00  0.00    +0.055 C 
ATOM     13  C   UNL     1      34.297 -20.136 -20.452  0.00  0.00    +0.016 C 
ATOM     14  C   UNL     1      36.900 -20.763 -19.671  0.00  0.00    +0.015 C 
ATOM     15  C   UNL     1      34.570 -21.370 -19.863  0.00  0.00    +0.001 C 
ATOM     16  C   UNL     1      35.872 -21.684 -19.473  0.00  0.00    +0.001 C 
BRANCH  12  17
ATOM     17  N   UNL     1      37.684 -18.611 -20.451  0.00  0.00    -0.356 N 
ATOM     18  H   UNL     1      38.104 -18.175 -19.674  0.00  0.00    +0.142 HD
ATOM     19  H   UNL     1      38.002 -18.406 -21.360  0.00  0.00    +0.142 HD
ENDBRANCH  12  17
ENDBRANCH   8  11
ENDBRANCH   2   9
BRANCH   1  20
ATOM     20  C   UNL     1      33.639 -12.211 -23.815  0.00  0.00    +0.124 C 
BRANCH  20  21
ATOM     21  N   UNL     1      34.646 -11.481 -24.555  0.00  0.00    -0.264 N 
ATOM     22  N   UNL     1      34.095  -9.450 -23.517  0.00  0.00    -0.338 NA
ATOM     23  N   UNL     1      35.848  -9.560 -25.166  0.00  0.00    -0.170 NA
ATOM     24  C   UNL     1      34.869 -10.122 -24.408  0.00  0.00    +0.145 C 
ATOM     25  C   UNL     1      34.339  -8.129 -23.398  0.00  0.00    +0.147 C 
ATOM     26  C   UNL     1      35.308  -7.461 -24.120  0.00  0.00    +0.055 C 
ATOM     27  C   UNL     1      36.039  -8.235 -24.997  0.00  0.00    +0.114 C 
ATOM     28  H   UNL     1      35.202 -11.977 -25.198  0.00  0.00    +0.160 HD
BRANCH  25  30
ATOM     29  N   UNL     1      32.014  -7.533 -20.548  0.00  0.00    -0.242 NA
ATOM     30  C   UNL     1      33.506  -7.433 -22.446  0.00  0.00    +0.050 C 
ATOM     31  C   UNL     1      33.377  -6.048 -22.484  0.00  0.00    +0.006 C 
ATOM     32  C   UNL     1      32.811  -8.122 -21.466  0.00  0.00    +0.101 C 
ATOM     33  C   UNL     1      32.566  -5.406 -21.555  0.00  0.00    +0.021 C 
ATOM     34  C   UNL     1      31.912  -6.187 -20.615  0.00  0.00    +0.099 C 
ENDBRANCH  25  30
ENDBRANCH  20  21
ENDBRANCH   1  20
TORSDOF 6
ENDMDL
MODEL 7
REMARK VINA RESULT:     -11.2      4.352     10.989
REMARK  Name = 9865515
REMARK  6 active torsions:
REMARK  status: ('A' for Active; 'I' for Inactive)
REMARK    1  A    between atoms: C_1  and  C_20
REMARK    2  A    between atoms: C_2  and  C_9
REMARK    3  A    between atoms: N_8  and  C_11
REMARK    4  A    between atoms: C_12  and  N_17
REMARK    5  A    between atoms: C_20  and  N_21
REMARK    6  A    between atoms: C_25  and  C_30
REMARK                            x       y       z     vdW  Elec       q    Type
REMARK                         _______ _______ _______ _____ _____    ______ ____
ROOT
ATOM      1  C   UNL     1      35.736 -20.087 -20.158  0.00  0.00    -0.002 C 
ATOM      2  C   UNL     1      34.352 -21.993 -18.664  0.00  0.00    +0.054 C 
ATOM      3  C   UNL     1      36.427 -20.917 -19.276  0.00  0.00    -0.002 C 
ATOM      4  C   UNL     1      34.354 -20.210 -20.294  0.00  0.00    -0.002 C 
ATOM      5  C   UNL     1      35.735 -21.869 -18.528  0.00  0.00    +0.004 C 
ATOM      6  C   UNL     1      33.662 -21.163 -19.547  0.00  0.00    +0.004 C 
ENDROOT
BRANCH   2   9
ATOM      7  O   UNL     1      33.594 -24.159 -18.283  0.00  0.00    -0.270 OA
ATOM      8  N   UNL     1      33.042 -22.520 -16.698  0.00  0.00    -0.279 N 
ATOM      9  C   UNL     1      33.630 -22.985 -17.882  0.00  0.00    +0.250 C 
ATOM     10  H   UNL     1      33.155 -21.560 -16.513  0.00  0.00    +0.155 HD
BRANCH   8  11
ATOM     11  C   UNL     1      32.306 -23.252 -15.734  0.00  0.00    +0.064 C 
ATOM     12  C   UNL     1      30.921 -23.246 -15.759  0.00  0.00    +0.055 C 
ATOM     13  C   UNL     1      33.007 -23.965 -14.774  0.00  0.00    +0.016 C 
ATOM     14  C   UNL     1      30.218 -23.974 -14.798  0.00  0.00    +0.015 C 
ATOM     15  C   UNL     1      32.304 -24.692 -13.815  0.00  0.00    +0.001 C 
ATOM     16  C   UNL     1      30.909 -24.697 -13.826  0.00  0.00    +0.001 C 
BRANCH  12  17
ATOM     17  N   UNL     1      30.201 -22.523 -16.734  0.00  0.00    -0.356 N 
ATOM     18  H   UNL     1      29.296 -22.812 -16.994  0.00  0.00    +0.142 HD
ATOM     19  H   UNL     1      30.603 -21.728 -17.156  0.00  0.00    +0.142 HD
ENDBRANCH  12  17
ENDBRANCH   8  11
ENDBRANCH   2   9
BRANCH   1  20
ATOM     20  C   UNL     1      36.476 -19.069 -20.960  0.00  0.00    +0.124 C 
BRANCH  20  21
ATOM     21  N   UNL     1      36.205 -19.226 -22.372  0.00  0.00    -0.264 N 
ATOM     22  N   UNL     1      35.293 -17.072 -22.550  0.00  0.00    -0.338 NA
ATOM     23  N   UNL     1      35.425 -18.522 -24.470  0.00  0.00    -0.170 NA
ATOM     24  C   UNL     1      35.623 -18.243 -23.154  0.00  0.00    +0.145 C 
ATOM     25  C   UNL     1      34.728 -16.137 -23.341  0.00  0.00    +0.147 C 
ATOM     26  C   UNL     1      34.482 -16.318 -24.687  0.00  0.00    +0.055 C 
ATOM     27  C   UNL     1      34.855 -17.542 -25.203  0.00  0.00    +0.114 C 
ATOM     28  H   UNL     1      36.449 -20.079 -22.800  0.00  0.00    +0.160 HD
BRANCH  25  30
ATOM     29  N   UNL     1      33.446 -12.676 -22.820  0.00  0.00    -0.242 NA
ATOM     30  C   UNL     1      34.384 -14.900 -22.681  0.00  0.00    +0.050 C 
ATOM     31  C   UNL     1      34.639 -14.715 -21.326  0.00  0.00    +0.006 C 
ATOM     32  C   UNL     1      33.791 -13.859 -23.376  0.00  0.00    +0.101 C 
ATOM     33  C   UNL     1      34.298 -13.512 -20.717  0.00  0.00    +0.021 C 
ATOM     34  C   UNL     1      33.709 -12.533 -21.501  0.00  0.00    +0.099 C 
ENDBRANCH  25  30
ENDBRANCH  20  21
ENDBRANCH   1  20
TORSDOF 6
ENDMDL
MODEL 8
REMARK VINA RESULT:     -11.1      6.519     10.928
REMARK  Name = 9865515
REMARK  6 active torsions:
REMARK  status: ('A' for Active; 'I' for Inactive)
REMARK    1  A    between atoms: C_1  and  C_20
REMARK    2  A    between atoms: C_2  and  C_9
REMARK    3  A    between atoms: N_8  and  C_11
REMARK    4  A    between atoms: C_12  and  N_17
REMARK    5  A    between atoms: C_20  and  N_21
REMARK    6  A    between atoms: C_25  and  C_30
REMARK                            x       y       z     vdW  Elec       q    Type
REMARK                         _______ _______ _______ _____ _____    ______ ____
ROOT
ATOM      1  C   UNL     1      34.441 -15.303 -24.014  0.00  0.00    -0.002 C 
ATOM      2  C   UNL     1      34.059 -12.571 -24.429  0.00  0.00    +0.054 C 
ATOM      3  C   UNL     1      34.867 -14.385 -23.054  0.00  0.00    -0.002 C 
ATOM      4  C   UNL     1      33.824 -14.855 -25.181  0.00  0.00    -0.002 C 
ATOM      5  C   UNL     1      34.677 -13.019 -23.261  0.00  0.00    +0.004 C 
ATOM      6  C   UNL     1      33.633 -13.489 -25.389  0.00  0.00    +0.004 C 
ENDROOT
BRANCH   2   9
ATOM      7  O   UNL     1      33.286 -10.768 -25.679  0.00  0.00    -0.270 OA
ATOM      8  N   UNL     1      34.334 -10.302 -23.632  0.00  0.00    -0.279 N 
ATOM      9  C   UNL     1      33.863 -11.146 -24.647  0.00  0.00    +0.250 C 
ATOM     10  H   UNL     1      34.772 -10.749 -22.873  0.00  0.00    +0.155 HD
BRANCH   8  11
ATOM     11  C   UNL     1      34.262  -8.889 -23.558  0.00  0.00    +0.064 C 
ATOM     12  C   UNL     1      33.125  -8.272 -23.063  0.00  0.00    +0.055 C 
ATOM     13  C   UNL     1      35.351  -8.151 -23.992  0.00  0.00    +0.016 C 
ATOM     14  C   UNL     1      33.076  -6.879 -23.000  0.00  0.00    +0.015 C 
ATOM     15  C   UNL     1      35.303  -6.759 -23.929  0.00  0.00    +0.001 C 
ATOM     16  C   UNL     1      34.165  -6.123 -23.433  0.00  0.00    +0.001 C 
BRANCH  12  17
ATOM     17  N   UNL     1      32.011  -9.018 -22.618  0.00  0.00    -0.356 N 
ATOM     18  H   UNL     1      31.872  -9.167 -21.655  0.00  0.00    +0.142 HD
ATOM     19  H   UNL     1      31.374  -9.388 -23.271  0.00  0.00    +0.142 HD
ENDBRANCH  12  17
ENDBRANCH   8  11
ENDBRANCH   2   9
BRANCH   1  20
ATOM     20  C   UNL     1      34.643 -16.765 -23.791  0.00  0.00    +0.124 C 
BRANCH  20  21
ATOM     21  N   UNL     1      36.020 -17.050 -23.452  0.00  0.00    -0.264 N 
ATOM     22  N   UNL     1      35.408 -18.630 -21.828  0.00  0.00    -0.338 NA
ATOM     23  N   UNL     1      37.726 -18.141 -22.267  0.00  0.00    -0.170 NA
ATOM     24  C   UNL     1      36.396 -17.969 -22.486  0.00  0.00    +0.145 C 
ATOM     25  C   UNL     1      35.810 -19.517 -20.895  0.00  0.00    +0.147 C 
ATOM     26  C   UNL     1      37.133 -19.767 -20.594  0.00  0.00    +0.055 C 
ATOM     27  C   UNL     1      38.058 -19.043 -21.319  0.00  0.00    +0.114 C 
ATOM     28  H   UNL     1      36.728 -16.566 -23.935  0.00  0.00    +0.160 HD
BRANCH  25  30
ATOM     29  N   UNL     1      32.379 -20.457 -19.785  0.00  0.00    -0.242 NA
ATOM     30  C   UNL     1      34.746 -20.209 -20.207  0.00  0.00    +0.050 C 
ATOM     31  C   UNL     1      35.018 -21.256 -19.333  0.00  0.00    +0.006 C 
ATOM     32  C   UNL     1      33.420 -19.852 -20.397  0.00  0.00    +0.101 C 
ATOM     33  C   UNL     1      33.973 -21.904 -18.684  0.00  0.00    +0.021 C 
ATOM     34  C   UNL     1      32.682 -21.470 -18.942  0.00  0.00    +0.099 C 
ENDBRANCH  25  30
ENDBRANCH  20  21
ENDBRANCH   1  20
TORSDOF 6
ENDMDL
MODEL 9
REMARK VINA RESULT:     -11.1      3.907      6.979
REMARK  Name = 9865515
REMARK  6 active torsions:
REMARK  status: ('A' for Active; 'I' for Inactive)
REMARK    1  A    between atoms: C_1  and  C_20
REMARK    2  A    between atoms: C_2  and  C_9
REMARK    3  A    between atoms: N_8  and  C_11
REMARK    4  A    between atoms: C_12  and  N_17
REMARK    5  A    between atoms: C_20  and  N_21
REMARK    6  A    between atoms: C_25  and  C_30
REMARK                            x       y       z     vdW  Elec       q    Type
REMARK                         _______ _______ _______ _____ _____    ______ ____
ROOT
ATOM      1  C   UNL     1      34.967 -19.381 -21.365  0.00  0.00    -0.002 C 
ATOM      2  C   UNL     1      35.017 -17.183 -23.080  0.00  0.00    +0.054 C 
ATOM      3  C   UNL     1      34.486 -19.503 -22.668  0.00  0.00    -0.002 C 
ATOM      4  C   UNL     1      35.473 -18.161 -20.919  0.00  0.00    -0.002 C 
ATOM      5  C   UNL     1      34.510 -18.403 -23.526  0.00  0.00    +0.004 C 
ATOM      6  C   UNL     1      35.498 -17.061 -21.776  0.00  0.00    +0.004 C 
ENDROOT
BRANCH   2   9
ATOM      7  O   UNL     1      35.653 -16.121 -25.050  0.00  0.00    -0.270 OA
ATOM      8  N   UNL     1      34.328 -14.908 -23.541  0.00  0.00    -0.279 N 
ATOM      9  C   UNL     1      35.040 -16.035 -23.974  0.00  0.00    +0.250 C 
ATOM     10  H   UNL     1      33.893 -14.989 -22.662  0.00  0.00    +0.155 HD
BRANCH   8  11
ATOM     11  C   UNL     1      34.153 -13.668 -24.204  0.00  0.00    +0.064 C 
ATOM     12  C   UNL     1      33.535 -13.618 -25.442  0.00  0.00    +0.055 C 
ATOM     13  C   UNL     1      34.617 -12.520 -23.582  0.00  0.00    +0.016 C 
ATOM     14  C   UNL     1      33.375 -12.385 -26.076  0.00  0.00    +0.015 C 
ATOM     15  C   UNL     1      34.457 -11.288 -24.215  0.00  0.00    +0.001 C 
ATOM     16  C   UNL     1      33.836 -11.220 -25.463  0.00  0.00    +0.001 C 
BRANCH  12  17
ATOM     17  N   UNL     1      33.059 -14.784 -26.080  0.00  0.00    -0.356 N 
ATOM     18  H   UNL     1      32.880 -14.778 -27.048  0.00  0.00    +0.142 HD
ATOM     19  H   UNL     1      32.906 -15.605 -25.557  0.00  0.00    +0.142 HD
ENDBRANCH  12  17
ENDBRANCH   8  11
ENDBRANCH   2   9
BRANCH   1  20
ATOM     20  C   UNL     1      34.943 -20.558 -20.447  0.00  0.00    +0.124 C 
BRANCH  20  21
ATOM     21  N   UNL     1      36.172 -20.647 -19.689  0.00  0.00    -0.264 N 
ATOM     22  N   UNL     1      35.128 -21.784 -17.921  0.00  0.00    -0.338 NA
ATOM     23  N   UNL     1      37.480 -21.267 -17.842  0.00  0.00    -0.170 NA
ATOM     24  C   UNL     1      36.262 -21.251 -18.446  0.00  0.00    +0.145 C 
ATOM     25  C   UNL     1      35.252 -22.364 -16.710  0.00  0.00    +0.147 C 
ATOM     26  C   UNL     1      36.441 -22.434 -16.011  0.00  0.00    +0.055 C 
ATOM     27  C   UNL     1      37.533 -21.863 -16.632  0.00  0.00    +0.114 C 
ATOM     28  H   UNL     1      36.988 -20.258 -20.078  0.00  0.00    +0.160 HD
BRANCH  25  30
ATOM     29  N   UNL     1      31.664 -23.320 -16.404  0.00  0.00    -0.242 NA
ATOM     30  C   UNL     1      34.037 -22.925 -16.170  0.00  0.00    +0.050 C 
ATOM     31  C   UNL     1      34.033 -23.587 -14.946  0.00  0.00    +0.006 C 
ATOM     32  C   UNL     1      32.836 -22.820 -16.853  0.00  0.00    +0.101 C 
ATOM     33  C   UNL     1      32.847 -24.115 -14.451  0.00  0.00    +0.021 C 
ATOM     34  C   UNL     1      31.699 -23.957 -15.211  0.00  0.00    +0.099 C 
ENDBRANCH  25  30
ENDBRANCH  20  21
ENDBRANCH   1  20
TORSDOF 6
ENDMDL
