MODEL 1
REMARK VINA RESULT:     -11.8      0.000      0.000
REMARK  Name = 24958200
REMARK  3 active torsions:
REMARK  status: ('A' for Active; 'I' for Inactive)
REMARK    1  A    between atoms: N_1  and  C_13
REMARK    2  A    between atoms: C_6  and  C_26
REMARK    3  A    between atoms: C_10  and  C_17
REMARK                            x       y       z     vdW  Elec       q    Type
REMARK                         _______ _______ _______ _____ _____    ______ ____
ROOT
ATOM      1  N   UNL     1      32.754 -22.464 -17.230  0.00  0.00    -0.189 N 
ATOM      2  N   UNL     1      31.418 -22.343 -17.117  0.00  0.00    -0.174 NA
ATOM      3  C   UNL     1      32.306 -23.638 -15.476  0.00  0.00    +0.036 C 
ATOM      4  C   UNL     1      33.343 -23.233 -16.269  0.00  0.00    +0.091 C 
ATOM      5  C   UNL     1      31.102 -23.066 -16.027  0.00  0.00    +0.105 C 
ATOM      6  C   UNL     1      29.853 -23.306 -15.423  0.00  0.00    +0.072 C 
ATOM      7  C   UNL     1      32.415 -24.448 -14.353  0.00  0.00    +0.003 C 
ATOM      8  C   UNL     1      29.930 -24.128 -14.278  0.00  0.00    +0.006 C 
ATOM      9  C   UNL     1      31.152 -24.672 -13.769  0.00  0.00    +0.000 C 
ENDROOT
BRANCH   1  13
ATOM     10  C   UNL     1      34.766 -20.564 -20.354  0.00  0.00    -0.024 C 
ATOM     11  C   UNL     1      35.467 -21.379 -19.466  0.00  0.00    -0.003 C 
ATOM     12  C   UNL     1      33.390 -20.384 -20.198  0.00  0.00    -0.003 C 
ATOM     13  C   UNL     1      33.421 -21.834 -18.265  0.00  0.00    +0.074 C 
ATOM     14  C   UNL     1      34.795 -22.014 -18.422  0.00  0.00    +0.016 C 
ATOM     15  C   UNL     1      32.718 -21.019 -19.154  0.00  0.00    +0.016 C 
BRANCH  10  17
ATOM     16  N   UNL     1      35.257 -18.440 -23.502  0.00  0.00    +0.384 N 
ATOM     17  C   UNL     1      35.497 -19.871 -21.489  0.00  0.00    +0.001 C 
ATOM     18  C   UNL     1      36.627 -18.966 -20.972  0.00  0.00    +0.000 C 
ATOM     19  C   UNL     1      34.537 -19.078 -22.397  0.00  0.00    -0.077 C 
ATOM     20  C   UNL     1      37.306 -18.248 -22.136  0.00  0.00    -0.023 C 
ATOM     21  C   UNL     1      36.288 -17.526 -23.014  0.00  0.00    -0.082 C 
ATOM     22  H   UNL     1      34.592 -17.918 -24.072  0.00  0.00    -0.085 HD
ATOM     23  H   UNL     1      35.710 -19.171 -24.053  0.00  0.00    -0.085 HD
ENDBRANCH  10  17
ENDBRANCH   1  13
BRANCH   6  26
ATOM     24  O   UNL     1      27.899 -22.007 -15.230  0.00  0.00    -0.270 OA
ATOM     25  N   UNL     1      28.220 -23.101 -17.219  0.00  0.00    -0.325 N 
ATOM     26  C   UNL     1      28.608 -22.765 -15.922  0.00  0.00    +0.244 C 
ATOM     27  H   UNL     1      27.378 -22.749 -17.589  0.00  0.00    +0.145 HD
ATOM     28  H   UNL     1      28.789 -23.690 -17.766  0.00  0.00    +0.145 HD
ENDBRANCH   6  26
TORSDOF 3
ENDMDL
MODEL 2
REMARK VINA RESULT:     -11.2      2.458      3.568
REMARK  Name = 24958200
REMARK  3 active torsions:
REMARK  status: ('A' for Active; 'I' for Inactive)
REMARK    1  A    between atoms: N_1  and  C_13
REMARK    2  A    between atoms: C_6  and  C_26
REMARK    3  A    between atoms: C_10  and  C_17
REMARK                            x       y       z     vdW  Elec       q    Type
REMARK                         _______ _______ _______ _____ _____    ______ ____
ROOT
ATOM      1  N   UNL     1      33.639 -22.271 -17.611  0.00  0.00    -0.189 N 
ATOM      2  N   UNL     1      34.551 -22.957 -16.894  0.00  0.00    -0.174 NA
ATOM      3  C   UNL     1      32.444 -23.222 -16.086  0.00  0.00    +0.036 C 
ATOM      4  C   UNL     1      32.354 -22.394 -17.169  0.00  0.00    +0.091 C 
ATOM      5  C   UNL     1      33.837 -23.566 -15.929  0.00  0.00    +0.105 C 
ATOM      6  C   UNL     1      34.253 -24.415 -14.887  0.00  0.00    +0.072 C 
ATOM      7  C   UNL     1      31.381 -23.643 -15.298  0.00  0.00    +0.003 C 
ATOM      8  C   UNL     1      33.193 -24.860 -14.066  0.00  0.00    +0.006 C 
ATOM      9  C   UNL     1      31.825 -24.491 -14.264  0.00  0.00    +0.000 C 
ENDROOT
BRANCH   1  13
ATOM     10  C   UNL     1      34.847 -19.994 -20.893  0.00  0.00    -0.024 C 
ATOM     11  C   UNL     1      33.493 -20.094 -20.573  0.00  0.00    -0.003 C 
ATOM     12  C   UNL     1      35.798 -20.656 -20.114  0.00  0.00    -0.003 C 
ATOM     13  C   UNL     1      34.039 -21.517 -18.699  0.00  0.00    +0.074 C 
ATOM     14  C   UNL     1      33.089 -20.855 -19.476  0.00  0.00    +0.016 C 
ATOM     15  C   UNL     1      35.394 -21.417 -19.018  0.00  0.00    +0.016 C 
BRANCH  10  17
ATOM     16  N   UNL     1      34.708 -18.427 -24.384  0.00  0.00    +0.384 N 
ATOM     17  C   UNL     1      35.287 -19.168 -22.087  0.00  0.00    +0.001 C 
ATOM     18  C   UNL     1      35.602 -17.716 -21.691  0.00  0.00    +0.000 C 
ATOM     19  C   UNL     1      34.254 -19.207 -23.229  0.00  0.00    -0.077 C 
ATOM     20  C   UNL     1      35.992 -16.903 -22.923  0.00  0.00    -0.023 C 
ATOM     21  C   UNL     1      34.944 -17.029 -24.026  0.00  0.00    -0.082 C 
ATOM     22  H   UNL     1      33.995 -18.468 -25.112  0.00  0.00    -0.085 HD
ATOM     23  H   UNL     1      35.587 -18.827 -24.714  0.00  0.00    -0.085 HD
ENDBRANCH  10  17
ENDBRANCH   1  13
BRANCH   6  26
ATOM     24  O   UNL     1      36.482 -23.987 -14.262  0.00  0.00    -0.270 OA
ATOM     25  N   UNL     1      35.986 -26.126 -14.919  0.00  0.00    -0.325 N 
ATOM     26  C   UNL     1      35.630 -24.800 -14.672  0.00  0.00    +0.244 C 
ATOM     27  H   UNL     1      36.916 -26.421 -14.782  0.00  0.00    +0.145 HD
ATOM     28  H   UNL     1      35.307 -26.768 -15.230  0.00  0.00    +0.145 HD
ENDBRANCH   6  26
TORSDOF 3
ENDMDL
MODEL 3
REMARK VINA RESULT:     -11.0      2.947      4.101
REMARK  Name = 24958200
REMARK  3 active torsions:
REMARK  status: ('A' for Active; 'I' for Inactive)
REMARK    1  A    between atoms: N_1  and  C_13
REMARK    2  A    between atoms: C_6  and  C_26
REMARK    3  A    between atoms: C_10  and  C_17
REMARK                            x       y       z     vdW  Elec       q    Type
REMARK                         _______ _______ _______ _____ _____    ______ ____
ROOT
ATOM      1  N   UNL     1      34.491 -22.026 -17.838  0.00  0.00    -0.189 N 
ATOM      2  N   UNL     1      35.532 -22.448 -17.094  0.00  0.00    -0.174 NA
ATOM      3  C   UNL     1      33.539 -23.160 -16.267  0.00  0.00    +0.036 C 
ATOM      4  C   UNL     1      33.266 -22.425 -17.387  0.00  0.00    +0.091 C 
ATOM      5  C   UNL     1      34.973 -23.162 -16.101  0.00  0.00    +0.105 C 
ATOM      6  C   UNL     1      35.567 -23.844 -15.022  0.00  0.00    +0.072 C 
ATOM      7  C   UNL     1      32.598 -23.780 -15.457  0.00  0.00    +0.003 C 
ATOM      8  C   UNL     1      34.634 -24.485 -14.178  0.00  0.00    +0.006 C 
ATOM      9  C   UNL     1      33.219 -24.454 -14.387  0.00  0.00    +0.000 C 
ENDROOT
BRANCH   1  13
ATOM     10  C   UNL     1      35.158 -19.684 -21.227  0.00  0.00    -0.024 C 
ATOM     11  C   UNL     1      36.238 -20.180 -20.497  0.00  0.00    -0.003 C 
ATOM     12  C   UNL     1      33.853 -19.972 -20.823  0.00  0.00    -0.003 C 
ATOM     13  C   UNL     1      34.712 -21.250 -18.961  0.00  0.00    +0.074 C 
ATOM     14  C   UNL     1      36.016 -20.962 -19.365  0.00  0.00    +0.016 C 
ATOM     15  C   UNL     1      33.630 -20.755 -19.691  0.00  0.00    +0.016 C 
BRANCH  10  17
ATOM     16  N   UNL     1      34.576 -18.228 -24.720  0.00  0.00    +0.384 N 
ATOM     17  C   UNL     1      35.400 -18.831 -22.459  0.00  0.00    +0.001 C 
ATOM     18  C   UNL     1      35.536 -17.342 -22.104  0.00  0.00    +0.000 C 
ATOM     19  C   UNL     1      34.310 -19.037 -23.528  0.00  0.00    -0.077 C 
ATOM     20  C   UNL     1      35.727 -16.509 -23.369  0.00  0.00    -0.023 C 
ATOM     21  C   UNL     1      34.638 -16.803 -24.398  0.00  0.00    -0.082 C 
ATOM     22  H   UNL     1      33.830 -18.383 -25.398  0.00  0.00    -0.085 HD
ATOM     23  H   UNL     1      35.479 -18.510 -25.104  0.00  0.00    -0.085 HD
ENDBRANCH  10  17
ENDBRANCH   1  13
BRANCH   6  26
ATOM     24  O   UNL     1      37.617 -22.906 -14.344  0.00  0.00    -0.270 OA
ATOM     25  N   UNL     1      37.667 -25.077 -15.079  0.00  0.00    -0.325 N 
ATOM     26  C   UNL     1      36.995 -23.888 -14.795  0.00  0.00    +0.244 C 
ATOM     27  H   UNL     1      38.639 -25.140 -14.935  0.00  0.00    +0.145 HD
ATOM     28  H   UNL     1      37.169 -25.853 -15.423  0.00  0.00    +0.145 HD
ENDBRANCH   6  26
TORSDOF 3
ENDMDL
MODEL 4
REMARK VINA RESULT:     -10.4      2.833      3.692
REMARK  Name = 24958200
REMARK  3 active torsions:
REMARK  status: ('A' for Active; 'I' for Inactive)
REMARK    1  A    between atoms: N_1  and  C_13
REMARK    2  A    between atoms: C_6  and  C_26
REMARK    3  A    between atoms: C_10  and  C_17
REMARK                            x       y       z     vdW  Elec       q    Type
REMARK                         _______ _______ _______ _____ _____    ______ ____
ROOT
ATOM      1  N   UNL     1      35.964 -22.595 -16.034  0.00  0.00    -0.189 N 
ATOM      2  N   UNL     1      34.814 -22.870 -15.389  0.00  0.00    -0.174 NA
ATOM      3  C   UNL     1      36.640 -23.535 -14.213  0.00  0.00    +0.036 C 
ATOM      4  C   UNL     1      37.096 -22.973 -15.372  0.00  0.00    +0.091 C 
ATOM      5  C   UNL     1      35.199 -23.460 -14.243  0.00  0.00    +0.105 C 
ATOM      6  C   UNL     1      34.434 -23.964 -13.175  0.00  0.00    +0.072 C 
ATOM      7  C   UNL     1      37.433 -24.071 -13.207  0.00  0.00    +0.003 C 
ATOM      8  C   UNL     1      35.213 -24.517 -12.135  0.00  0.00    +0.006 C 
ATOM      9  C   UNL     1      36.643 -24.567 -12.152  0.00  0.00    +0.000 C 
ENDROOT
BRANCH   1  13
ATOM     10  C   UNL     1      35.871 -20.729 -19.765  0.00  0.00    -0.024 C 
ATOM     11  C   UNL     1      37.011 -20.636 -18.967  0.00  0.00    -0.003 C 
ATOM     12  C   UNL     1      34.762 -21.447 -19.317  0.00  0.00    -0.003 C 
ATOM     13  C   UNL     1      35.933 -21.976 -17.270  0.00  0.00    +0.074 C 
ATOM     14  C   UNL     1      37.042 -21.259 -17.719  0.00  0.00    +0.016 C 
ATOM     15  C   UNL     1      34.793 -22.071 -18.069  0.00  0.00    +0.016 C 
BRANCH  10  17
ATOM     16  N   UNL     1      34.409 -18.902 -22.796  0.00  0.00    +0.384 N 
ATOM     17  C   UNL     1      35.836 -20.049 -21.122  0.00  0.00    +0.001 C 
ATOM     18  C   UNL     1      36.872 -18.918 -21.221  0.00  0.00    +0.000 C 
ATOM     19  C   UNL     1      34.429 -19.529 -21.472  0.00  0.00    -0.077 C 
ATOM     20  C   UNL     1      36.775 -18.226 -22.578  0.00  0.00    -0.023 C 
ATOM     21  C   UNL     1      35.345 -17.781 -22.873  0.00  0.00    -0.082 C 
ATOM     22  H   UNL     1      33.466 -18.562 -22.987  0.00  0.00    -0.085 HD
ATOM     23  H   UNL     1      34.688 -19.601 -23.486  0.00  0.00    -0.085 HD
ENDBRANCH  10  17
ENDBRANCH   1  13
BRANCH   6  26
ATOM     24  O   UNL     1      32.310 -24.928 -12.854  0.00  0.00    -0.270 OA
ATOM     25  N   UNL     1      32.362 -22.706 -13.416  0.00  0.00    -0.325 N 
ATOM     26  C   UNL     1      32.988 -23.921 -13.139  0.00  0.00    +0.244 C 
ATOM     27  H   UNL     1      31.379 -22.643 -13.399  0.00  0.00    +0.145 HD
ATOM     28  H   UNL     1      32.901 -21.911 -13.627  0.00  0.00    +0.145 HD
ENDBRANCH   6  26
TORSDOF 3
ENDMDL
MODEL 5
REMARK VINA RESULT:      -9.9      7.710     10.851
REMARK  Name = 24958200
REMARK  3 active torsions:
REMARK  status: ('A' for Active; 'I' for Inactive)
REMARK    1  A    between atoms: N_1  and  C_13
REMARK    2  A    between atoms: C_6  and  C_26
REMARK    3  A    between atoms: C_10  and  C_17
REMARK                            x       y       z     vdW  Elec       q    Type
REMARK                         _______ _______ _______ _____ _____    ______ ____
ROOT
ATOM      1  N   UNL     1      34.443 -15.171 -24.028  0.00  0.00    -0.189 N 
ATOM      2  N   UNL     1      35.300 -15.763 -23.174  0.00  0.00    -0.174 NA
ATOM      3  C   UNL     1      34.198 -17.269 -24.469  0.00  0.00    +0.036 C 
ATOM      4  C   UNL     1      33.752 -16.029 -24.832  0.00  0.00    +0.091 C 
ATOM      5  C   UNL     1      35.174 -17.079 -23.423  0.00  0.00    +0.105 C 
ATOM      6  C   UNL     1      35.819 -18.183 -22.836  0.00  0.00    +0.072 C 
ATOM      7  C   UNL     1      33.778 -18.473 -25.018  0.00  0.00    +0.003 C 
ATOM      8  C   UNL     1      35.413 -19.424 -23.374  0.00  0.00    +0.006 C 
ATOM      9  C   UNL     1      34.440 -19.561 -24.413  0.00  0.00    +0.000 C 
ENDROOT
BRANCH   1  13
ATOM     10  C   UNL     1      34.062 -11.015 -24.060  0.00  0.00    -0.024 C 
ATOM     11  C   UNL     1      34.023 -11.729 -25.258  0.00  0.00    -0.003 C 
ATOM     12  C   UNL     1      34.228 -11.691 -22.850  0.00  0.00    -0.003 C 
ATOM     13  C   UNL     1      34.317 -13.794 -24.039  0.00  0.00    +0.074 C 
ATOM     14  C   UNL     1      34.150 -13.118 -25.247  0.00  0.00    +0.016 C 
ATOM     15  C   UNL     1      34.356 -13.080 -22.840  0.00  0.00    +0.016 C 
BRANCH  10  17
ATOM     16  N   UNL     1      32.877  -7.539 -22.975  0.00  0.00    +0.384 N 
ATOM     17  C   UNL     1      33.925  -9.504 -24.071  0.00  0.00    +0.001 C 
ATOM     18  C   UNL     1      35.294  -8.806 -24.029  0.00  0.00    +0.000 C 
ATOM     19  C   UNL     1      33.021  -8.997 -22.931  0.00  0.00    -0.077 C 
ATOM     20  C   UNL     1      35.117  -7.290 -23.990  0.00  0.00    -0.023 C 
ATOM     21  C   UNL     1      34.173  -6.869 -22.866  0.00  0.00    -0.082 C 
ATOM     22  H   UNL     1      32.283  -7.241 -22.201  0.00  0.00    -0.085 HD
ATOM     23  H   UNL     1      32.460  -7.286 -23.871  0.00  0.00    -0.085 HD
ENDBRANCH  10  17
ENDBRANCH   1  13
BRANCH   6  26
ATOM     24  O   UNL     1      36.480 -17.851 -20.601  0.00  0.00    -0.270 OA
ATOM     25  N   UNL     1      38.150 -18.218 -22.128  0.00  0.00    -0.325 N 
ATOM     26  C   UNL     1      36.806 -18.066 -21.785  0.00  0.00    +0.244 C 
ATOM     27  H   UNL     1      38.847 -18.145 -21.436  0.00  0.00    +0.145 HD
ATOM     28  H   UNL     1      38.402 -18.401 -23.062  0.00  0.00    +0.145 HD
ENDBRANCH   6  26
TORSDOF 3
ENDMDL
MODEL 6
REMARK VINA RESULT:      -9.9      3.580      8.969
REMARK  Name = 24958200
REMARK  3 active torsions:
REMARK  status: ('A' for Active; 'I' for Inactive)
REMARK    1  A    between atoms: N_1  and  C_13
REMARK    2  A    between atoms: C_6  and  C_26
REMARK    3  A    between atoms: C_10  and  C_17
REMARK                            x       y       z     vdW  Elec       q    Type
REMARK                         _______ _______ _______ _____ _____    ______ ____
ROOT
ATOM      1  N   UNL     1      34.701 -19.153 -21.416  0.00  0.00    -0.189 N 
ATOM      2  N   UNL     1      34.712 -17.838 -21.121  0.00  0.00    -0.174 NA
ATOM      3  C   UNL     1      35.024 -18.224 -23.338  0.00  0.00    +0.036 C 
ATOM      4  C   UNL     1      34.884 -19.443 -22.737  0.00  0.00    +0.091 C 
ATOM      5  C   UNL     1      34.912 -17.225 -22.301  0.00  0.00    +0.105 C 
ATOM      6  C   UNL     1      35.016 -15.857 -22.612  0.00  0.00    +0.072 C 
ATOM      7  C   UNL     1      35.232 -18.008 -24.693  0.00  0.00    +0.003 C 
ATOM      8  C   UNL     1      35.229 -15.605 -23.985  0.00  0.00    +0.006 C 
ATOM      9  C   UNL     1      35.332 -16.632 -24.976  0.00  0.00    +0.000 C 
ENDROOT
BRANCH   1  13
ATOM     10  C   UNL     1      34.140 -21.971 -18.391  0.00  0.00    -0.024 C 
ATOM     11  C   UNL     1      33.038 -21.356 -18.985  0.00  0.00    -0.003 C 
ATOM     12  C   UNL     1      35.431 -21.644 -18.810  0.00  0.00    -0.003 C 
ATOM     13  C   UNL     1      34.515 -20.086 -20.413  0.00  0.00    +0.074 C 
ATOM     14  C   UNL     1      33.225 -20.414 -19.996  0.00  0.00    +0.016 C 
ATOM     15  C   UNL     1      35.618 -20.702 -19.820  0.00  0.00    +0.016 C 
BRANCH  10  17
ATOM     16  N   UNL     1      34.853 -23.945 -15.188  0.00  0.00    +0.384 N 
ATOM     17  C   UNL     1      33.937 -22.996 -17.290  0.00  0.00    +0.001 C 
ATOM     18  C   UNL     1      32.553 -22.861 -16.633  0.00  0.00    +0.000 C 
ATOM     19  C   UNL     1      35.051 -22.931 -16.227  0.00  0.00    -0.077 C 
ATOM     20  C   UNL     1      32.403 -23.872 -15.499  0.00  0.00    -0.023 C 
ATOM     21  C   UNL     1      33.566 -23.779 -14.514  0.00  0.00    -0.082 C 
ATOM     22  H   UNL     1      35.602 -23.864 -14.500  0.00  0.00    -0.085 HD
ATOM     23  H   UNL     1      34.867 -24.865 -15.632  0.00  0.00    -0.085 HD
ENDBRANCH  10  17
ENDBRANCH   1  13
BRANCH   6  26
ATOM     24  O   UNL     1      34.941 -13.600 -21.946  0.00  0.00    -0.270 OA
ATOM     25  N   UNL     1      34.763 -15.172 -20.288  0.00  0.00    -0.325 N 
ATOM     26  C   UNL     1      34.913 -14.804 -21.625  0.00  0.00    +0.244 C 
ATOM     27  H   UNL     1      34.690 -14.480 -19.591  0.00  0.00    +0.145 HD
ATOM     28  H   UNL     1      34.729 -16.125 -20.040  0.00  0.00    +0.145 HD
ENDBRANCH   6  26
TORSDOF 3
ENDMDL
MODEL 7
REMARK VINA RESULT:      -9.9      4.254      8.790
REMARK  Name = 24958200
REMARK  3 active torsions:
REMARK  status: ('A' for Active; 'I' for Inactive)
REMARK    1  A    between atoms: N_1  and  C_13
REMARK    2  A    between atoms: C_6  and  C_26
REMARK    3  A    between atoms: C_10  and  C_17
REMARK                            x       y       z     vdW  Elec       q    Type
REMARK                         _______ _______ _______ _____ _____    ______ ____
ROOT
ATOM      1  N   UNL     1      35.197 -21.363 -18.583  0.00  0.00    -0.189 N 
ATOM      2  N   UNL     1      36.183 -20.609 -19.107  0.00  0.00    -0.174 NA
ATOM      3  C   UNL     1      34.255 -20.451 -20.297  0.00  0.00    +0.036 C 
ATOM      4  C   UNL     1      34.013 -21.307 -19.259  0.00  0.00    +0.091 C 
ATOM      5  C   UNL     1      35.628 -20.023 -20.183  0.00  0.00    +0.105 C 
ATOM      6  C   UNL     1      36.179 -19.128 -21.119  0.00  0.00    +0.072 C 
ATOM      7  C   UNL     1      33.335 -20.077 -21.268  0.00  0.00    +0.003 C 
ATOM      8  C   UNL     1      35.268 -18.729 -22.121  0.00  0.00    +0.006 C 
ATOM      9  C   UNL     1      33.913 -19.182 -22.191  0.00  0.00    +0.000 C 
ENDROOT
BRANCH   1  13
ATOM     10  C   UNL     1      35.901 -23.633 -15.153  0.00  0.00    -0.024 C 
ATOM     11  C   UNL     1      36.928 -22.869 -15.707  0.00  0.00    -0.003 C 
ATOM     12  C   UNL     1      34.637 -23.637 -15.745  0.00  0.00    -0.003 C 
ATOM     13  C   UNL     1      35.431 -22.116 -17.447  0.00  0.00    +0.074 C 
ATOM     14  C   UNL     1      36.693 -22.111 -16.854  0.00  0.00    +0.016 C 
ATOM     15  C   UNL     1      34.402 -22.878 -16.892  0.00  0.00    +0.016 C 
BRANCH  10  17
ATOM     16  N   UNL     1      37.108 -26.570 -13.013  0.00  0.00    +0.384 N 
ATOM     17  C   UNL     1      36.156 -24.459 -13.906  0.00  0.00    +0.001 C 
ATOM     18  C   UNL     1      36.913 -23.657 -12.834  0.00  0.00    +0.000 C 
ATOM     19  C   UNL     1      36.896 -25.773 -14.224  0.00  0.00    -0.077 C 
ATOM     20  C   UNL     1      37.196 -24.534 -11.617  0.00  0.00    -0.023 C 
ATOM     21  C   UNL     1      37.887 -25.835 -12.017  0.00  0.00    -0.082 C 
ATOM     22  H   UNL     1      37.609 -27.423 -13.263  0.00  0.00    -0.085 HD
ATOM     23  H   UNL     1      36.197 -26.789 -12.610  0.00  0.00    -0.085 HD
ENDBRANCH  10  17
ENDBRANCH   1  13
BRANCH   6  26
ATOM     24  O   UNL     1      38.219 -18.479 -22.099  0.00  0.00    -0.270 OA
ATOM     25  N   UNL     1      38.096 -18.386 -19.812  0.00  0.00    -0.325 N 
ATOM     26  C   UNL     1      37.546 -18.657 -21.065  0.00  0.00    +0.244 C 
ATOM     27  H   UNL     1      39.024 -18.064 -19.740  0.00  0.00    +0.145 HD
ATOM     28  H   UNL     1      37.557 -18.516 -18.998  0.00  0.00    +0.145 HD
ENDBRANCH   6  26
TORSDOF 3
ENDMDL
MODEL 8
REMARK VINA RESULT:      -9.7      1.457      2.037
REMARK  Name = 24958200
REMARK  3 active torsions:
REMARK  status: ('A' for Active; 'I' for Inactive)
REMARK    1  A    between atoms: N_1  and  C_13
REMARK    2  A    between atoms: C_6  and  C_26
REMARK    3  A    between atoms: C_10  and  C_17
REMARK                            x       y       z     vdW  Elec       q    Type
REMARK                         _______ _______ _______ _____ _____    ______ ____
ROOT
ATOM      1  N   UNL     1      34.507 -22.336 -17.232  0.00  0.00    -0.189 N 
ATOM      2  N   UNL     1      33.251 -22.533 -16.786  0.00  0.00    -0.174 NA
ATOM      3  C   UNL     1      34.804 -23.497 -15.437  0.00  0.00    +0.036 C 
ATOM      4  C   UNL     1      35.482 -22.894 -16.459  0.00  0.00    +0.091 C 
ATOM      5  C   UNL     1      33.399 -23.258 -15.662  0.00  0.00    +0.105 C 
ATOM      6  C   UNL     1      32.435 -23.760 -14.769  0.00  0.00    +0.072 C 
ATOM      7  C   UNL     1      35.379 -24.202 -14.389  0.00  0.00    +0.003 C 
ATOM      8  C   UNL     1      32.989 -24.484 -13.690  0.00  0.00    +0.006 C 
ATOM      9  C   UNL     1      34.393 -24.694 -13.511  0.00  0.00    +0.000 C 
ENDROOT
BRANCH   1  13
ATOM     10  C   UNL     1      35.162 -20.162 -20.733  0.00  0.00    -0.024 C 
ATOM     11  C   UNL     1      36.245 -20.595 -19.967  0.00  0.00    -0.003 C 
ATOM     12  C   UNL     1      33.860 -20.457 -20.328  0.00  0.00    -0.003 C 
ATOM     13  C   UNL     1      34.724 -21.615 -18.392  0.00  0.00    +0.074 C 
ATOM     14  C   UNL     1      36.026 -21.321 -18.797  0.00  0.00    +0.016 C 
ATOM     15  C   UNL     1      33.640 -21.183 -19.158  0.00  0.00    +0.016 C 
BRANCH  10  17
ATOM     16  N   UNL     1      34.392 -18.546 -24.118  0.00  0.00    +0.384 N 
ATOM     17  C   UNL     1      35.400 -19.370 -22.006  0.00  0.00    +0.001 C 
ATOM     18  C   UNL     1      35.946 -17.964 -21.709  0.00  0.00    +0.000 C 
ATOM     19  C   UNL     1      34.135 -19.289 -22.881  0.00  0.00    -0.077 C 
ATOM     20  C   UNL     1      36.126 -17.180 -23.007  0.00  0.00    -0.023 C 
ATOM     21  C   UNL     1      34.846 -17.183 -23.840  0.00  0.00    -0.082 C 
ATOM     22  H   UNL     1      33.531 -18.504 -24.663  0.00  0.00    -0.085 HD
ATOM     23  H   UNL     1      35.126 -19.029 -24.635  0.00  0.00    -0.085 HD
ENDBRANCH  10  17
ENDBRANCH   1  13
BRANCH   6  26
ATOM     24  O   UNL     1      30.267 -23.323 -13.960  0.00  0.00    -0.270 OA
ATOM     25  N   UNL     1      30.486 -23.615 -16.223  0.00  0.00    -0.325 N 
ATOM     26  C   UNL     1      31.012 -23.558 -14.932  0.00  0.00    +0.244 C 
ATOM     27  H   UNL     1      29.521 -23.481 -16.369  0.00  0.00    +0.145 HD
ATOM     28  H   UNL     1      31.080 -23.788 -16.990  0.00  0.00    +0.145 HD
ENDBRANCH   6  26
TORSDOF 3
ENDMDL
MODEL 9
REMARK VINA RESULT:      -9.7      2.455      3.860
REMARK  Name = 24958200
REMARK  3 active torsions:
REMARK  status: ('A' for Active; 'I' for Inactive)
REMARK    1  A    between atoms: N_1  and  C_13
REMARK    2  A    between atoms: C_6  and  C_26
REMARK    3  A    between atoms: C_10  and  C_17
REMARK                            x       y       z     vdW  Elec       q    Type
REMARK                         _______ _______ _______ _____ _____    ______ ____
ROOT
ATOM      1  N   UNL     1      36.069 -21.664 -17.850  0.00  0.00    -0.189 N 
ATOM      2  N   UNL     1      34.966 -22.190 -17.281  0.00  0.00    -0.174 NA
ATOM      3  C   UNL     1      36.852 -22.671 -16.109  0.00  0.00    +0.036 C 
ATOM      4  C   UNL     1      37.233 -21.923 -17.187  0.00  0.00    +0.091 C 
ATOM      5  C   UNL     1      35.419 -22.828 -16.186  0.00  0.00    +0.105 C 
ATOM      6  C   UNL     1      34.725 -23.560 -15.205  0.00  0.00    +0.072 C 
ATOM      7  C   UNL     1      37.701 -23.176 -15.132  0.00  0.00    +0.003 C 
ATOM      8  C   UNL     1      35.562 -24.087 -14.198  0.00  0.00    +0.006 C 
ATOM      9  C   UNL     1      36.981 -23.903 -14.165  0.00  0.00    +0.000 C 
ENDROOT
BRANCH   1  13
ATOM     10  C   UNL     1      35.748 -19.448 -21.371  0.00  0.00    -0.024 C 
ATOM     11  C   UNL     1      34.626 -20.088 -20.844  0.00  0.00    -0.003 C 
ATOM     12  C   UNL     1      36.978 -19.548 -20.719  0.00  0.00    -0.003 C 
ATOM     13  C   UNL     1      35.962 -20.931 -19.016  0.00  0.00    +0.074 C 
ATOM     14  C   UNL     1      34.733 -20.829 -19.668  0.00  0.00    +0.016 C 
ATOM     15  C   UNL     1      37.085 -20.289 -19.542  0.00  0.00    +0.016 C 
BRANCH  10  17
ATOM     16  N   UNL     1      34.295 -18.252 -24.705  0.00  0.00    +0.384 N 
ATOM     17  C   UNL     1      35.632 -18.643 -22.652  0.00  0.00    +0.001 C 
ATOM     18  C   UNL     1      35.671 -17.130 -22.381  0.00  0.00    +0.000 C 
ATOM     19  C   UNL     1      34.375 -19.018 -23.459  0.00  0.00    -0.077 C 
ATOM     20  C   UNL     1      35.502 -16.353 -23.684  0.00  0.00    -0.023 C 
ATOM     21  C   UNL     1      34.263 -16.812 -24.448  0.00  0.00    -0.082 C 
ATOM     22  H   UNL     1      33.446 -18.519 -25.204  0.00  0.00    -0.085 HD
ATOM     23  H   UNL     1      35.124 -18.460 -25.263  0.00  0.00    -0.085 HD
ENDBRANCH  10  17
ENDBRANCH   1  13
BRANCH   6  26
ATOM     24  O   UNL     1      32.728 -24.532 -14.423  0.00  0.00    -0.270 OA
ATOM     25  N   UNL     1      32.542 -23.035 -16.150  0.00  0.00    -0.325 N 
ATOM     26  C   UNL     1      33.292 -23.756 -15.221  0.00  0.00    +0.244 C 
ATOM     27  H   UNL     1      31.564 -23.146 -16.187  0.00  0.00    +0.145 HD
ATOM     28  H   UNL     1      32.990 -22.415 -16.769  0.00  0.00    +0.145 HD
ENDBRANCH   6  26
TORSDOF 3
ENDMDL
