MODEL 1
REMARK VINA RESULT:     -11.8      0.000      0.000
REMARK  Name = 10407120
REMARK  4 active torsions:
REMARK  status: ('A' for Active; 'I' for Inactive)
REMARK    1  A    between atoms: N_2  and  C_19
REMARK    2  A    between atoms: C_3  and  C_6
REMARK    3  A    between atoms: C_5  and  C_16
REMARK    4  A    between atoms: C_19  and  C_21
REMARK                            x       y       z     vdW  Elec       q    Type
REMARK                         _______ _______ _______ _____ _____    ______ ____
ROOT
ATOM      1  O   UNL     1      33.211 -16.588 -25.574  0.00  0.00    -0.270 OA
ATOM      2  N   UNL     1      34.100 -14.520 -24.991  0.00  0.00    -0.267 N 
ATOM      3  C   UNL     1      33.902 -15.894 -24.826  0.00  0.00    +0.250 C 
ATOM      4  C   UNL     1      33.461 -13.836 -26.107  0.00  0.00    +0.116 C 
ENDROOT
BRANCH   3   6
ATOM      5  C   UNL     1      34.576 -17.863 -23.495  0.00  0.00    +0.006 C 
ATOM      6  C   UNL     1      34.564 -16.517 -23.642  0.00  0.00    +0.058 C 
BRANCH   5  16
ATOM      7  O   UNL     1      36.868 -22.069 -17.462  0.00  0.00    -0.275 OA
ATOM      8  N   UNL     1      36.940 -20.558 -19.191  0.00  0.00    -0.270 N 
ATOM      9  N   UNL     1      37.093 -19.052 -21.008  0.00  0.00    -0.229 NA
ATOM     10  C   UNL     1      34.169 -20.982 -19.609  0.00  0.00    +0.039 C 
ATOM     11  C   UNL     1      34.979 -20.122 -20.530  0.00  0.00    +0.010 C 
ATOM     12  C   UNL     1      35.028 -22.078 -18.999  0.00  0.00    +0.090 C 
ATOM     13  C   UNL     1      36.332 -19.899 -20.277  0.00  0.00    +0.130 C 
ATOM     14  C   UNL     1      34.392 -19.439 -21.597  0.00  0.00    +0.000 C 
ATOM     15  C   UNL     1      36.340 -21.557 -18.450  0.00  0.00    +0.227 C 
ATOM     16  C   UNL     1      35.159 -18.580 -22.376  0.00  0.00    +0.019 C 
ATOM     17  C   UNL     1      36.491 -18.421 -22.041  0.00  0.00    +0.100 C 
ATOM     18  H   UNL     1      37.853 -20.287 -18.942  0.00  0.00    +0.156 HD
ENDBRANCH   5  16
ENDBRANCH   3   6
BRANCH   2  19
ATOM     19  C   UNL     1      34.887 -13.672 -24.098  0.00  0.00    +0.158 C 
BRANCH  19  21
ATOM     20  O   UNL     1      33.293 -13.009 -22.430  0.00  0.00    -0.456 OA
ATOM     21  C   UNL     1      34.052 -12.598 -23.463  0.00  0.00    +0.139 A 
ATOM     22  C   UNL     1      33.909 -11.277 -23.727  0.00  0.00    +0.013 A 
ATOM     23  C   UNL     1      32.971 -10.800 -22.774  0.00  0.00    +0.033 A 
ATOM     24  C   UNL     1      32.623 -11.903 -22.001  0.00  0.00    +0.145 A 
ATOM     25  C   UNL     1      34.580 -10.491 -24.781  0.00  0.00    +0.034 C 
ATOM     26  C   UNL     1      32.378  -9.560 -22.480  0.00  0.00    +0.003 C 
ATOM     27  C   UNL     1      31.718 -11.862 -20.942  0.00  0.00    +0.037 C 
ATOM     28  C   UNL     1      31.463  -9.486 -21.421  0.00  0.00    +0.000 C 
ATOM     29  C   UNL     1      31.140 -10.618 -20.668  0.00  0.00    +0.003 C 
ENDBRANCH  19  21
ENDBRANCH   2  19
TORSDOF 4
ENDMDL
MODEL 2
REMARK VINA RESULT:     -11.5      1.200      1.988
REMARK  Name = 10407120
REMARK  4 active torsions:
REMARK  status: ('A' for Active; 'I' for Inactive)
REMARK    1  A    between atoms: N_2  and  C_19
REMARK    2  A    between atoms: C_3  and  C_6
REMARK    3  A    between atoms: C_5  and  C_16
REMARK    4  A    between atoms: C_19  and  C_21
REMARK                            x       y       z     vdW  Elec       q    Type
REMARK                         _______ _______ _______ _____ _____    ______ ____
ROOT
ATOM      1  O   UNL     1      34.927 -16.770 -25.372  0.00  0.00    -0.270 OA
ATOM      2  N   UNL     1      34.573 -15.002 -23.905  0.00  0.00    -0.267 N 
ATOM      3  C   UNL     1      34.968 -16.302 -24.233  0.00  0.00    +0.250 C 
ATOM      4  C   UNL     1      34.075 -14.121 -24.952  0.00  0.00    +0.116 C 
ENDROOT
BRANCH   3   6
ATOM      5  C   UNL     1      34.686 -18.195 -22.673  0.00  0.00    +0.006 C 
ATOM      6  C   UNL     1      35.437 -17.153 -23.100  0.00  0.00    +0.058 C 
BRANCH   5  16
ATOM      7  O   UNL     1      35.585 -23.073 -16.779  0.00  0.00    -0.275 OA
ATOM      8  N   UNL     1      36.102 -21.531 -18.401  0.00  0.00    -0.270 N 
ATOM      9  N   UNL     1      36.703 -20.007 -20.107  0.00  0.00    -0.229 NA
ATOM     10  C   UNL     1      33.344 -21.339 -19.024  0.00  0.00    +0.039 C 
ATOM     11  C   UNL     1      34.383 -20.627 -19.835  0.00  0.00    +0.010 C 
ATOM     12  C   UNL     1      33.906 -22.620 -18.429  0.00  0.00    +0.090 C 
ATOM     13  C   UNL     1      35.728 -20.708 -19.481  0.00  0.00    +0.130 C 
ATOM     14  C   UNL     1      34.033 -19.786 -20.893  0.00  0.00    +0.000 C 
ATOM     15  C   UNL     1      35.253 -22.415 -17.765  0.00  0.00    +0.227 C 
ATOM     16  C   UNL     1      35.019 -19.073 -21.565  0.00  0.00    +0.019 C 
ATOM     17  C   UNL     1      36.326 -19.215 -21.135  0.00  0.00    +0.100 C 
ATOM     18  H   UNL     1      37.029 -21.472 -18.077  0.00  0.00    +0.156 HD
ENDBRANCH   5  16
ENDBRANCH   3   6
BRANCH   2  19
ATOM     19  C   UNL     1      34.581 -14.437 -22.557  0.00  0.00    +0.158 C 
BRANCH  19  21
ATOM     20  O   UNL     1      34.281 -12.220 -23.426  0.00  0.00    -0.456 OA
ATOM     21  C   UNL     1      33.881 -13.111 -22.500  0.00  0.00    +0.139 A 
ATOM     22  C   UNL     1      32.910 -12.625 -21.690  0.00  0.00    +0.013 A 
ATOM     23  C   UNL     1      32.667 -11.300 -22.140  0.00  0.00    +0.033 A 
ATOM     24  C   UNL     1      33.536 -11.100 -23.209  0.00  0.00    +0.145 A 
ATOM     25  C   UNL     1      32.239 -13.318 -20.572  0.00  0.00    +0.034 C 
ATOM     26  C   UNL     1      31.812 -10.251 -21.764  0.00  0.00    +0.003 C 
ATOM     27  C   UNL     1      33.616  -9.917 -23.940  0.00  0.00    +0.037 C 
ATOM     28  C   UNL     1      31.870  -9.047 -22.480  0.00  0.00    +0.000 C 
ATOM     29  C   UNL     1      32.757  -8.885 -23.547  0.00  0.00    +0.003 C 
ENDBRANCH  19  21
ENDBRANCH   2  19
TORSDOF 4
ENDMDL
MODEL 3
REMARK VINA RESULT:     -11.5      2.422      9.185
REMARK  Name = 10407120
REMARK  4 active torsions:
REMARK  status: ('A' for Active; 'I' for Inactive)
REMARK    1  A    between atoms: N_2  and  C_19
REMARK    2  A    between atoms: C_3  and  C_6
REMARK    3  A    between atoms: C_5  and  C_16
REMARK    4  A    between atoms: C_19  and  C_21
REMARK                            x       y       z     vdW  Elec       q    Type
REMARK                         _______ _______ _______ _____ _____    ______ ____
ROOT
ATOM      1  O   UNL     1      33.927 -16.231 -25.484  0.00  0.00    -0.270 OA
ATOM      2  N   UNL     1      35.079 -17.127 -23.675  0.00  0.00    -0.267 N 
ATOM      3  C   UNL     1      34.384 -16.116 -24.345  0.00  0.00    +0.250 C 
ATOM      4  C   UNL     1      35.294 -18.406 -24.336  0.00  0.00    +0.116 C 
ENDROOT
BRANCH   3   6
ATOM      5  C   UNL     1      33.466 -13.834 -24.128  0.00  0.00    +0.006 C 
ATOM      6  C   UNL     1      34.232 -14.825 -23.613  0.00  0.00    +0.058 C 
BRANCH   5  16
ATOM      7  O   UNL     1      31.973  -7.331 -20.278  0.00  0.00    -0.275 OA
ATOM      8  N   UNL     1      32.754  -8.735 -21.919  0.00  0.00    -0.270 N 
ATOM      9  N   UNL     1      33.652 -10.144 -23.594  0.00  0.00    -0.229 NA
ATOM     10  C   UNL     1      31.466 -10.895 -20.613  0.00  0.00    +0.039 C 
ATOM     11  C   UNL     1      32.344 -11.112 -21.806  0.00  0.00    +0.010 C 
ATOM     12  C   UNL     1      31.924  -9.683 -19.817  0.00  0.00    +0.090 C 
ATOM     13  C   UNL     1      32.934 -10.027 -22.453  0.00  0.00    +0.130 C 
ATOM     14  C   UNL     1      32.515 -12.379 -22.366  0.00  0.00    +0.000 C 
ATOM     15  C   UNL     1      32.180  -8.472 -20.691  0.00  0.00    +0.227 C 
ATOM     16  C   UNL     1      33.266 -12.528 -23.526  0.00  0.00    +0.019 C 
ATOM     17  C   UNL     1      33.806 -11.390 -24.097  0.00  0.00    +0.100 C 
ATOM     18  H   UNL     1      33.058  -7.970 -22.458  0.00  0.00    +0.156 HD
ENDBRANCH   5  16
ENDBRANCH   3   6
BRANCH   2  19
ATOM     19  C   UNL     1      35.659 -17.003 -22.338  0.00  0.00    +0.158 C 
BRANCH  19  21
ATOM     20  O   UNL     1      34.218 -18.630 -21.321  0.00  0.00    -0.456 OA
ATOM     21  C   UNL     1      35.495 -18.260 -21.536  0.00  0.00    +0.139 A 
ATOM     22  C   UNL     1      36.389 -19.111 -20.978  0.00  0.00    +0.013 A 
ATOM     23  C   UNL     1      35.612 -20.118 -20.347  0.00  0.00    +0.033 A 
ATOM     24  C   UNL     1      34.284 -19.776 -20.587  0.00  0.00    +0.145 A 
ATOM     25  C   UNL     1      37.862 -19.019 -21.012  0.00  0.00    +0.034 C 
ATOM     26  C   UNL     1      35.882 -21.278 -19.601  0.00  0.00    +0.003 C 
ATOM     27  C   UNL     1      33.193 -20.515 -20.134  0.00  0.00    +0.037 C 
ATOM     28  C   UNL     1      34.805 -22.041 -19.131  0.00  0.00    +0.000 C 
ATOM     29  C   UNL     1      33.486 -21.664 -19.393  0.00  0.00    +0.003 C 
ENDBRANCH  19  21
ENDBRANCH   2  19
TORSDOF 4
ENDMDL
MODEL 4
REMARK VINA RESULT:     -10.7      5.689     12.450
REMARK  Name = 10407120
REMARK  4 active torsions:
REMARK  status: ('A' for Active; 'I' for Inactive)
REMARK    1  A    between atoms: N_2  and  C_19
REMARK    2  A    between atoms: C_3  and  C_6
REMARK    3  A    between atoms: C_5  and  C_16
REMARK    4  A    between atoms: C_19  and  C_21
REMARK                            x       y       z     vdW  Elec       q    Type
REMARK                         _______ _______ _______ _____ _____    ______ ____
ROOT
ATOM      1  O   UNL     1      31.023 -24.287 -16.106  0.00  0.00    -0.270 OA
ATOM      2  N   UNL     1      32.229 -23.879 -14.161  0.00  0.00    -0.267 N 
ATOM      3  C   UNL     1      31.915 -23.682 -15.509  0.00  0.00    +0.250 C 
ATOM      4  C   UNL     1      31.472 -24.853 -13.386  0.00  0.00    +0.116 C 
ENDROOT
BRANCH   3   6
ATOM      5  C   UNL     1      33.449 -23.064 -17.343  0.00  0.00    +0.006 C 
ATOM      6  C   UNL     1      32.756 -22.690 -16.242  0.00  0.00    +0.058 C 
BRANCH   5  16
ATOM      7  O   UNL     1      37.343 -18.240 -21.915  0.00  0.00    -0.275 OA
ATOM      8  N   UNL     1      36.924 -19.789 -20.271  0.00  0.00    -0.270 N 
ATOM      9  N   UNL     1      36.537 -21.320 -18.511  0.00  0.00    -0.229 NA
ATOM     10  C   UNL     1      34.227 -19.901 -21.136  0.00  0.00    +0.039 C 
ATOM     11  C   UNL     1      34.692 -20.638 -19.917  0.00  0.00    +0.010 C 
ATOM     12  C   UNL     1      35.048 -18.639 -21.350  0.00  0.00    +0.090 C 
ATOM     13  C   UNL     1      36.033 -20.596 -19.538  0.00  0.00    +0.130 C 
ATOM     14  C   UNL     1      33.832 -21.464 -19.191  0.00  0.00    +0.000 C 
ATOM     15  C   UNL     1      36.539 -18.884 -21.241  0.00  0.00    +0.227 C 
ATOM     16  C   UNL     1      34.322 -22.202 -18.119  0.00  0.00    +0.019 C 
ATOM     17  C   UNL     1      35.669 -22.097 -17.825  0.00  0.00    +0.100 C 
ATOM     18  H   UNL     1      37.885 -19.874 -20.080  0.00  0.00    +0.156 HD
ENDBRANCH   5  16
ENDBRANCH   3   6
BRANCH   2  19
ATOM     19  C   UNL     1      33.304 -23.198 -13.441  0.00  0.00    +0.158 C 
BRANCH  19  21
ATOM     20  O   UNL     1      34.813 -24.664 -14.595  0.00  0.00    -0.456 OA
ATOM     21  C   UNL     1      34.578 -23.992 -13.453  0.00  0.00    +0.139 A 
ATOM     22  C   UNL     1      35.553 -24.168 -12.529  0.00  0.00    +0.013 A 
ATOM     23  C   UNL     1      36.499 -25.034 -13.137  0.00  0.00    +0.033 A 
ATOM     24  C   UNL     1      35.998 -25.310 -14.406  0.00  0.00    +0.145 A 
ATOM     25  C   UNL     1      35.625 -23.587 -11.174  0.00  0.00    +0.034 C 
ATOM     26  C   UNL     1      37.722 -25.613 -12.757  0.00  0.00    +0.003 C 
ATOM     27  C   UNL     1      36.634 -26.131 -15.335  0.00  0.00    +0.037 C 
ATOM     28  C   UNL     1      38.384 -26.445 -13.671  0.00  0.00    +0.000 C 
ATOM     29  C   UNL     1      37.848 -26.698 -14.936  0.00  0.00    +0.003 C 
ENDBRANCH  19  21
ENDBRANCH   2  19
TORSDOF 4
ENDMDL
MODEL 5
REMARK VINA RESULT:     -10.5      5.388     11.221
REMARK  Name = 10407120
REMARK  4 active torsions:
REMARK  status: ('A' for Active; 'I' for Inactive)
REMARK    1  A    between atoms: N_2  and  C_19
REMARK    2  A    between atoms: C_3  and  C_6
REMARK    3  A    between atoms: C_5  and  C_16
REMARK    4  A    between atoms: C_19  and  C_21
REMARK                            x       y       z     vdW  Elec       q    Type
REMARK                         _______ _______ _______ _____ _____    ______ ____
ROOT
ATOM      1  O   UNL     1      37.969 -22.177 -14.365  0.00  0.00    -0.270 OA
ATOM      2  N   UNL     1      36.721 -24.107 -14.714  0.00  0.00    -0.267 N 
ATOM      3  C   UNL     1      37.104 -22.791 -14.990  0.00  0.00    +0.250 C 
ATOM      4  C   UNL     1      37.368 -24.824 -13.624  0.00  0.00    +0.116 C 
ENDROOT
BRANCH   3   6
ATOM      5  C   UNL     1      36.959 -21.966 -17.314  0.00  0.00    +0.006 C 
ATOM      6  C   UNL     1      36.373 -22.114 -16.102  0.00  0.00    +0.058 C 
BRANCH   5  16
ATOM      7  O   UNL     1      34.610 -18.064 -23.526  0.00  0.00    -0.275 OA
ATOM      8  N   UNL     1      34.541 -19.451 -21.697  0.00  0.00    -0.270 N 
ATOM      9  N   UNL     1      34.437 -20.955 -19.874  0.00  0.00    -0.229 NA
ATOM     10  C   UNL     1      37.209 -18.707 -21.097  0.00  0.00    +0.039 C 
ATOM     11  C   UNL     1      36.496 -19.766 -20.314  0.00  0.00    +0.010 C 
ATOM     12  C   UNL     1      36.707 -18.663 -22.531  0.00  0.00    +0.090 C 
ATOM     13  C   UNL     1      35.170 -20.084 -20.607  0.00  0.00    +0.130 C 
ATOM     14  C   UNL     1      37.090 -20.387 -19.214  0.00  0.00    +0.000 C 
ATOM     15  C   UNL     1      35.194 -18.661 -22.622  0.00  0.00    +0.227 C 
ATOM     16  C   UNL     1      36.365 -21.300 -18.459  0.00  0.00    +0.019 C 
ATOM     17  C   UNL     1      35.054 -21.545 -18.825  0.00  0.00    +0.100 C 
ATOM     18  H   UNL     1      33.572 -19.581 -21.807  0.00  0.00    +0.156 HD
ENDBRANCH   5  16
ENDBRANCH   3   6
BRANCH   2  19
ATOM     19  C   UNL     1      35.674 -24.843 -15.420  0.00  0.00    +0.158 C 
BRANCH  19  21
ATOM     20  O   UNL     1      33.656 -23.884 -16.295  0.00  0.00    -0.456 OA
ATOM     21  C   UNL     1      34.315 -24.254 -15.181  0.00  0.00    +0.139 A 
ATOM     22  C   UNL     1      33.608 -24.017 -14.050  0.00  0.00    +0.013 A 
ATOM     23  C   UNL     1      32.384 -23.442 -14.482  0.00  0.00    +0.033 A 
ATOM     24  C   UNL     1      32.464 -23.381 -15.870  0.00  0.00    +0.145 A 
ATOM     25  C   UNL     1      34.016 -24.294 -12.659  0.00  0.00    +0.034 C 
ATOM     26  C   UNL     1      31.220 -22.967 -13.854  0.00  0.00    +0.003 C 
ATOM     27  C   UNL     1      31.456 -22.876 -16.689  0.00  0.00    +0.037 C 
ATOM     28  C   UNL     1      30.188 -22.452 -14.652  0.00  0.00    +0.000 C 
ATOM     29  C   UNL     1      30.307 -22.408 -16.043  0.00  0.00    +0.003 C 
ENDBRANCH  19  21
ENDBRANCH   2  19
TORSDOF 4
ENDMDL
MODEL 6
REMARK VINA RESULT:     -10.1      4.454     11.285
REMARK  Name = 10407120
REMARK  4 active torsions:
REMARK  status: ('A' for Active; 'I' for Inactive)
REMARK    1  A    between atoms: N_2  and  C_19
REMARK    2  A    between atoms: C_3  and  C_6
REMARK    3  A    between atoms: C_5  and  C_16
REMARK    4  A    between atoms: C_19  and  C_21
REMARK                            x       y       z     vdW  Elec       q    Type
REMARK                         _______ _______ _______ _____ _____    ______ ____
ROOT
ATOM      1  O   UNL     1      31.033 -11.045 -20.748  0.00  0.00    -0.270 OA
ATOM      2  N   UNL     1      32.783 -12.191 -21.760  0.00  0.00    -0.267 N 
ATOM      3  C   UNL     1      31.958 -11.081 -21.560  0.00  0.00    +0.250 C 
ATOM      4  C   UNL     1      32.561 -13.397 -20.973  0.00  0.00    +0.116 C 
ENDROOT
BRANCH   3   6
ATOM      5  C   UNL     1      32.185  -8.646 -21.906  0.00  0.00    +0.006 C 
ATOM      6  C   UNL     1      32.230  -9.895 -22.426  0.00  0.00    +0.058 C 
BRANCH   5  16
ATOM      7  O   UNL     1      34.108  -2.486 -26.112  0.00  0.00    -0.275 OA
ATOM      8  N   UNL     1      32.896  -3.858 -24.724  0.00  0.00    -0.270 N 
ATOM      9  N   UNL     1      31.570  -5.264 -23.360  0.00  0.00    -0.229 NA
ATOM     10  C   UNL     1      35.068  -5.678 -24.710  0.00  0.00    +0.039 C 
ATOM     11  C   UNL     1      33.767  -6.004 -24.043  0.00  0.00    +0.010 C 
ATOM     12  C   UNL     1      34.850  -4.756 -25.899  0.00  0.00    +0.090 C 
ATOM     13  C   UNL     1      32.730  -5.073 -24.032  0.00  0.00    +0.130 C 
ATOM     14  C   UNL     1      33.590  -7.191 -23.331  0.00  0.00    +0.000 C 
ATOM     15  C   UNL     1      33.950  -3.581 -25.572  0.00  0.00    +0.227 C 
ATOM     16  C   UNL     1      32.399  -7.418 -22.650  0.00  0.00    +0.019 C 
ATOM     17  C   UNL     1      31.431  -6.432 -22.694  0.00  0.00    +0.100 C 
ATOM     18  H   UNL     1      32.216  -3.159 -24.594  0.00  0.00    +0.156 HD
ENDBRANCH   5  16
ENDBRANCH   3   6
BRANCH   2  19
ATOM     19  C   UNL     1      33.865 -12.269 -22.740  0.00  0.00    +0.158 C 
BRANCH  19  21
ATOM     20  O   UNL     1      34.812 -14.383 -22.114  0.00  0.00    -0.456 OA
ATOM     21  C   UNL     1      34.202 -13.688 -23.093  0.00  0.00    +0.139 A 
ATOM     22  C   UNL     1      34.011 -14.420 -24.216  0.00  0.00    +0.013 A 
ATOM     23  C   UNL     1      34.549 -15.703 -23.929  0.00  0.00    +0.033 A 
ATOM     24  C   UNL     1      35.029 -15.627 -22.625  0.00  0.00    +0.145 A 
ATOM     25  C   UNL     1      33.379 -13.986 -25.478  0.00  0.00    +0.034 C 
ATOM     26  C   UNL     1      34.684 -16.916 -24.626  0.00  0.00    +0.003 C 
ATOM     27  C   UNL     1      35.640 -16.686 -21.955  0.00  0.00    +0.037 C 
ATOM     28  C   UNL     1      35.295 -17.998 -23.979  0.00  0.00    +0.000 C 
ATOM     29  C   UNL     1      35.764 -17.882 -22.668  0.00  0.00    +0.003 C 
ENDBRANCH  19  21
ENDBRANCH   2  19
TORSDOF 4
ENDMDL
MODEL 7
REMARK VINA RESULT:     -10.0      5.693     11.955
REMARK  Name = 10407120
REMARK  4 active torsions:
REMARK  status: ('A' for Active; 'I' for Inactive)
REMARK    1  A    between atoms: N_2  and  C_19
REMARK    2  A    between atoms: C_3  and  C_6
REMARK    3  A    between atoms: C_5  and  C_16
REMARK    4  A    between atoms: C_19  and  C_21
REMARK                            x       y       z     vdW  Elec       q    Type
REMARK                         _______ _______ _______ _____ _____    ______ ____
ROOT
ATOM      1  O   UNL     1      31.283 -24.318 -16.198  0.00  0.00    -0.270 OA
ATOM      2  N   UNL     1      32.861 -23.571 -14.663  0.00  0.00    -0.267 N 
ATOM      3  C   UNL     1      32.157 -23.514 -15.869  0.00  0.00    +0.250 C 
ATOM      4  C   UNL     1      32.567 -24.636 -13.714  0.00  0.00    +0.116 C 
ENDROOT
BRANCH   3   6
ATOM      5  C   UNL     1      33.265 -22.677 -17.912  0.00  0.00    +0.006 C 
ATOM      6  C   UNL     1      32.537 -22.411 -16.801  0.00  0.00    +0.058 C 
BRANCH   5  16
ATOM      7  O   UNL     1      36.514 -17.636 -22.746  0.00  0.00    -0.275 OA
ATOM      8  N   UNL     1      34.889 -18.834 -21.650  0.00  0.00    -0.270 N 
ATOM      9  N   UNL     1      33.182 -20.099 -20.611  0.00  0.00    -0.229 NA
ATOM     10  C   UNL     1      36.904 -19.963 -20.006  0.00  0.00    +0.039 C 
ATOM     11  C   UNL     1      35.477 -20.414 -19.921  0.00  0.00    +0.010 C 
ATOM     12  C   UNL     1      37.238 -19.492 -21.413  0.00  0.00    +0.090 C 
ATOM     13  C   UNL     1      34.501 -19.812 -20.714  0.00  0.00    +0.130 C 
ATOM     14  C   UNL     1      35.067 -21.362 -18.983  0.00  0.00    +0.000 C 
ATOM     15  C   UNL     1      36.199 -18.543 -21.975  0.00  0.00    +0.227 C 
ATOM     16  C   UNL     1      33.720 -21.690 -18.874  0.00  0.00    +0.019 C 
ATOM     17  C   UNL     1      32.827 -21.034 -19.701  0.00  0.00    +0.100 C 
ATOM     18  H   UNL     1      34.180 -18.324 -22.102  0.00  0.00    +0.156 HD
ENDBRANCH   5  16
ENDBRANCH   3   6
BRANCH   2  19
ATOM     19  C   UNL     1      33.924 -22.649 -14.266  0.00  0.00    +0.158 C 
BRANCH  19  21
ATOM     20  O   UNL     1      35.390 -24.191 -13.157  0.00  0.00    -0.456 OA
ATOM     21  C   UNL     1      35.257 -23.332 -14.185  0.00  0.00    +0.139 A 
ATOM     22  C   UNL     1      36.371 -23.255 -14.952  0.00  0.00    +0.013 A 
ATOM     23  C   UNL     1      37.302 -24.148 -14.360  0.00  0.00    +0.033 A 
ATOM     24  C   UNL     1      36.651 -24.698 -13.260  0.00  0.00    +0.145 A 
ATOM     25  C   UNL     1      36.582 -22.421 -16.152  0.00  0.00    +0.034 C 
ATOM     26  C   UNL     1      38.621 -24.551 -14.630  0.00  0.00    +0.003 C 
ATOM     27  C   UNL     1      37.223 -25.633 -12.400  0.00  0.00    +0.037 C 
ATOM     28  C   UNL     1      39.224 -25.490 -13.782  0.00  0.00    +0.000 C 
ATOM     29  C   UNL     1      38.536 -26.019 -12.687  0.00  0.00    +0.003 C 
ENDBRANCH  19  21
ENDBRANCH   2  19
TORSDOF 4
ENDMDL
MODEL 8
REMARK VINA RESULT:      -9.9      2.025      3.242
REMARK  Name = 10407120
REMARK  4 active torsions:
REMARK  status: ('A' for Active; 'I' for Inactive)
REMARK    1  A    between atoms: N_2  and  C_19
REMARK    2  A    between atoms: C_3  and  C_6
REMARK    3  A    between atoms: C_5  and  C_16
REMARK    4  A    between atoms: C_19  and  C_21
REMARK                            x       y       z     vdW  Elec       q    Type
REMARK                         _______ _______ _______ _____ _____    ______ ____
ROOT
ATOM      1  O   UNL     1      33.428 -14.224 -26.621  0.00  0.00    -0.270 OA
ATOM      2  N   UNL     1      33.893 -12.579 -25.045  0.00  0.00    -0.267 N 
ATOM      3  C   UNL     1      33.725 -13.900 -25.470  0.00  0.00    +0.250 C 
ATOM      4  C   UNL     1      33.710 -11.494 -26.000  0.00  0.00    +0.116 C 
ENDROOT
BRANCH   3   6
ATOM      5  C   UNL     1      34.743 -15.992 -24.639  0.00  0.00    +0.006 C 
ATOM      6  C   UNL     1      33.900 -14.954 -24.427  0.00  0.00    +0.058 C 
BRANCH   5  16
ATOM      7  O   UNL     1      36.684 -21.362 -19.469  0.00  0.00    -0.275 OA
ATOM      8  N   UNL     1      35.521 -20.295 -21.138  0.00  0.00    -0.270 N 
ATOM      9  N   UNL     1      34.241 -19.200 -22.799  0.00  0.00    -0.229 NA
ATOM     10  C   UNL     1      37.538 -18.304 -21.199  0.00  0.00    +0.039 C 
ATOM     11  C   UNL     1      36.292 -18.184 -22.022  0.00  0.00    +0.010 C 
ATOM     12  C   UNL     1      37.268 -19.081 -19.920  0.00  0.00    +0.090 C 
ATOM     13  C   UNL     1      35.336 -19.198 -22.002  0.00  0.00    +0.130 C 
ATOM     14  C   UNL     1      36.100 -17.120 -22.904  0.00  0.00    +0.000 C 
ATOM     15  C   UNL     1      36.500 -20.364 -20.166  0.00  0.00    +0.227 C 
ATOM     16  C   UNL     1      34.972 -17.089 -23.717  0.00  0.00    +0.019 C 
ATOM     17  C   UNL     1      34.083 -18.145 -23.628  0.00  0.00    +0.100 C 
ATOM     18  H   UNL     1      34.914 -21.063 -21.234  0.00  0.00    +0.156 HD
ENDBRANCH   5  16
ENDBRANCH   3   6
BRANCH   2  19
ATOM     19  C   UNL     1      34.212 -12.170 -23.679  0.00  0.00    +0.158 C 
BRANCH  19  21
ATOM     20  O   UNL     1      34.995  -9.928 -24.022  0.00  0.00    -0.456 OA
ATOM     21  C   UNL     1      34.031 -10.694 -23.478  0.00  0.00    +0.139 A 
ATOM     22  C   UNL     1      33.076  -9.969 -22.849  0.00  0.00    +0.013 A 
ATOM     23  C   UNL     1      33.465  -8.612 -23.005  0.00  0.00    +0.033 A 
ATOM     24  C   UNL     1      34.651  -8.641 -23.733  0.00  0.00    +0.145 A 
ATOM     25  C   UNL     1      31.879 -10.472 -22.146  0.00  0.00    +0.034 C 
ATOM     26  C   UNL     1      32.948  -7.366 -22.613  0.00  0.00    +0.003 C 
ATOM     27  C   UNL     1      35.368  -7.506 -24.104  0.00  0.00    +0.037 C 
ATOM     28  C   UNL     1      33.647  -6.205 -22.971  0.00  0.00    +0.000 C 
ATOM     29  C   UNL     1      34.836  -6.277 -23.703  0.00  0.00    +0.003 C 
ENDBRANCH  19  21
ENDBRANCH   2  19
TORSDOF 4
ENDMDL
MODEL 9
REMARK VINA RESULT:      -9.9      6.328     11.734
REMARK  Name = 10407120
REMARK  4 active torsions:
REMARK  status: ('A' for Active; 'I' for Inactive)
REMARK    1  A    between atoms: N_2  and  C_19
REMARK    2  A    between atoms: C_3  and  C_6
REMARK    3  A    between atoms: C_5  and  C_16
REMARK    4  A    between atoms: C_19  and  C_21
REMARK                            x       y       z     vdW  Elec       q    Type
REMARK                         _______ _______ _______ _____ _____    ______ ____
ROOT
ATOM      1  O   UNL     1      38.869 -23.553 -13.035  0.00  0.00    -0.270 OA
ATOM      2  N   UNL     1      37.321 -25.183 -13.628  0.00  0.00    -0.267 N 
ATOM      3  C   UNL     1      38.105 -24.049 -13.864  0.00  0.00    +0.250 C 
ATOM      4  C   UNL     1      37.390 -25.841 -12.330  0.00  0.00    +0.116 C 
ENDROOT
BRANCH   3   6
ATOM      5  C   UNL     1      37.586 -22.116 -15.311  0.00  0.00    +0.006 C 
ATOM      6  C   UNL     1      37.955 -23.415 -15.207  0.00  0.00    +0.058 C 
BRANCH   5  16
ATOM      7  O   UNL     1      35.848 -18.919 -22.100  0.00  0.00    -0.275 OA
ATOM      8  N   UNL     1      36.893 -19.268 -20.085  0.00  0.00    -0.270 N 
ATOM      9  N   UNL     1      37.944 -19.533 -17.982  0.00  0.00    -0.229 NA
ATOM     10  C   UNL     1      35.400 -21.659 -19.784  0.00  0.00    +0.039 C 
ATOM     11  C   UNL     1      36.291 -21.148 -18.693  0.00  0.00    +0.010 C 
ATOM     12  C   UNL     1      34.847 -20.510 -20.613  0.00  0.00    +0.090 C 
ATOM     13  C   UNL     1      37.044 -19.990 -18.885  0.00  0.00    +0.130 C 
ATOM     14  C   UNL     1      36.475 -21.860 -17.507  0.00  0.00    +0.000 C 
ATOM     15  C   UNL     1      35.916 -19.520 -21.028  0.00  0.00    +0.227 C 
ATOM     16  C   UNL     1      37.378 -21.400 -16.556  0.00  0.00    +0.019 C 
ATOM     17  C   UNL     1      38.083 -20.244 -16.841  0.00  0.00    +0.100 C 
ATOM     18  H   UNL     1      37.526 -18.536 -20.263  0.00  0.00    +0.156 HD
ENDBRANCH   5  16
ENDBRANCH   3   6
BRANCH   2  19
ATOM     19  C   UNL     1      36.384 -25.770 -14.584  0.00  0.00    +0.158 C 
BRANCH  19  21
ATOM     20  O   UNL     1      34.900 -24.619 -16.078  0.00  0.00    -0.456 OA
ATOM     21  C   UNL     1      35.177 -24.902 -14.791  0.00  0.00    +0.139 A 
ATOM     22  C   UNL     1      34.298 -24.339 -13.928  0.00  0.00    +0.013 A 
ATOM     23  C   UNL     1      33.372 -23.630 -14.739  0.00  0.00    +0.033 A 
ATOM     24  C   UNL     1      33.787 -23.833 -16.051  0.00  0.00    +0.145 A 
ATOM     25  C   UNL     1      34.294 -24.436 -12.455  0.00  0.00    +0.034 C 
ATOM     26  C   UNL     1      32.233 -22.840 -14.509  0.00  0.00    +0.003 C 
ATOM     27  C   UNL     1      33.141 -23.302 -17.166  0.00  0.00    +0.037 C 
ATOM     28  C   UNL     1      31.562 -22.291 -15.610  0.00  0.00    +0.000 C 
ATOM     29  C   UNL     1      32.011 -22.518 -16.914  0.00  0.00    +0.003 C 
ENDBRANCH  19  21
ENDBRANCH   2  19
TORSDOF 4
ENDMDL
