MODEL 1
REMARK VINA RESULT:     -11.6      0.000      0.000
REMARK  Name = 11659487
REMARK  5 active torsions:
REMARK  status: ('A' for Active; 'I' for Inactive)
REMARK    1  A    between atoms: C_1  and  C_15
REMARK    2  A    between atoms: C_2  and  C_7
REMARK    3  A    between atoms: C_10  and  O_13
REMARK    4  A    between atoms: C_15  and  C_16
REMARK    5  A    between atoms: C_16  and  C_18
REMARK                            x       y       z     vdW  Elec       q    Type
REMARK                         _______ _______ _______ _____ _____    ______ ____
ROOT
ATOM      1  C   UNL     1      34.420 -21.010 -19.521  0.00  0.00    -0.022 C 
ATOM      2  C   UNL     1      35.358 -19.519 -21.175  0.00  0.00    -0.000 C 
ATOM      3  C   UNL     1      34.250 -20.142 -20.600  0.00  0.00    -0.004 C 
ATOM      4  C   UNL     1      35.699 -21.257 -19.020  0.00  0.00    -0.004 C 
ATOM      5  C   UNL     1      36.636 -19.765 -20.674  0.00  0.00    -0.000 C 
ATOM      6  C   UNL     1      36.806 -20.635 -19.596  0.00  0.00    -0.000 C 
ENDROOT
BRANCH   2   7
ATOM      7  C   UNL     1      35.181 -18.617 -22.293  0.00  0.00    +0.003 C 
ATOM      8  C   UNL     1      35.506 -17.268 -22.159  0.00  0.00    +0.037 C 
ATOM      9  C   UNL     1      34.686 -19.098 -23.505  0.00  0.00    +0.000 C 
ATOM     10  C   UNL     1      35.336 -16.399 -23.237  0.00  0.00    +0.139 C 
ATOM     11  C   UNL     1      34.515 -18.230 -24.583  0.00  0.00    +0.003 C 
ATOM     12  C   UNL     1      34.841 -16.880 -24.449  0.00  0.00    +0.037 C 
BRANCH  10  13
ATOM     13  O   UNL     1      35.654 -15.081 -23.106  0.00  0.00    -0.471 OA
ATOM     14  C   UNL     1      34.581 -14.144 -23.175  0.00  0.00    +0.252 C 
ENDBRANCH  10  13
ENDBRANCH   2   7
BRANCH   1  15
ATOM     15  C   UNL     1      33.237 -21.676 -18.905  0.00  0.00    +0.034 C 
BRANCH  15  16
ATOM     16  C   UNL     1      33.586 -22.625 -17.741  0.00  0.00    +0.064 C 
BRANCH  16  18
ATOM     17  N   UNL     1      31.244 -22.544 -17.128  0.00  0.00    -0.396 NA
ATOM     18  C   UNL     1      32.506 -22.697 -16.688  0.00  0.00    +0.110 C 
ATOM     19  C   UNL     1      32.872 -22.907 -15.377  0.00  0.00    +0.023 C 
ATOM     20  C   UNL     1      31.853 -22.968 -14.433  0.00  0.00    -0.015 C 
ATOM     21  C   UNL     1      30.282 -22.609 -16.182  0.00  0.00    +0.158 C 
ATOM     22  C   UNL     1      30.531 -22.817 -14.834  0.00  0.00    +0.100 C 
ATOM     23  N   UNL     1      28.929 -22.458 -16.576  0.00  0.00    -0.336 N 
ATOM     24  H   UNL     1      28.706 -22.308 -17.522  0.00  0.00    +0.144 HD
ATOM     25  H   UNL     1      28.212 -22.502 -15.901  0.00  0.00    +0.144 HD
ENDBRANCH  16  18
ENDBRANCH  15  16
ENDBRANCH   1  15
TORSDOF 5
ENDMDL
MODEL 2
REMARK VINA RESULT:     -11.6      4.442      8.659
REMARK  Name = 11659487
REMARK  5 active torsions:
REMARK  status: ('A' for Active; 'I' for Inactive)
REMARK    1  A    between atoms: C_1  and  C_15
REMARK    2  A    between atoms: C_2  and  C_7
REMARK    3  A    between atoms: C_10  and  O_13
REMARK    4  A    between atoms: C_15  and  C_16
REMARK    5  A    between atoms: C_16  and  C_18
REMARK                            x       y       z     vdW  Elec       q    Type
REMARK                         _______ _______ _______ _____ _____    ______ ____
ROOT
ATOM      1  C   UNL     1      35.389 -18.760 -22.524  0.00  0.00    -0.022 C 
ATOM      2  C   UNL     1      35.675 -20.021 -20.483  0.00  0.00    -0.000 C 
ATOM      3  C   UNL     1      34.870 -19.606 -21.545  0.00  0.00    -0.004 C 
ATOM      4  C   UNL     1      36.713 -18.327 -22.441  0.00  0.00    -0.004 C 
ATOM      5  C   UNL     1      36.998 -19.589 -20.400  0.00  0.00    -0.000 C 
ATOM      6  C   UNL     1      37.518 -18.742 -21.379  0.00  0.00    -0.000 C 
ENDROOT
BRANCH   2   7
ATOM      7  C   UNL     1      35.137 -20.900 -19.468  0.00  0.00    +0.003 C 
ATOM      8  C   UNL     1      35.976 -21.433 -18.490  0.00  0.00    +0.037 C 
ATOM      9  C   UNL     1      33.778 -21.213 -19.466  0.00  0.00    +0.000 C 
ATOM     10  C   UNL     1      35.456 -22.280 -17.511  0.00  0.00    +0.139 C 
ATOM     11  C   UNL     1      33.257 -22.060 -18.488  0.00  0.00    +0.003 C 
ATOM     12  C   UNL     1      34.097 -22.593 -17.509  0.00  0.00    +0.037 C 
BRANCH  10  13
ATOM     13  O   UNL     1      36.275 -22.801 -16.556  0.00  0.00    -0.471 OA
ATOM     14  C   UNL     1      37.483 -22.094 -16.281  0.00  0.00    +0.252 C 
ENDBRANCH  10  13
ENDBRANCH   2   7
BRANCH   1  15
ATOM     15  C   UNL     1      34.530 -18.316 -23.659  0.00  0.00    +0.034 C 
BRANCH  15  16
ATOM     16  C   UNL     1      35.216 -17.317 -24.612  0.00  0.00    +0.064 C 
BRANCH  16  18
ATOM     17  N   UNL     1      33.940 -15.455 -25.490  0.00  0.00    -0.396 NA
ATOM     18  C   UNL     1      34.693 -15.908 -24.472  0.00  0.00    +0.110 C 
ATOM     19  C   UNL     1      35.013 -15.192 -23.339  0.00  0.00    +0.023 C 
ATOM     20  C   UNL     1      34.515 -13.898 -23.240  0.00  0.00    -0.015 C 
ATOM     21  C   UNL     1      33.474 -14.193 -25.360  0.00  0.00    +0.158 C 
ATOM     22  C   UNL     1      33.730 -13.381 -24.266  0.00  0.00    +0.100 C 
ATOM     23  N   UNL     1      32.672 -13.652 -26.395  0.00  0.00    -0.336 N 
ATOM     24  H   UNL     1      32.465 -14.193 -27.190  0.00  0.00    +0.144 HD
ATOM     25  H   UNL     1      32.323 -12.734 -26.319  0.00  0.00    +0.144 HD
ENDBRANCH  16  18
ENDBRANCH  15  16
ENDBRANCH   1  15
TORSDOF 5
ENDMDL
MODEL 3
REMARK VINA RESULT:     -11.3      1.370      1.781
REMARK  Name = 11659487
REMARK  5 active torsions:
REMARK  status: ('A' for Active; 'I' for Inactive)
REMARK    1  A    between atoms: C_1  and  C_15
REMARK    2  A    between atoms: C_2  and  C_7
REMARK    3  A    between atoms: C_10  and  O_13
REMARK    4  A    between atoms: C_15  and  C_16
REMARK    5  A    between atoms: C_16  and  C_18
REMARK                            x       y       z     vdW  Elec       q    Type
REMARK                         _______ _______ _______ _____ _____    ______ ____
ROOT
ATOM      1  C   UNL     1      34.491 -20.944 -19.610  0.00  0.00    -0.022 C 
ATOM      2  C   UNL     1      35.395 -19.406 -21.240  0.00  0.00    -0.000 C 
ATOM      3  C   UNL     1      34.299 -20.043 -20.657  0.00  0.00    -0.004 C 
ATOM      4  C   UNL     1      35.780 -21.209 -19.146  0.00  0.00    -0.004 C 
ATOM      5  C   UNL     1      36.683 -19.671 -20.777  0.00  0.00    -0.000 C 
ATOM      6  C   UNL     1      36.876 -20.572 -19.730  0.00  0.00    -0.000 C 
ENDROOT
BRANCH   2   7
ATOM      7  C   UNL     1      35.195 -18.471 -22.325  0.00  0.00    +0.003 C 
ATOM      8  C   UNL     1      35.417 -17.109 -22.123  0.00  0.00    +0.037 C 
ATOM      9  C   UNL     1      34.781 -18.931 -23.575  0.00  0.00    +0.000 C 
ATOM     10  C   UNL     1      35.225 -16.208 -23.170  0.00  0.00    +0.139 C 
ATOM     11  C   UNL     1      34.588 -18.030 -24.622  0.00  0.00    +0.003 C 
ATOM     12  C   UNL     1      34.811 -16.668 -24.420  0.00  0.00    +0.037 C 
BRANCH  10  13
ATOM     13  O   UNL     1      35.442 -14.878 -22.972  0.00  0.00    -0.471 OA
ATOM     14  C   UNL     1      34.690 -14.243 -21.940  0.00  0.00    +0.252 C 
ENDBRANCH  10  13
ENDBRANCH   2   7
BRANCH   1  15
ATOM     15  C   UNL     1      33.320 -21.625 -18.986  0.00  0.00    +0.034 C 
BRANCH  15  16
ATOM     16  C   UNL     1      33.682 -22.902 -18.202  0.00  0.00    +0.064 C 
BRANCH  16  18
ATOM     17  N   UNL     1      34.005 -23.164 -15.816  0.00  0.00    -0.396 NA
ATOM     18  C   UNL     1      33.122 -22.917 -16.800  0.00  0.00    +0.110 C 
ATOM     19  C   UNL     1      31.776 -22.683 -16.622  0.00  0.00    +0.023 C 
ATOM     20  C   UNL     1      31.293 -22.702 -15.318  0.00  0.00    -0.015 C 
ATOM     21  C   UNL     1      33.498 -23.177 -14.563  0.00  0.00    +0.158 C 
ATOM     22  C   UNL     1      32.163 -22.954 -14.264  0.00  0.00    +0.100 C 
ATOM     23  N   UNL     1      34.373 -23.430 -13.477  0.00  0.00    -0.336 N 
ATOM     24  H   UNL     1      35.329 -23.594 -13.644  0.00  0.00    +0.144 HD
ATOM     25  H   UNL     1      34.023 -23.444 -12.557  0.00  0.00    +0.144 HD
ENDBRANCH  16  18
ENDBRANCH  15  16
ENDBRANCH   1  15
TORSDOF 5
ENDMDL
MODEL 4
REMARK VINA RESULT:     -11.0      4.474      8.516
REMARK  Name = 11659487
REMARK  5 active torsions:
REMARK  status: ('A' for Active; 'I' for Inactive)
REMARK    1  A    between atoms: C_1  and  C_15
REMARK    2  A    between atoms: C_2  and  C_7
REMARK    3  A    between atoms: C_10  and  O_13
REMARK    4  A    between atoms: C_15  and  C_16
REMARK    5  A    between atoms: C_16  and  C_18
REMARK                            x       y       z     vdW  Elec       q    Type
REMARK                         _______ _______ _______ _____ _____    ______ ____
ROOT
ATOM      1  C   UNL     1      35.111 -16.364 -22.929  0.00  0.00    -0.022 C 
ATOM      2  C   UNL     1      35.039 -18.653 -22.157  0.00  0.00    -0.000 C 
ATOM      3  C   UNL     1      35.196 -17.292 -21.891  0.00  0.00    -0.004 C 
ATOM      4  C   UNL     1      34.871 -16.797 -24.233  0.00  0.00    -0.004 C 
ATOM      5  C   UNL     1      34.798 -19.086 -23.461  0.00  0.00    -0.000 C 
ATOM      6  C   UNL     1      34.715 -18.158 -24.499  0.00  0.00    -0.000 C 
ENDROOT
BRANCH   2   7
ATOM      7  C   UNL     1      35.125 -19.615 -21.080  0.00  0.00    +0.003 C 
ATOM      8  C   UNL     1      33.965 -20.194 -20.567  0.00  0.00    +0.037 C 
ATOM      9  C   UNL     1      36.369 -19.965 -20.556  0.00  0.00    +0.000 C 
ATOM     10  C   UNL     1      34.049 -21.122 -19.529  0.00  0.00    +0.139 C 
ATOM     11  C   UNL     1      36.454 -20.892 -19.518  0.00  0.00    +0.003 C 
ATOM     12  C   UNL     1      35.293 -21.472 -19.005  0.00  0.00    +0.037 C 
BRANCH  10  13
ATOM     13  O   UNL     1      32.916 -21.688 -19.028  0.00  0.00    -0.471 OA
ATOM     14  C   UNL     1      33.051 -22.474 -17.846  0.00  0.00    +0.252 C 
ENDBRANCH  10  13
ENDBRANCH   2   7
BRANCH   1  15
ATOM     15  C   UNL     1      35.279 -14.910 -22.646  0.00  0.00    +0.034 C 
BRANCH  15  16
ATOM     16  C   UNL     1      34.214 -14.014 -23.309  0.00  0.00    +0.064 C 
BRANCH  16  18
ATOM     17  N   UNL     1      33.024 -11.987 -22.728  0.00  0.00    -0.396 NA
ATOM     18  C   UNL     1      33.416 -13.205 -22.315  0.00  0.00    +0.110 C 
ATOM     19  C   UNL     1      33.148 -13.752 -21.080  0.00  0.00    +0.023 C 
ATOM     20  C   UNL     1      32.410 -12.980 -20.188  0.00  0.00    -0.015 C 
ATOM     21  C   UNL     1      32.310 -11.266 -21.835  0.00  0.00    +0.158 C 
ATOM     22  C   UNL     1      31.980 -11.713 -20.564  0.00  0.00    +0.100 C 
ATOM     23  N   UNL     1      31.863  -9.973 -22.204  0.00  0.00    -0.336 N 
ATOM     24  H   UNL     1      32.075  -9.615 -23.095  0.00  0.00    +0.144 HD
ATOM     25  H   UNL     1      31.342  -9.432 -21.567  0.00  0.00    +0.144 HD
ENDBRANCH  16  18
ENDBRANCH  15  16
ENDBRANCH   1  15
TORSDOF 5
ENDMDL
MODEL 5
REMARK VINA RESULT:     -10.9      4.675      9.495
REMARK  Name = 11659487
REMARK  5 active torsions:
REMARK  status: ('A' for Active; 'I' for Inactive)
REMARK    1  A    between atoms: C_1  and  C_15
REMARK    2  A    between atoms: C_2  and  C_7
REMARK    3  A    between atoms: C_10  and  O_13
REMARK    4  A    between atoms: C_15  and  C_16
REMARK    5  A    between atoms: C_16  and  C_18
REMARK                            x       y       z     vdW  Elec       q    Type
REMARK                         _______ _______ _______ _____ _____    ______ ____
ROOT
ATOM      1  C   UNL     1      35.188 -16.643 -22.860  0.00  0.00    -0.022 C 
ATOM      2  C   UNL     1      35.128 -18.912 -22.032  0.00  0.00    -0.000 C 
ATOM      3  C   UNL     1      35.242 -17.541 -21.795  0.00  0.00    -0.004 C 
ATOM      4  C   UNL     1      35.022 -17.115 -24.163  0.00  0.00    -0.004 C 
ATOM      5  C   UNL     1      34.961 -19.383 -23.334  0.00  0.00    -0.000 C 
ATOM      6  C   UNL     1      34.909 -18.485 -24.399  0.00  0.00    -0.000 C 
ENDROOT
BRANCH   2   7
ATOM      7  C   UNL     1      35.182 -19.844 -20.927  0.00  0.00    +0.003 C 
ATOM      8  C   UNL     1      34.015 -20.459 -20.475  0.00  0.00    +0.037 C 
ATOM      9  C   UNL     1      36.401 -20.128 -20.313  0.00  0.00    +0.000 C 
ATOM     10  C   UNL     1      34.067 -21.358 -19.409  0.00  0.00    +0.139 C 
ATOM     11  C   UNL     1      36.455 -21.026 -19.248  0.00  0.00    +0.003 C 
ATOM     12  C   UNL     1      35.287 -21.642 -18.796  0.00  0.00    +0.037 C 
BRANCH  10  13
ATOM     13  O   UNL     1      32.928 -21.959 -18.968  0.00  0.00    -0.471 OA
ATOM     14  C   UNL     1      32.908 -22.398 -17.612  0.00  0.00    +0.252 C 
ENDBRANCH  10  13
ENDBRANCH   2   7
BRANCH   1  15
ATOM     15  C   UNL     1      35.310 -15.178 -22.608  0.00  0.00    +0.034 C 
BRANCH  15  16
ATOM     16  C   UNL     1      33.985 -14.403 -22.757  0.00  0.00    +0.064 C 
BRANCH  16  18
ATOM     17  N   UNL     1      34.449 -12.159 -23.540  0.00  0.00    -0.396 NA
ATOM     18  C   UNL     1      34.013 -13.387 -23.873  0.00  0.00    +0.110 C 
ATOM     19  C   UNL     1      33.600 -13.772 -25.130  0.00  0.00    +0.023 C 
ATOM     20  C   UNL     1      33.639 -12.812 -26.135  0.00  0.00    -0.015 C 
ATOM     21  C   UNL     1      34.471 -11.253 -24.542  0.00  0.00    +0.158 C 
ATOM     22  C   UNL     1      34.081 -11.526 -25.844  0.00  0.00    +0.100 C 
ATOM     23  N   UNL     1      34.921  -9.939 -24.263  0.00  0.00    -0.336 N 
ATOM     24  H   UNL     1      35.207  -9.700 -23.352  0.00  0.00    +0.144 HD
ATOM     25  H   UNL     1      34.945  -9.264 -24.980  0.00  0.00    +0.144 HD
ENDBRANCH  16  18
ENDBRANCH  15  16
ENDBRANCH   1  15
TORSDOF 5
ENDMDL
MODEL 6
REMARK VINA RESULT:     -10.7      3.833      8.383
REMARK  Name = 11659487
REMARK  5 active torsions:
REMARK  status: ('A' for Active; 'I' for Inactive)
REMARK    1  A    between atoms: C_1  and  C_15
REMARK    2  A    between atoms: C_2  and  C_7
REMARK    3  A    between atoms: C_10  and  O_13
REMARK    4  A    between atoms: C_15  and  C_16
REMARK    5  A    between atoms: C_16  and  C_18
REMARK                            x       y       z     vdW  Elec       q    Type
REMARK                         _______ _______ _______ _____ _____    ______ ____
ROOT
ATOM      1  C   UNL     1      35.430 -18.725 -22.659  0.00  0.00    -0.022 C 
ATOM      2  C   UNL     1      35.894 -19.921 -20.612  0.00  0.00    -0.000 C 
ATOM      3  C   UNL     1      35.004 -19.556 -21.623  0.00  0.00    -0.004 C 
ATOM      4  C   UNL     1      36.744 -18.257 -22.683  0.00  0.00    -0.004 C 
ATOM      5  C   UNL     1      37.208 -19.454 -20.636  0.00  0.00    -0.000 C 
ATOM      6  C   UNL     1      37.633 -18.622 -21.672  0.00  0.00    -0.000 C 
ENDROOT
BRANCH   2   7
ATOM      7  C   UNL     1      35.453 -20.785 -19.538  0.00  0.00    +0.003 C 
ATOM      8  C   UNL     1      34.104 -21.113 -19.416  0.00  0.00    +0.037 C 
ATOM      9  C   UNL     1      36.378 -21.290 -18.625  0.00  0.00    +0.000 C 
ATOM     10  C   UNL     1      33.679 -21.947 -18.381  0.00  0.00    +0.139 C 
ATOM     11  C   UNL     1      35.955 -22.122 -17.589  0.00  0.00    +0.003 C 
ATOM     12  C   UNL     1      34.604 -22.452 -17.468  0.00  0.00    +0.037 C 
BRANCH  10  13
ATOM     13  O   UNL     1      32.361 -22.268 -18.262  0.00  0.00    -0.471 OA
ATOM     14  C   UNL     1      31.879 -22.560 -16.952  0.00  0.00    +0.252 C 
ENDBRANCH  10  13
ENDBRANCH   2   7
BRANCH   1  15
ATOM     15  C   UNL     1      34.480 -18.334 -23.740  0.00  0.00    +0.034 C 
BRANCH  15  16
ATOM     16  C   UNL     1      34.986 -17.186 -24.636  0.00  0.00    +0.064 C 
BRANCH  16  18
ATOM     17  N   UNL     1      34.821 -15.499 -22.905  0.00  0.00    -0.396 NA
ATOM     18  C   UNL     1      34.523 -15.824 -24.175  0.00  0.00    +0.110 C 
ATOM     19  C   UNL     1      33.840 -15.023 -25.063  0.00  0.00    +0.023 C 
ATOM     20  C   UNL     1      33.427 -13.775 -24.608  0.00  0.00    -0.015 C 
ATOM     21  C   UNL     1      34.404 -14.281 -22.498  0.00  0.00    +0.158 C 
ATOM     22  C   UNL     1      33.710 -13.389 -23.302  0.00  0.00    +0.100 C 
ATOM     23  N   UNL     1      34.686 -13.872 -21.171  0.00  0.00    -0.336 N 
ATOM     24  H   UNL     1      35.175 -14.473 -20.565  0.00  0.00    +0.144 HD
ATOM     25  H   UNL     1      34.390 -12.987 -20.855  0.00  0.00    +0.144 HD
ENDBRANCH  16  18
ENDBRANCH  15  16
ENDBRANCH   1  15
TORSDOF 5
ENDMDL
MODEL 7
REMARK VINA RESULT:     -10.7      1.111      1.783
REMARK  Name = 11659487
REMARK  5 active torsions:
REMARK  status: ('A' for Active; 'I' for Inactive)
REMARK    1  A    between atoms: C_1  and  C_15
REMARK    2  A    between atoms: C_2  and  C_7
REMARK    3  A    between atoms: C_10  and  O_13
REMARK    4  A    between atoms: C_15  and  C_16
REMARK    5  A    between atoms: C_16  and  C_18
REMARK                            x       y       z     vdW  Elec       q    Type
REMARK                         _______ _______ _______ _____ _____    ______ ____
ROOT
ATOM      1  C   UNL     1      34.254 -21.272 -19.269  0.00  0.00    -0.022 C 
ATOM      2  C   UNL     1      35.324 -19.694 -20.753  0.00  0.00    -0.000 C 
ATOM      3  C   UNL     1      34.163 -20.262 -20.226  0.00  0.00    -0.004 C 
ATOM      4  C   UNL     1      35.505 -21.715 -18.839  0.00  0.00    -0.004 C 
ATOM      5  C   UNL     1      36.574 -20.136 -20.323  0.00  0.00    -0.000 C 
ATOM      6  C   UNL     1      36.665 -21.147 -19.366  0.00  0.00    -0.000 C 
ENDROOT
BRANCH   2   7
ATOM      7  C   UNL     1      35.229 -18.645 -21.745  0.00  0.00    +0.003 C 
ATOM      8  C   UNL     1      34.691 -18.919 -23.002  0.00  0.00    +0.037 C 
ATOM      9  C   UNL     1      35.674 -17.358 -21.443  0.00  0.00    +0.000 C 
ATOM     10  C   UNL     1      34.600 -17.907 -23.958  0.00  0.00    +0.139 C 
ATOM     11  C   UNL     1      35.583 -16.346 -22.398  0.00  0.00    +0.003 C 
ATOM     12  C   UNL     1      35.045 -16.621 -23.656  0.00  0.00    +0.037 C 
BRANCH  10  13
ATOM     13  O   UNL     1      34.075 -18.175 -25.185  0.00  0.00    -0.471 OA
ATOM     14  C   UNL     1      32.717 -18.609 -25.230  0.00  0.00    +0.252 C 
ENDBRANCH  10  13
ENDBRANCH   2   7
BRANCH   1  15
ATOM     15  C   UNL     1      33.015 -21.881 -18.706  0.00  0.00    +0.034 C 
BRANCH  15  16
ATOM     16  C   UNL     1      33.266 -22.827 -17.515  0.00  0.00    +0.064 C 
BRANCH  16  18
ATOM     17  N   UNL     1      30.921 -22.617 -16.943  0.00  0.00    -0.396 NA
ATOM     18  C   UNL     1      32.172 -22.777 -16.475  0.00  0.00    +0.110 C 
ATOM     19  C   UNL     1      32.516 -22.894 -15.146  0.00  0.00    +0.023 C 
ATOM     20  C   UNL     1      31.485 -22.844 -14.214  0.00  0.00    -0.015 C 
ATOM     21  C   UNL     1      29.947 -22.572 -16.009  0.00  0.00    +0.158 C 
ATOM     22  C   UNL     1      30.173 -22.680 -14.645  0.00  0.00    +0.100 C 
ATOM     23  N   UNL     1      28.604 -22.406 -16.432  0.00  0.00    -0.336 N 
ATOM     24  H   UNL     1      28.397 -22.324 -17.390  0.00  0.00    +0.144 HD
ATOM     25  H   UNL     1      27.879 -22.371 -15.766  0.00  0.00    +0.144 HD
ENDBRANCH  16  18
ENDBRANCH  15  16
ENDBRANCH   1  15
TORSDOF 5
ENDMDL
MODEL 8
REMARK VINA RESULT:     -10.7      3.734      8.679
REMARK  Name = 11659487
REMARK  5 active torsions:
REMARK  status: ('A' for Active; 'I' for Inactive)
REMARK    1  A    between atoms: C_1  and  C_15
REMARK    2  A    between atoms: C_2  and  C_7
REMARK    3  A    between atoms: C_10  and  O_13
REMARK    4  A    between atoms: C_15  and  C_16
REMARK    5  A    between atoms: C_16  and  C_18
REMARK                            x       y       z     vdW  Elec       q    Type
REMARK                         _______ _______ _______ _____ _____    ______ ____
ROOT
ATOM      1  C   UNL     1      34.729 -22.148 -17.991  0.00  0.00    -0.022 C 
ATOM      2  C   UNL     1      33.114 -22.850 -16.337  0.00  0.00    -0.000 C 
ATOM      3  C   UNL     1      33.412 -22.444 -17.638  0.00  0.00    -0.004 C 
ATOM      4  C   UNL     1      35.746 -22.256 -17.043  0.00  0.00    -0.004 C 
ATOM      5  C   UNL     1      34.130 -22.958 -15.389  0.00  0.00    -0.000 C 
ATOM      6  C   UNL     1      35.447 -22.661 -15.741  0.00  0.00    -0.000 C 
ENDROOT
BRANCH   2   7
ATOM      7  C   UNL     1      31.748 -23.159 -15.971  0.00  0.00    +0.003 C 
ATOM      8  C   UNL     1      30.700 -22.388 -16.472  0.00  0.00    +0.037 C 
ATOM      9  C   UNL     1      31.480 -24.230 -15.119  0.00  0.00    +0.000 C 
ATOM     10  C   UNL     1      29.384 -22.686 -16.120  0.00  0.00    +0.139 C 
ATOM     11  C   UNL     1      30.164 -24.529 -14.766  0.00  0.00    +0.003 C 
ATOM     12  C   UNL     1      29.116 -23.757 -15.268  0.00  0.00    +0.037 C 
BRANCH  10  13
ATOM     13  O   UNL     1      28.360 -21.933 -16.609  0.00  0.00    -0.471 OA
ATOM     14  C   UNL     1      27.084 -22.092 -15.993  0.00  0.00    +0.252 C 
ENDBRANCH  10  13
ENDBRANCH   2   7
BRANCH   1  15
ATOM     15  C   UNL     1      35.049 -21.715 -19.382  0.00  0.00    +0.034 C 
BRANCH  15  16
ATOM     16  C   UNL     1      34.202 -20.527 -19.880  0.00  0.00    +0.064 C 
BRANCH  16  18
ATOM     17  N   UNL     1      36.185 -19.418 -20.719  0.00  0.00    -0.396 NA
ATOM     18  C   UNL     1      34.893 -19.711 -20.946  0.00  0.00    +0.110 C 
ATOM     19  C   UNL     1      34.172 -19.326 -22.056  0.00  0.00    +0.023 C 
ATOM     20  C   UNL     1      34.837 -18.576 -23.019  0.00  0.00    -0.015 C 
ATOM     21  C   UNL     1      36.798 -18.688 -21.676  0.00  0.00    +0.158 C 
ATOM     22  C   UNL     1      36.175 -18.246 -22.834  0.00  0.00    +0.100 C 
ATOM     23  N   UNL     1      38.162 -18.344 -21.503  0.00  0.00    -0.336 N 
ATOM     24  H   UNL     1      38.644 -18.636 -20.696  0.00  0.00    +0.144 HD
ATOM     25  H   UNL     1      38.627 -17.812 -22.189  0.00  0.00    +0.144 HD
ENDBRANCH  16  18
ENDBRANCH  15  16
ENDBRANCH   1  15
TORSDOF 5
ENDMDL
MODEL 9
REMARK VINA RESULT:     -10.6      3.604      8.463
REMARK  Name = 11659487
REMARK  5 active torsions:
REMARK  status: ('A' for Active; 'I' for Inactive)
REMARK    1  A    between atoms: C_1  and  C_15
REMARK    2  A    between atoms: C_2  and  C_7
REMARK    3  A    between atoms: C_10  and  O_13
REMARK    4  A    between atoms: C_15  and  C_16
REMARK    5  A    between atoms: C_16  and  C_18
REMARK                            x       y       z     vdW  Elec       q    Type
REMARK                         _______ _______ _______ _____ _____    ______ ____
ROOT
ATOM      1  C   UNL     1      35.726 -21.876 -18.103  0.00  0.00    -0.022 C 
ATOM      2  C   UNL     1      34.216 -22.661 -16.388  0.00  0.00    -0.000 C 
ATOM      3  C   UNL     1      34.442 -22.241 -17.700  0.00  0.00    -0.004 C 
ATOM      4  C   UNL     1      36.784 -21.929 -17.194  0.00  0.00    -0.004 C 
ATOM      5  C   UNL     1      35.273 -22.715 -15.480  0.00  0.00    -0.000 C 
ATOM      6  C   UNL     1      36.557 -22.348 -15.883  0.00  0.00    -0.000 C 
ENDROOT
BRANCH   2   7
ATOM      7  C   UNL     1      32.884 -23.042 -15.971  0.00  0.00    +0.003 C 
ATOM      8  C   UNL     1      31.771 -22.529 -16.636  0.00  0.00    +0.037 C 
ATOM      9  C   UNL     1      32.713 -23.922 -14.903  0.00  0.00    +0.000 C 
ATOM     10  C   UNL     1      30.487 -22.897 -16.234  0.00  0.00    +0.139 C 
ATOM     11  C   UNL     1      31.429 -24.290 -14.500  0.00  0.00    +0.003 C 
ATOM     12  C   UNL     1      30.316 -23.778 -15.166  0.00  0.00    +0.037 C 
BRANCH  10  13
ATOM     13  O   UNL     1      29.400 -22.396 -16.883  0.00  0.00    -0.471 OA
ATOM     14  C   UNL     1      28.147 -23.032 -16.639  0.00  0.00    +0.252 C 
ENDBRANCH  10  13
ENDBRANCH   2   7
BRANCH   1  15
ATOM     15  C   UNL     1      35.969 -21.427 -19.504  0.00  0.00    +0.034 C 
BRANCH  15  16
ATOM     16  C   UNL     1      34.862 -20.517 -20.072  0.00  0.00    +0.064 C 
BRANCH  16  18
ATOM     17  N   UNL     1      34.485 -19.414 -22.196  0.00  0.00    -0.396 NA
ATOM     18  C   UNL     1      35.346 -19.615 -21.183  0.00  0.00    +0.110 C 
ATOM     19  C   UNL     1      36.609 -19.072 -21.092  0.00  0.00    +0.023 C 
ATOM     20  C   UNL     1      37.024 -18.246 -22.131  0.00  0.00    -0.015 C 
ATOM     21  C   UNL     1      34.923 -18.607 -23.187  0.00  0.00    +0.158 C 
ATOM     22  C   UNL     1      36.171 -18.004 -23.202  0.00  0.00    +0.100 C 
ATOM     23  N   UNL     1      34.066 -18.350 -24.285  0.00  0.00    -0.336 N 
ATOM     24  H   UNL     1      33.171 -18.757 -24.316  0.00  0.00    +0.144 HD
ATOM     25  H   UNL     1      34.366 -17.765 -25.018  0.00  0.00    +0.144 HD
ENDBRANCH  16  18
ENDBRANCH  15  16
ENDBRANCH   1  15
TORSDOF 5
ENDMDL
