MODEL 1
REMARK VINA RESULT:     -11.8      0.000      0.000
REMARK  Name = 49831257
REMARK  4 active torsions:
REMARK  status: ('A' for Active; 'I' for Inactive)
REMARK    1  A    between atoms: C_1  and  C_23
REMARK    2  A    between atoms: C_4  and  C_14
REMARK    3  A    between atoms: C_12  and  C_20
REMARK    4  A    between atoms: C_23  and  N_27
REMARK                            x       y       z     vdW  Elec       q    Type
REMARK                         _______ _______ _______ _____ _____    ______ ____
ROOT
ATOM      1  C   UNL     1      35.484 -20.168 -20.853  0.00  0.00    -0.043 C 
ATOM      2  C   UNL     1      34.104 -20.077 -20.680  0.00  0.00    -0.006 C 
ATOM      3  C   UNL     1      36.250 -20.926 -19.966  0.00  0.00    -0.006 C 
ATOM      4  C   UNL     1      34.254 -21.499 -18.733  0.00  0.00    +0.016 C 
ATOM      5  C   UNL     1      33.488 -20.741 -19.620  0.00  0.00    +0.001 C 
ATOM      6  C   UNL     1      35.635 -21.591 -18.906  0.00  0.00    +0.001 C 
ENDROOT
BRANCH   4  14
ATOM      7  O   UNL     1      36.478 -25.189 -12.845  0.00  0.00    -0.274 OA
ATOM      8  N   UNL     1      37.046 -23.957 -14.775  0.00  0.00    -0.217 N 
ATOM      9  N   UNL     1      34.352 -22.837 -16.601  0.00  0.00    -0.152 N 
ATOM     10  N   UNL     1      35.702 -22.910 -16.450  0.00  0.00    -0.092 NA
ATOM     11  N   UNL     1      34.674 -24.016 -14.738  0.00  0.00    -0.319 NA
ATOM     12  C   UNL     1      37.300 -24.695 -13.604  0.00  0.00    +0.234 C 
ATOM     13  C   UNL     1      35.830 -23.622 -15.332  0.00  0.00    +0.167 C 
ATOM     14  C   UNL     1      33.604 -22.200 -17.612  0.00  0.00    +0.077 C 
ATOM     15  C   UNL     1      33.752 -23.520 -15.533  0.00  0.00    +0.219 C 
ATOM     16  C   UNL     1      32.256 -22.254 -17.544  0.00  0.00    +0.017 C 
ATOM     17  C   UNL     1      32.332 -23.562 -15.483  0.00  0.00    +0.051 C 
ATOM     18  C   UNL     1      31.615 -22.955 -16.445  0.00  0.00    +0.005 C 
ATOM     19  H   UNL     1      37.841 -23.638 -15.260  0.00  0.00    +0.167 HD
BRANCH  12  20
ATOM     20  C   UNL     1      38.753 -24.873 -13.290  0.00  0.00    +0.077 C 
ATOM     21  C   UNL     1      39.742 -24.916 -14.418  0.00  0.00    +0.010 C 
ATOM     22  C   UNL     1      39.425 -26.166 -13.650  0.00  0.00    +0.010 C 
ENDBRANCH  12  20
ENDBRANCH   4  14
BRANCH   1  23
ATOM     23  C   UNL     1      36.149 -19.452 -21.999  0.00  0.00    -0.050 C 
BRANCH  23  27
ATOM     24  S   UNL     1      34.542 -15.987 -24.407  0.00  0.00    -0.014 S 
ATOM     25  O   UNL     1      33.397 -15.114 -24.567  0.00  0.00    -0.173 OA
ATOM     26  O   UNL     1      35.714 -15.845 -25.249  0.00  0.00    -0.173 OA
ATOM     27  N   UNL     1      35.304 -18.380 -22.535  0.00  0.00    +0.392 N 
ATOM     28  C   UNL     1      35.003 -18.642 -23.953  0.00  0.00    -0.051 C 
ATOM     29  C   UNL     1      35.969 -17.080 -22.347  0.00  0.00    -0.051 C 
ATOM     30  C   UNL     1      35.059 -15.910 -22.709  0.00  0.00    +0.128 C 
ATOM     31  C   UNL     1      33.974 -17.667 -24.513  0.00  0.00    +0.128 C 
ATOM     32  H   UNL     1      34.419 -18.353 -22.030  0.00  0.00    -0.079 HD
ENDBRANCH  23  27
ENDBRANCH   1  23
TORSDOF 4
ENDMDL
MODEL 2
REMARK VINA RESULT:     -10.6      2.351      4.937
REMARK  Name = 49831257
REMARK  4 active torsions:
REMARK  status: ('A' for Active; 'I' for Inactive)
REMARK    1  A    between atoms: C_1  and  C_23
REMARK    2  A    between atoms: C_4  and  C_14
REMARK    3  A    between atoms: C_12  and  C_20
REMARK    4  A    between atoms: C_23  and  N_27
REMARK                            x       y       z     vdW  Elec       q    Type
REMARK                         _______ _______ _______ _____ _____    ______ ____
ROOT
ATOM      1  C   UNL     1      35.402 -20.097 -21.340  0.00  0.00    -0.043 C 
ATOM      2  C   UNL     1      36.562 -20.521 -20.693  0.00  0.00    -0.006 C 
ATOM      3  C   UNL     1      34.157 -20.301 -20.744  0.00  0.00    -0.006 C 
ATOM      4  C   UNL     1      35.233 -21.354 -18.855  0.00  0.00    +0.016 C 
ATOM      5  C   UNL     1      36.478 -21.150 -19.451  0.00  0.00    +0.001 C 
ATOM      6  C   UNL     1      34.072 -20.929 -19.502  0.00  0.00    +0.001 C 
ENDROOT
BRANCH   4  14
ATOM      7  O   UNL     1      29.878 -23.933 -14.624  0.00  0.00    -0.274 OA
ATOM      8  N   UNL     1      30.517 -22.889 -16.641  0.00  0.00    -0.217 N 
ATOM      9  N   UNL     1      33.906 -22.401 -16.987  0.00  0.00    -0.152 N 
ATOM     10  N   UNL     1      32.655 -22.269 -17.507  0.00  0.00    -0.092 NA
ATOM     11  N   UNL     1      32.539 -23.273 -15.459  0.00  0.00    -0.319 NA
ATOM     12  C   UNL     1      29.613 -23.430 -15.708  0.00  0.00    +0.234 C 
ATOM     13  C   UNL     1      31.890 -22.800 -16.556  0.00  0.00    +0.167 C 
ATOM     14  C   UNL     1      35.144 -22.019 -17.543  0.00  0.00    +0.077 C 
ATOM     15  C   UNL     1      33.799 -23.023 -15.735  0.00  0.00    +0.219 C 
ATOM     16  C   UNL     1      36.268 -22.265 -16.837  0.00  0.00    +0.017 C 
ATOM     17  C   UNL     1      34.997 -23.272 -15.011  0.00  0.00    +0.051 C 
ATOM     18  C   UNL     1      36.179 -22.910 -15.538  0.00  0.00    +0.005 C 
ATOM     19  H   UNL     1      30.115 -22.526 -17.464  0.00  0.00    +0.167 HD
BRANCH  12  20
ATOM     20  C   UNL     1      28.178 -23.361 -16.127  0.00  0.00    +0.077 C 
ATOM     21  C   UNL     1      27.731 -22.238 -17.015  0.00  0.00    +0.010 C 
ATOM     22  C   UNL     1      27.307 -22.270 -15.576  0.00  0.00    +0.010 C 
ENDBRANCH  12  20
ENDBRANCH   4  14
BRANCH   1  23
ATOM     23  C   UNL     1      35.493 -19.417 -22.680  0.00  0.00    -0.050 C 
BRANCH  23  27
ATOM     24  S   UNL     1      34.657 -15.005 -23.155  0.00  0.00    -0.014 S 
ATOM     25  O   UNL     1      33.661 -13.979 -22.922  0.00  0.00    -0.173 OA
ATOM     26  O   UNL     1      35.933 -14.685 -23.763  0.00  0.00    -0.173 OA
ATOM     27  N   UNL     1      34.866 -18.092 -22.662  0.00  0.00    +0.392 N 
ATOM     28  C   UNL     1      34.713 -17.591 -24.039  0.00  0.00    -0.051 C 
ATOM     29  C   UNL     1      35.662 -17.175 -21.829  0.00  0.00    -0.051 C 
ATOM     30  C   UNL     1      34.962 -15.837 -21.615  0.00  0.00    +0.128 C 
ATOM     31  C   UNL     1      33.897 -16.306 -24.097  0.00  0.00    +0.128 C 
ATOM     32  H   UNL     1      33.935 -18.156 -22.250  0.00  0.00    -0.079 HD
ENDBRANCH  23  27
ENDBRANCH   1  23
TORSDOF 4
ENDMDL
MODEL 3
REMARK VINA RESULT:     -10.3      2.367      4.745
REMARK  Name = 49831257
REMARK  4 active torsions:
REMARK  status: ('A' for Active; 'I' for Inactive)
REMARK    1  A    between atoms: C_1  and  C_23
REMARK    2  A    between atoms: C_4  and  C_14
REMARK    3  A    between atoms: C_12  and  C_20
REMARK    4  A    between atoms: C_23  and  N_27
REMARK                            x       y       z     vdW  Elec       q    Type
REMARK                         _______ _______ _______ _____ _____    ______ ____
ROOT
ATOM      1  C   UNL     1      35.916 -19.112 -21.923  0.00  0.00    -0.043 C 
ATOM      2  C   UNL     1      37.113 -19.181 -21.211  0.00  0.00    -0.006 C 
ATOM      3  C   UNL     1      34.784 -19.776 -21.449  0.00  0.00    -0.006 C 
ATOM      4  C   UNL     1      36.048 -20.578 -19.553  0.00  0.00    +0.016 C 
ATOM      5  C   UNL     1      37.180 -19.914 -20.027  0.00  0.00    +0.001 C 
ATOM      6  C   UNL     1      34.850 -20.510 -20.264  0.00  0.00    +0.001 C 
ENDROOT
BRANCH   4  14
ATOM      7  O   UNL     1      31.291 -24.051 -15.248  0.00  0.00    -0.274 OA
ATOM      8  N   UNL     1      31.678 -22.785 -17.200  0.00  0.00    -0.217 N 
ATOM      9  N   UNL     1      34.968 -21.910 -17.708  0.00  0.00    -0.152 N 
ATOM     10  N   UNL     1      33.677 -21.871 -18.137  0.00  0.00    -0.092 NA
ATOM     11  N   UNL     1      33.806 -23.045 -16.183  0.00  0.00    -0.319 NA
ATOM     12  C   UNL     1      30.901 -23.493 -16.265  0.00  0.00    +0.234 C 
ATOM     13  C   UNL     1      33.037 -22.556 -17.191  0.00  0.00    +0.167 C 
ATOM     14  C   UNL     1      36.118 -21.354 -18.303  0.00  0.00    +0.077 C 
ATOM     15  C   UNL     1      35.012 -22.640 -16.512  0.00  0.00    +0.219 C 
ATOM     16  C   UNL     1      37.309 -21.536 -17.691  0.00  0.00    +0.017 C 
ATOM     17  C   UNL     1      36.276 -22.818 -15.887  0.00  0.00    +0.051 C 
ATOM     18  C   UNL     1      37.377 -22.291 -16.451  0.00  0.00    +0.005 C 
ATOM     19  H   UNL     1      31.185 -22.401 -17.962  0.00  0.00    +0.167 HD
BRANCH  12  20
ATOM     20  C   UNL     1      29.441 -23.544 -16.588  0.00  0.00    +0.077 C 
ATOM     21  C   UNL     1      28.622 -22.293 -16.462  0.00  0.00    +0.010 C 
ATOM     22  C   UNL     1      28.441 -23.411 -15.476  0.00  0.00    +0.010 C 
ENDBRANCH  12  20
ENDBRANCH   4  14
BRANCH   1  23
ATOM     23  C   UNL     1      35.843 -18.319 -23.201  0.00  0.00    -0.050 C 
BRANCH  23  27
ATOM     24  S   UNL     1      34.126 -14.143 -23.253  0.00  0.00    -0.014 S 
ATOM     25  O   UNL     1      32.936 -13.372 -22.956  0.00  0.00    -0.173 OA
ATOM     26  O   UNL     1      35.321 -13.507 -23.771  0.00  0.00    -0.173 OA
ATOM     27  N   UNL     1      34.956 -17.159 -23.072  0.00  0.00    +0.392 N 
ATOM     28  C   UNL     1      34.731 -16.552 -24.395  0.00  0.00    -0.051 C 
ATOM     29  C   UNL     1      35.531 -16.196 -22.117  0.00  0.00    -0.051 C 
ATOM     30  C   UNL     1      34.567 -15.059 -21.795  0.00  0.00    +0.128 C 
ATOM     31  C   UNL     1      33.668 -15.460 -24.355  0.00  0.00    +0.128 C 
ATOM     32  H   UNL     1      34.051 -17.455 -22.708  0.00  0.00    -0.079 HD
ENDBRANCH  23  27
ENDBRANCH   1  23
TORSDOF 4
ENDMDL
MODEL 4
REMARK VINA RESULT:      -9.9      7.226     12.421
REMARK  Name = 49831257
REMARK  4 active torsions:
REMARK  status: ('A' for Active; 'I' for Inactive)
REMARK    1  A    between atoms: C_1  and  C_23
REMARK    2  A    between atoms: C_4  and  C_14
REMARK    3  A    between atoms: C_12  and  C_20
REMARK    4  A    between atoms: C_23  and  N_27
REMARK                            x       y       z     vdW  Elec       q    Type
REMARK                         _______ _______ _______ _____ _____    ______ ____
ROOT
ATOM      1  C   UNL     1      34.912  -8.309 -23.501  0.00  0.00    -0.043 C 
ATOM      2  C   UNL     1      35.716  -8.858 -24.500  0.00  0.00    -0.006 C 
ATOM      3  C   UNL     1      33.724  -8.942 -23.136  0.00  0.00    -0.006 C 
ATOM      4  C   UNL     1      34.144 -10.673 -24.768  0.00  0.00    +0.016 C 
ATOM      5  C   UNL     1      35.332 -10.039 -25.134  0.00  0.00    +0.001 C 
ATOM      6  C   UNL     1      33.339 -10.124 -23.769  0.00  0.00    +0.001 C 
ENDROOT
BRANCH   4  14
ATOM      7  O   UNL     1      34.823 -17.815 -23.441  0.00  0.00    -0.274 OA
ATOM      8  N   UNL     1      35.232 -15.597 -22.749  0.00  0.00    -0.217 N 
ATOM      9  N   UNL     1      34.038 -13.187 -24.896  0.00  0.00    -0.152 N 
ATOM     10  N   UNL     1      34.686 -13.492 -23.739  0.00  0.00    -0.092 NA
ATOM     11  N   UNL     1      34.071 -15.413 -24.810  0.00  0.00    -0.319 NA
ATOM     12  C   UNL     1      35.276 -17.000 -22.649  0.00  0.00    +0.234 C 
ATOM     13  C   UNL     1      34.676 -14.824 -23.746  0.00  0.00    +0.167 C 
ATOM     14  C   UNL     1      33.737 -11.920 -25.438  0.00  0.00    +0.077 C 
ATOM     15  C   UNL     1      33.671 -14.385 -25.526  0.00  0.00    +0.219 C 
ATOM     16  C   UNL     1      33.068 -11.866 -26.609  0.00  0.00    +0.017 C 
ATOM     17  C   UNL     1      32.967 -14.301 -26.757  0.00  0.00    +0.051 C 
ATOM     18  C   UNL     1      32.676 -13.096 -27.276  0.00  0.00    +0.005 C 
ATOM     19  H   UNL     1      35.653 -15.102 -22.009  0.00  0.00    +0.167 HD
BRANCH  12  20
ATOM     20  C   UNL     1      35.965 -17.509 -21.422  0.00  0.00    +0.077 C 
ATOM     21  C   UNL     1      37.143 -18.426 -21.574  0.00  0.00    +0.010 C 
ATOM     22  C   UNL     1      35.838 -18.961 -21.061  0.00  0.00    +0.010 C 
ENDBRANCH  12  20
ENDBRANCH   4  14
BRANCH   1  23
ATOM     23  C   UNL     1      35.327  -7.034 -22.816  0.00  0.00    -0.050 C 
BRANCH  23  27
ATOM     24  S   UNL     1      31.660  -4.663 -23.966  0.00  0.00    -0.014 S 
ATOM     25  O   UNL     1      31.096  -3.329 -23.981  0.00  0.00    -0.173 OA
ATOM     26  O   UNL     1      30.912  -5.798 -24.470  0.00  0.00    -0.173 OA
ATOM     27  N   UNL     1      34.362  -5.955 -23.042  0.00  0.00    +0.392 N 
ATOM     28  C   UNL     1      33.139  -6.204 -22.259  0.00  0.00    -0.051 C 
ATOM     29  C   UNL     1      34.076  -5.835 -24.482  0.00  0.00    -0.051 C 
ATOM     30  C   UNL     1      33.227  -4.609 -24.801  0.00  0.00    +0.128 C 
ATOM     31  C   UNL     1      32.175  -5.024 -22.304  0.00  0.00    +0.128 C 
ATOM     32  H   UNL     1      34.755  -5.068 -22.729  0.00  0.00    -0.079 HD
ENDBRANCH  23  27
ENDBRANCH   1  23
TORSDOF 4
ENDMDL
MODEL 5
REMARK VINA RESULT:      -9.6     10.726     16.002
REMARK  Name = 49831257
REMARK  4 active torsions:
REMARK  status: ('A' for Active; 'I' for Inactive)
REMARK    1  A    between atoms: C_1  and  C_23
REMARK    2  A    between atoms: C_4  and  C_14
REMARK    3  A    between atoms: C_12  and  C_20
REMARK    4  A    between atoms: C_23  and  N_27
REMARK                            x       y       z     vdW  Elec       q    Type
REMARK                         _______ _______ _______ _____ _____    ______ ____
ROOT
ATOM      1  C   UNL     1      34.836  -4.565 -26.401  0.00  0.00    -0.043 C 
ATOM      2  C   UNL     1      33.566  -4.122 -26.035  0.00  0.00    -0.006 C 
ATOM      3  C   UNL     1      35.520  -5.470 -25.589  0.00  0.00    -0.006 C 
ATOM      4  C   UNL     1      33.664  -5.485 -24.043  0.00  0.00    +0.016 C 
ATOM      5  C   UNL     1      32.980  -4.581 -24.856  0.00  0.00    +0.001 C 
ATOM      6  C   UNL     1      34.935  -5.930 -24.409  0.00  0.00    +0.001 C 
ENDROOT
BRANCH   4  14
ATOM      7  O   UNL     1      32.188 -11.992 -21.092  0.00  0.00    -0.274 OA
ATOM      8  N   UNL     1      33.101 -10.763 -22.885  0.00  0.00    -0.217 N 
ATOM      9  N   UNL     1      32.905  -7.346 -22.523  0.00  0.00    -0.152 N 
ATOM     10  N   UNL     1      33.294  -8.413 -23.272  0.00  0.00    -0.092 NA
ATOM     11  N   UNL     1      32.307  -9.140 -21.346  0.00  0.00    -0.319 NA
ATOM     12  C   UNL     1      32.745 -11.926 -22.179  0.00  0.00    +0.234 C 
ATOM     13  C   UNL     1      32.911  -9.446 -22.525  0.00  0.00    +0.167 C 
ATOM     14  C   UNL     1      33.045  -5.970 -22.797  0.00  0.00    +0.077 C 
ATOM     15  C   UNL     1      32.308  -7.826 -21.349  0.00  0.00    +0.219 C 
ATOM     16  C   UNL     1      32.585  -5.084 -21.887  0.00  0.00    +0.017 C 
ATOM     17  C   UNL     1      31.832  -6.875 -20.407  0.00  0.00    +0.051 C 
ATOM     18  C   UNL     1      31.965  -5.562 -20.663  0.00  0.00    +0.005 C 
ATOM     19  H   UNL     1      33.546 -10.908 -23.752  0.00  0.00    +0.167 HD
BRANCH  12  20
ATOM     20  C   UNL     1      33.104 -13.203 -22.872  0.00  0.00    +0.077 C 
ATOM     21  C   UNL     1      34.116 -14.114 -22.242  0.00  0.00    +0.010 C 
ATOM     22  C   UNL     1      34.468 -13.345 -23.482  0.00  0.00    +0.010 C 
ENDBRANCH  12  20
ENDBRANCH   4  14
BRANCH   1  23
ATOM     23  C   UNL     1      35.468  -4.071 -27.675  0.00  0.00    -0.050 C 
BRANCH  23  27
ATOM     24  S   UNL     1      39.828  -4.313 -28.825  0.00  0.00    -0.014 S 
ATOM     25  O   UNL     1      41.071  -4.997 -28.534  0.00  0.00    -0.173 OA
ATOM     26  O   UNL     1      39.762  -3.281 -29.842  0.00  0.00    -0.173 OA
ATOM     27  N   UNL     1      36.885  -4.438 -27.758  0.00  0.00    +0.392 N 
ATOM     28  C   UNL     1      37.724  -3.275 -27.422  0.00  0.00    -0.051 C 
ATOM     29  C   UNL     1      37.187  -4.963 -29.101  0.00  0.00    -0.051 C 
ATOM     30  C   UNL     1      38.596  -5.539 -29.191  0.00  0.00    +0.128 C 
ATOM     31  C   UNL     1      39.199  -3.642 -27.305  0.00  0.00    +0.128 C 
ATOM     32  H   UNL     1      37.091  -5.174 -27.083  0.00  0.00    -0.079 HD
ENDBRANCH  23  27
ENDBRANCH   1  23
TORSDOF 4
ENDMDL
MODEL 6
REMARK VINA RESULT:      -9.6      7.800     14.546
REMARK  Name = 49831257
REMARK  4 active torsions:
REMARK  status: ('A' for Active; 'I' for Inactive)
REMARK    1  A    between atoms: C_1  and  C_23
REMARK    2  A    between atoms: C_4  and  C_14
REMARK    3  A    between atoms: C_12  and  C_20
REMARK    4  A    between atoms: C_23  and  N_27
REMARK                            x       y       z     vdW  Elec       q    Type
REMARK                         _______ _______ _______ _____ _____    ______ ____
ROOT
ATOM      1  C   UNL     1      33.875 -13.565 -23.813  0.00  0.00    -0.043 C 
ATOM      2  C   UNL     1      33.125 -13.746 -22.651  0.00  0.00    -0.006 C 
ATOM      3  C   UNL     1      34.203 -12.277 -24.237  0.00  0.00    -0.006 C 
ATOM      4  C   UNL     1      33.030 -11.353 -22.338  0.00  0.00    +0.016 C 
ATOM      5  C   UNL     1      32.702 -12.641 -21.914  0.00  0.00    +0.001 C 
ATOM      6  C   UNL     1      33.781 -11.170 -23.500  0.00  0.00    +0.001 C 
ENDROOT
BRANCH   4  14
ATOM      7  O   UNL     1      32.998  -4.117 -23.270  0.00  0.00    -0.274 OA
ATOM      8  N   UNL     1      33.526  -6.249 -24.130  0.00  0.00    -0.217 N 
ATOM      9  N   UNL     1      32.729  -8.869 -22.045  0.00  0.00    -0.152 N 
ATOM     10  N   UNL     1      33.245  -8.445 -23.230  0.00  0.00    -0.092 NA
ATOM     11  N   UNL     1      32.570  -6.647 -21.994  0.00  0.00    -0.319 NA
ATOM     12  C   UNL     1      33.445  -4.844 -24.146  0.00  0.00    +0.234 C 
ATOM     13  C   UNL     1      33.126  -7.121 -23.140  0.00  0.00    +0.167 C 
ATOM     14  C   UNL     1      32.583 -10.184 -21.560  0.00  0.00    +0.077 C 
ATOM     15  C   UNL     1      32.322  -7.744 -21.314  0.00  0.00    +0.219 C 
ATOM     16  C   UNL     1      32.026 -10.361 -20.342  0.00  0.00    +0.017 C 
ATOM     17  C   UNL     1      31.738  -7.956 -20.035  0.00  0.00    +0.051 C 
ATOM     18  C   UNL     1      31.595  -9.209 -19.570  0.00  0.00    +0.005 C 
ATOM     19  H   UNL     1      33.920  -6.664 -24.932  0.00  0.00    +0.167 HD
BRANCH  12  20
ATOM     20  C   UNL     1      33.978  -4.210 -25.392  0.00  0.00    +0.077 C 
ATOM     21  C   UNL     1      33.588  -2.797 -25.715  0.00  0.00    +0.010 C 
ATOM     22  C   UNL     1      33.040  -3.933 -26.531  0.00  0.00    +0.010 C 
ENDBRANCH  12  20
ENDBRANCH   4  14
BRANCH   1  23
ATOM     23  C   UNL     1      34.333 -14.758 -24.608  0.00  0.00    -0.050 C 
BRANCH  23  27
ATOM     24  S   UNL     1      35.647 -18.568 -22.571  0.00  0.00    -0.014 S 
ATOM     25  O   UNL     1      35.218 -19.604 -21.654  0.00  0.00    -0.173 OA
ATOM     26  O   UNL     1      36.970 -18.594 -23.164  0.00  0.00    -0.173 OA
ATOM     27  N   UNL     1      34.382 -15.972 -23.788  0.00  0.00    +0.392 N 
ATOM     28  C   UNL     1      35.446 -15.849 -22.776  0.00  0.00    -0.051 C 
ATOM     29  C   UNL     1      34.580 -17.150 -24.651  0.00  0.00    -0.051 C 
ATOM     30  C   UNL     1      34.450 -18.458 -23.879  0.00  0.00    +0.128 C 
ATOM     31  C   UNL     1      35.422 -16.996 -21.772  0.00  0.00    +0.128 C 
ATOM     32  H   UNL     1      33.498 -16.093 -23.295  0.00  0.00    -0.079 HD
ENDBRANCH  23  27
ENDBRANCH   1  23
TORSDOF 4
ENDMDL
MODEL 7
REMARK VINA RESULT:      -9.5      2.783      5.469
REMARK  Name = 49831257
REMARK  4 active torsions:
REMARK  status: ('A' for Active; 'I' for Inactive)
REMARK    1  A    between atoms: C_1  and  C_23
REMARK    2  A    between atoms: C_4  and  C_14
REMARK    3  A    between atoms: C_12  and  C_20
REMARK    4  A    between atoms: C_23  and  N_27
REMARK                            x       y       z     vdW  Elec       q    Type
REMARK                         _______ _______ _______ _____ _____    ______ ____
ROOT
ATOM      1  C   UNL     1      35.646 -20.770 -20.249  0.00  0.00    -0.043 C 
ATOM      2  C   UNL     1      36.571 -21.142 -19.275  0.00  0.00    -0.006 C 
ATOM      3  C   UNL     1      34.284 -20.982 -20.036  0.00  0.00    -0.006 C 
ATOM      4  C   UNL     1      34.773 -21.940 -17.873  0.00  0.00    +0.016 C 
ATOM      5  C   UNL     1      36.135 -21.728 -18.087  0.00  0.00    +0.001 C 
ATOM      6  C   UNL     1      33.847 -21.568 -18.848  0.00  0.00    +0.001 C 
ENDROOT
BRANCH   4  14
ATOM      7  O   UNL     1      28.322 -23.511 -14.847  0.00  0.00    -0.274 OA
ATOM      8  N   UNL     1      29.518 -22.622 -16.675  0.00  0.00    -0.217 N 
ATOM      9  N   UNL     1      32.941 -22.719 -16.328  0.00  0.00    -0.152 N 
ATOM     10  N   UNL     1      31.861 -22.386 -17.085  0.00  0.00    -0.092 NA
ATOM     11  N   UNL     1      31.169 -23.324 -15.121  0.00  0.00    -0.319 NA
ATOM     12  C   UNL     1      28.369 -22.988 -15.952  0.00  0.00    +0.234 C 
ATOM     13  C   UNL     1      30.842 -22.765 -16.316  0.00  0.00    +0.167 C 
ATOM     14  C   UNL     1      34.312 -22.560 -16.619  0.00  0.00    +0.077 C 
ATOM     15  C   UNL     1      32.483 -23.295 -15.135  0.00  0.00    +0.219 C 
ATOM     16  C   UNL     1      35.214 -22.982 -15.706  0.00  0.00    +0.017 C 
ATOM     17  C   UNL     1      33.452 -23.732 -14.191  0.00  0.00    +0.051 C 
ATOM     18  C   UNL     1      34.760 -23.583 -14.464  0.00  0.00    +0.005 C 
ATOM     19  H   UNL     1      29.357 -22.209 -17.555  0.00  0.00    +0.167 HD
BRANCH  12  20
ATOM     20  C   UNL     1      27.079 -22.684 -16.648  0.00  0.00    +0.077 C 
ATOM     21  C   UNL     1      26.910 -21.353 -17.322  0.00  0.00    +0.010 C 
ATOM     22  C   UNL     1      26.155 -21.658 -16.060  0.00  0.00    +0.010 C 
ENDBRANCH  12  20
ENDBRANCH   4  14
BRANCH   1  23
ATOM     23  C   UNL     1      36.117 -20.135 -21.532  0.00  0.00    -0.050 C 
BRANCH  23  27
ATOM     24  S   UNL     1      34.988 -16.018 -23.003  0.00  0.00    -0.014 S 
ATOM     25  O   UNL     1      33.920 -15.039 -23.013  0.00  0.00    -0.173 OA
ATOM     26  O   UNL     1      36.251 -15.755 -23.665  0.00  0.00    -0.173 OA
ATOM     27  N   UNL     1      35.399 -18.889 -21.818  0.00  0.00    +0.392 N 
ATOM     28  C   UNL     1      35.239 -18.727 -23.273  0.00  0.00    -0.051 C 
ATOM     29  C   UNL     1      36.115 -17.752 -21.215  0.00  0.00    -0.051 C 
ATOM     30  C   UNL     1      35.321 -16.454 -21.313  0.00  0.00    +0.128 C 
ATOM     31  C   UNL     1      34.337 -17.550 -23.626  0.00  0.00    +0.128 C 
ATOM     32  H   UNL     1      34.468 -18.924 -21.405  0.00  0.00    -0.079 HD
ENDBRANCH  23  27
ENDBRANCH   1  23
TORSDOF 4
ENDMDL
MODEL 8
REMARK VINA RESULT:      -9.4      2.203      4.761
REMARK  Name = 49831257
REMARK  4 active torsions:
REMARK  status: ('A' for Active; 'I' for Inactive)
REMARK    1  A    between atoms: C_1  and  C_23
REMARK    2  A    between atoms: C_4  and  C_14
REMARK    3  A    between atoms: C_12  and  C_20
REMARK    4  A    between atoms: C_23  and  N_27
REMARK                            x       y       z     vdW  Elec       q    Type
REMARK                         _______ _______ _______ _____ _____    ______ ____
ROOT
ATOM      1  C   UNL     1      37.271 -19.891 -19.076  0.00  0.00    -0.043 C 
ATOM      2  C   UNL     1      36.417 -20.970 -19.299  0.00  0.00    -0.006 C 
ATOM      3  C   UNL     1      37.897 -19.741 -17.838  0.00  0.00    -0.006 C 
ATOM      4  C   UNL     1      36.815 -21.751 -17.048  0.00  0.00    +0.016 C 
ATOM      5  C   UNL     1      36.189 -21.901 -18.285  0.00  0.00    +0.001 C 
ATOM      6  C   UNL     1      37.670 -20.671 -16.824  0.00  0.00    +0.001 C 
ENDROOT
BRANCH   4  14
ATOM      7  O   UNL     1      30.970 -24.913 -14.037  0.00  0.00    -0.274 OA
ATOM      8  N   UNL     1      31.841 -23.425 -15.647  0.00  0.00    -0.217 N 
ATOM      9  N   UNL     1      35.272 -23.146 -15.627  0.00  0.00    -0.152 N 
ATOM     10  N   UNL     1      34.080 -22.776 -16.171  0.00  0.00    -0.092 NA
ATOM     11  N   UNL     1      33.728 -24.277 -14.487  0.00  0.00    -0.319 NA
ATOM     12  C   UNL     1      30.830 -24.119 -14.958  0.00  0.00    +0.234 C 
ATOM     13  C   UNL     1      33.205 -23.476 -15.452  0.00  0.00    +0.167 C 
ATOM     14  C   UNL     1      36.574 -22.733 -15.976  0.00  0.00    +0.077 C 
ATOM     15  C   UNL     1      35.020 -24.068 -14.602  0.00  0.00    +0.219 C 
ATOM     16  C   UNL     1      37.616 -23.251 -15.292  0.00  0.00    +0.017 C 
ATOM     17  C   UNL     1      36.134 -24.600 -13.897  0.00  0.00    +0.051 C 
ATOM     18  C   UNL     1      37.377 -24.211 -14.228  0.00  0.00    +0.005 C 
ATOM     19  H   UNL     1      31.534 -22.824 -16.365  0.00  0.00    +0.167 HD
BRANCH  12  20
ATOM     20  C   UNL     1      29.443 -23.822 -15.434  0.00  0.00    +0.077 C 
ATOM     21  C   UNL     1      29.243 -22.770 -16.486  0.00  0.00    +0.010 C 
ATOM     22  C   UNL     1      28.810 -22.509 -15.072  0.00  0.00    +0.010 C 
ENDBRANCH  12  20
ENDBRANCH   4  14
BRANCH   1  23
ATOM     23  C   UNL     1      37.519 -18.887 -20.171  0.00  0.00    -0.050 C 
BRANCH  23  27
ATOM     24  S   UNL     1      34.711 -18.266 -23.652  0.00  0.00    -0.014 S 
ATOM     25  O   UNL     1      33.945 -18.962 -24.667  0.00  0.00    -0.173 OA
ATOM     26  O   UNL     1      34.694 -16.819 -23.562  0.00  0.00    -0.173 OA
ATOM     27  N   UNL     1      36.623 -19.095 -21.313  0.00  0.00    +0.392 N 
ATOM     28  C   UNL     1      37.189 -18.459 -22.515  0.00  0.00    -0.051 C 
ATOM     29  C   UNL     1      35.282 -18.574 -20.996  0.00  0.00    -0.051 C 
ATOM     30  C   UNL     1      34.258 -18.931 -22.068  0.00  0.00    +0.128 C 
ATOM     31  C   UNL     1      36.401 -18.802 -23.774  0.00  0.00    +0.128 C 
ATOM     32  H   UNL     1      36.532 -20.092 -21.504  0.00  0.00    -0.079 HD
ENDBRANCH  23  27
ENDBRANCH   1  23
TORSDOF 4
ENDMDL
MODEL 9
REMARK VINA RESULT:      -9.2      3.951      9.605
REMARK  Name = 49831257
REMARK  4 active torsions:
REMARK  status: ('A' for Active; 'I' for Inactive)
REMARK    1  A    between atoms: C_1  and  C_23
REMARK    2  A    between atoms: C_4  and  C_14
REMARK    3  A    between atoms: C_12  and  C_20
REMARK    4  A    between atoms: C_23  and  N_27
REMARK                            x       y       z     vdW  Elec       q    Type
REMARK                         _______ _______ _______ _____ _____    ______ ____
ROOT
ATOM      1  C   UNL     1      37.103 -24.250 -13.343  0.00  0.00    -0.043 C 
ATOM      2  C   UNL     1      37.060 -23.544 -14.544  0.00  0.00    -0.006 C 
ATOM      3  C   UNL     1      35.919 -24.684 -12.746  0.00  0.00    -0.006 C 
ATOM      4  C   UNL     1      34.649 -23.705 -14.553  0.00  0.00    +0.016 C 
ATOM      5  C   UNL     1      35.833 -23.271 -15.150  0.00  0.00    +0.001 C 
ATOM      6  C   UNL     1      34.692 -24.412 -13.351  0.00  0.00    +0.001 C 
ENDROOT
BRANCH   4  14
ATOM      7  O   UNL     1      32.422 -20.405 -20.667  0.00  0.00    -0.274 OA
ATOM      8  N   UNL     1      34.214 -21.099 -19.299  0.00  0.00    -0.217 N 
ATOM      9  N   UNL     1      33.267 -22.731 -16.421  0.00  0.00    -0.152 N 
ATOM     10  N   UNL     1      34.269 -22.259 -17.211  0.00  0.00    -0.092 NA
ATOM     11  N   UNL     1      32.248 -21.796 -18.168  0.00  0.00    -0.319 NA
ATOM     12  C   UNL     1      33.617 -20.498 -20.422  0.00  0.00    +0.234 C 
ATOM     13  C   UNL     1      33.603 -21.714 -18.227  0.00  0.00    +0.167 C 
ATOM     14  C   UNL     1      33.353 -23.416 -15.191  0.00  0.00    +0.077 C 
ATOM     15  C   UNL     1      32.043 -22.435 -17.037  0.00  0.00    +0.219 C 
ATOM     16  C   UNL     1      32.207 -23.799 -14.589  0.00  0.00    +0.017 C 
ATOM     17  C   UNL     1      30.851 -22.850 -16.384  0.00  0.00    +0.051 C 
ATOM     18  C   UNL     1      30.929 -23.504 -15.212  0.00  0.00    +0.005 C 
ATOM     19  H   UNL     1      35.199 -21.077 -19.275  0.00  0.00    +0.167 HD
BRANCH  12  20
ATOM     20  C   UNL     1      34.589 -19.919 -21.402  0.00  0.00    +0.077 C 
ATOM     21  C   UNL     1      35.983 -19.600 -20.945  0.00  0.00    +0.010 C 
ATOM     22  C   UNL     1      35.019 -18.489 -21.249  0.00  0.00    +0.010 C 
ENDBRANCH  12  20
ENDBRANCH   4  14
BRANCH   1  23
ATOM     23  C   UNL     1      38.427 -24.547 -12.690  0.00  0.00    -0.050 C 
BRANCH  23  27
ATOM     24  S   UNL     1      40.570 -27.444 -15.411  0.00  0.00    -0.014 S 
ATOM     25  O   UNL     1      41.042 -28.810 -15.514  0.00  0.00    -0.173 OA
ATOM     26  O   UNL     1      40.770 -26.499 -16.492  0.00  0.00    -0.173 OA
ATOM     27  N   UNL     1      39.058 -25.742 -13.258  0.00  0.00    +0.392 N 
ATOM     28  C   UNL     1      40.486 -25.481 -13.510  0.00  0.00    -0.051 C 
ATOM     29  C   UNL     1      38.350 -26.145 -14.485  0.00  0.00    -0.051 C 
ATOM     30  C   UNL     1      38.838 -27.487 -15.017  0.00  0.00    +0.128 C 
ATOM     31  C   UNL     1      41.238 -26.741 -13.921  0.00  0.00    +0.128 C 
ATOM     32  H   UNL     1      38.996 -26.514 -12.595  0.00  0.00    -0.079 HD
ENDBRANCH  23  27
ENDBRANCH   1  23
TORSDOF 4
ENDMDL
