MODEL 1
REMARK VINA RESULT:     -12.9      0.000      0.000
REMARK  Name = 46926973
REMARK  4 active torsions:
REMARK  status: ('A' for Active; 'I' for Inactive)
REMARK    1  A    between atoms: C_4  and  C_17
REMARK    2  A    between atoms: C_6  and  C_13
REMARK    3  A    between atoms: C_17  and  C_19
REMARK    4  A    between atoms: C_21  and  C_26
REMARK                            x       y       z     vdW  Elec       q    Type
REMARK                         _______ _______ _______ _____ _____    ______ ____
ROOT
ATOM      1  O   UNL     1      36.917 -18.660 -22.707  0.00  0.00    -0.274 OA
ATOM      2  N   UNL     1      34.612 -18.965 -22.355  0.00  0.00    -0.269 N 
ATOM      3  N   UNL     1      33.353 -20.147 -20.738  0.00  0.00    -0.229 NA
ATOM      4  C   UNL     1      35.744 -18.469 -23.015  0.00  0.00    +0.232 C 
ATOM      5  C   UNL     1      34.563 -19.778 -21.216  0.00  0.00    +0.134 C 
ATOM      6  C   UNL     1      34.507 -21.358 -18.992  0.00  0.00    +0.038 C 
ATOM      7  C   UNL     1      35.770 -20.152 -20.647  0.00  0.00    +0.035 C 
ATOM      8  C   UNL     1      35.732 -20.958 -19.514  0.00  0.00    +0.006 C 
ATOM      9  C   UNL     1      33.357 -20.930 -19.635  0.00  0.00    +0.102 C 
ATOM     10  H   UNL     1      33.742 -18.711 -22.741  0.00  0.00    +0.156 HD
ENDROOT
BRANCH   6  13
ATOM     11  N   UNL     1      35.593 -22.377 -17.152  0.00  0.00    -0.241 NA
ATOM     12  N   UNL     1      33.193 -23.553 -16.304  0.00  0.00    -0.239 NA
ATOM     13  C   UNL     1      34.435 -22.194 -17.818  0.00  0.00    +0.102 C 
ATOM     14  C   UNL     1      33.256 -22.772 -17.401  0.00  0.00    +0.118 C 
ATOM     15  C   UNL     1      35.529 -23.157 -16.055  0.00  0.00    +0.119 C 
ATOM     16  C   UNL     1      34.351 -23.736 -15.639  0.00  0.00    +0.120 C 
ENDBRANCH   6  13
BRANCH   4  17
ATOM     17  C   UNL     1      35.346 -17.622 -24.214  0.00  0.00    +0.113 C 
BRANCH  17  19
ATOM     18  N   UNL     1      33.735 -14.206 -24.487  0.00  0.00    -0.244 NA
ATOM     19  C   UNL     1      34.863 -16.245 -23.840  0.00  0.00    +0.006 C 
ATOM     20  C   UNL     1      34.617 -14.457 -22.249  0.00  0.00    -0.004 C 
ATOM     21  C   UNL     1      33.959 -13.742 -23.237  0.00  0.00    +0.077 C 
ATOM     22  C   UNL     1      35.074 -15.732 -22.565  0.00  0.00    -0.005 C 
ATOM     23  C   UNL     1      34.194 -15.449 -24.756  0.00  0.00    +0.095 C 
ATOM     24  C   UNL     1      34.846 -13.910 -20.882  0.00  0.00    +0.033 C 
BRANCH  21  26
ATOM     25  N   UNL     1      32.463  -9.833 -22.550  0.00  0.00    -0.248 NA
ATOM     26  C   UNL     1      33.449 -12.410 -23.003  0.00  0.00    +0.020 C 
ATOM     27  C   UNL     1      32.480 -12.194 -22.029  0.00  0.00    +0.016 C 
ATOM     28  C   UNL     1      33.926 -11.339 -23.750  0.00  0.00    +0.022 C 
ATOM     29  C   UNL     1      32.024 -10.898 -21.844  0.00  0.00    +0.059 C 
ATOM     30  C   UNL     1      33.406 -10.082 -23.488  0.00  0.00    +0.098 C 
ATOM     31  C   UNL     1      30.984 -10.629 -20.808  0.00  0.00    +0.052 C 
ENDBRANCH  21  26
ENDBRANCH  17  19
ENDBRANCH   4  17
TORSDOF 4
ENDMDL
MODEL 2
REMARK VINA RESULT:     -12.5      1.326      1.960
REMARK  Name = 46926973
REMARK  4 active torsions:
REMARK  status: ('A' for Active; 'I' for Inactive)
REMARK    1  A    between atoms: C_4  and  C_17
REMARK    2  A    between atoms: C_6  and  C_13
REMARK    3  A    between atoms: C_17  and  C_19
REMARK    4  A    between atoms: C_21  and  C_26
REMARK                            x       y       z     vdW  Elec       q    Type
REMARK                         _______ _______ _______ _____ _____    ______ ____
ROOT
ATOM      1  O   UNL     1      33.931 -19.407 -22.287  0.00  0.00    -0.274 OA
ATOM      2  N   UNL     1      36.017 -19.461 -21.203  0.00  0.00    -0.269 N 
ATOM      3  N   UNL     1      36.806 -20.522 -19.241  0.00  0.00    -0.229 NA
ATOM      4  C   UNL     1      35.112 -19.082 -22.203  0.00  0.00    +0.232 C 
ATOM      5  C   UNL     1      35.783 -20.281 -20.092  0.00  0.00    +0.134 C 
ATOM      6  C   UNL     1      35.292 -21.886 -17.941  0.00  0.00    +0.038 C 
ATOM      7  C   UNL     1      34.507 -20.798 -19.937  0.00  0.00    +0.035 C 
ATOM      8  C   UNL     1      34.264 -21.614 -18.838  0.00  0.00    +0.006 C 
ATOM      9  C   UNL     1      36.533 -21.320 -18.185  0.00  0.00    +0.102 C 
ATOM     10  H   UNL     1      36.932 -19.107 -21.292  0.00  0.00    +0.156 HD
ENDROOT
BRANCH   6  13
ATOM     11  N   UNL     1      36.176 -23.115 -16.121  0.00  0.00    -0.241 NA
ATOM     12  N   UNL     1      33.607 -23.904 -15.322  0.00  0.00    -0.239 NA
ATOM     13  C   UNL     1      35.071 -22.729 -16.790  0.00  0.00    +0.102 C 
ATOM     14  C   UNL     1      33.809 -23.117 -16.397  0.00  0.00    +0.118 C 
ATOM     15  C   UNL     1      35.974 -23.902 -15.046  0.00  0.00    +0.119 C 
ATOM     16  C   UNL     1      34.712 -24.290 -14.654  0.00  0.00    +0.120 C 
ENDBRANCH   6  13
BRANCH   4  17
ATOM     17  C   UNL     1      35.782 -18.182 -23.229  0.00  0.00    +0.113 C 
BRANCH  17  19
ATOM     18  N   UNL     1      34.853 -14.697 -22.078  0.00  0.00    -0.244 NA
ATOM     19  C   UNL     1      35.232 -16.779 -23.246  0.00  0.00    +0.006 C 
ATOM     20  C   UNL     1      34.115 -14.967 -24.365  0.00  0.00    -0.004 C 
ATOM     21  C   UNL     1      34.259 -14.231 -23.200  0.00  0.00    +0.077 C 
ATOM     22  C   UNL     1      34.614 -16.265 -24.379  0.00  0.00    -0.005 C 
ATOM     23  C   UNL     1      35.325 -15.962 -22.130  0.00  0.00    +0.095 C 
ATOM     24  C   UNL     1      33.452 -14.418 -25.581  0.00  0.00    +0.033 C 
BRANCH  21  26
ATOM     25  N   UNL     1      32.830 -10.251 -22.874  0.00  0.00    -0.248 NA
ATOM     26  C   UNL     1      33.772 -12.874 -23.089  0.00  0.00    +0.020 C 
ATOM     27  C   UNL     1      32.774 -12.563 -22.171  0.00  0.00    +0.016 C 
ATOM     28  C   UNL     1      34.299 -11.875 -23.899  0.00  0.00    +0.022 C 
ATOM     29  C   UNL     1      32.342 -11.248 -22.104  0.00  0.00    +0.059 C 
ATOM     30  C   UNL     1      33.798 -10.591 -23.754  0.00  0.00    +0.098 C 
ATOM     31  C   UNL     1      31.272 -10.878 -21.131  0.00  0.00    +0.052 C 
ENDBRANCH  21  26
ENDBRANCH  17  19
ENDBRANCH   4  17
TORSDOF 4
ENDMDL
MODEL 3
REMARK VINA RESULT:     -12.3      2.624     11.095
REMARK  Name = 46926973
REMARK  4 active torsions:
REMARK  status: ('A' for Active; 'I' for Inactive)
REMARK    1  A    between atoms: C_4  and  C_17
REMARK    2  A    between atoms: C_6  and  C_13
REMARK    3  A    between atoms: C_17  and  C_19
REMARK    4  A    between atoms: C_21  and  C_26
REMARK                            x       y       z     vdW  Elec       q    Type
REMARK                         _______ _______ _______ _____ _____    ______ ____
ROOT
ATOM      1  O   UNL     1      33.048 -13.684 -23.039  0.00  0.00    -0.274 OA
ATOM      2  N   UNL     1      34.485 -12.076 -23.976  0.00  0.00    -0.269 N 
ATOM      3  N   UNL     1      34.521  -9.711 -23.951  0.00  0.00    -0.229 NA
ATOM      4  C   UNL     1      34.035 -13.374 -23.699  0.00  0.00    +0.232 C 
ATOM      5  C   UNL     1      33.920 -10.861 -23.570  0.00  0.00    +0.134 C 
ATOM      6  C   UNL     1      32.794  -8.513 -22.756  0.00  0.00    +0.038 C 
ATOM      7  C   UNL     1      32.773 -10.917 -22.795  0.00  0.00    +0.035 C 
ATOM      8  C   UNL     1      32.205  -9.716 -22.385  0.00  0.00    +0.006 C 
ATOM      9  C   UNL     1      33.940  -8.563 -23.533  0.00  0.00    +0.102 C 
ATOM     10  H   UNL     1      35.300 -12.010 -24.525  0.00  0.00    +0.156 HD
ENDROOT
BRANCH   6  13
ATOM     11  N   UNL     1      32.367  -6.935 -21.043  0.00  0.00    -0.241 NA
ATOM     12  N   UNL     1      31.056  -5.235 -22.847  0.00  0.00    -0.239 NA
ATOM     13  C   UNL     1      32.228  -7.249 -22.346  0.00  0.00    +0.102 C 
ATOM     14  C   UNL     1      31.584  -6.414 -23.233  0.00  0.00    +0.118 C 
ATOM     15  C   UNL     1      31.839  -5.756 -20.658  0.00  0.00    +0.119 C 
ATOM     16  C   UNL     1      31.195  -4.922 -21.543  0.00  0.00    +0.120 C 
ENDBRANCH   6  13
BRANCH   4  17
ATOM     17  C   UNL     1      34.947 -14.412 -24.334  0.00  0.00    +0.113 C 
BRANCH  17  19
ATOM     18  N   UNL     1      35.357 -16.721 -21.361  0.00  0.00    -0.244 NA
ATOM     19  C   UNL     1      35.072 -15.675 -23.522  0.00  0.00    +0.006 C 
ATOM     20  C   UNL     1      35.145 -18.074 -23.354  0.00  0.00    -0.004 C 
ATOM     21  C   UNL     1      35.307 -17.918 -21.987  0.00  0.00    +0.077 C 
ATOM     22  C   UNL     1      35.026 -16.925 -24.129  0.00  0.00    -0.005 C 
ATOM     23  C   UNL     1      35.238 -15.628 -22.147  0.00  0.00    +0.095 C 
ATOM     24  C   UNL     1      35.096 -19.412 -24.008  0.00  0.00    +0.033 C 
BRANCH  21  26
ATOM     25  N   UNL     1      35.698 -21.247 -19.387  0.00  0.00    -0.248 NA
ATOM     26  C   UNL     1      35.440 -19.053 -21.101  0.00  0.00    +0.020 C 
ATOM     27  C   UNL     1      34.309 -19.727 -20.654  0.00  0.00    +0.016 C 
ATOM     28  C   UNL     1      36.701 -19.475 -20.692  0.00  0.00    +0.022 C 
ATOM     29  C   UNL     1      34.491 -20.808 -19.806  0.00  0.00    +0.059 C 
ATOM     30  C   UNL     1      36.775 -20.567 -19.842  0.00  0.00    +0.098 C 
ATOM     31  C   UNL     1      33.298 -21.555 -19.306  0.00  0.00    +0.052 C 
ENDBRANCH  21  26
ENDBRANCH  17  19
ENDBRANCH   4  17
TORSDOF 4
ENDMDL
MODEL 4
REMARK VINA RESULT:     -12.3      0.696      1.542
REMARK  Name = 46926973
REMARK  4 active torsions:
REMARK  status: ('A' for Active; 'I' for Inactive)
REMARK    1  A    between atoms: C_4  and  C_17
REMARK    2  A    between atoms: C_6  and  C_13
REMARK    3  A    between atoms: C_17  and  C_19
REMARK    4  A    between atoms: C_21  and  C_26
REMARK                            x       y       z     vdW  Elec       q    Type
REMARK                         _______ _______ _______ _____ _____    ______ ____
ROOT
ATOM      1  O   UNL     1      37.197 -18.431 -22.606  0.00  0.00    -0.274 OA
ATOM      2  N   UNL     1      34.939 -18.942 -22.193  0.00  0.00    -0.269 N 
ATOM      3  N   UNL     1      33.835 -20.234 -20.548  0.00  0.00    -0.229 NA
ATOM      4  C   UNL     1      36.004 -18.345 -22.881  0.00  0.00    +0.232 C 
ATOM      5  C   UNL     1      34.994 -19.758 -21.057  0.00  0.00    +0.134 C 
ATOM      6  C   UNL     1      35.139 -21.342 -18.840  0.00  0.00    +0.038 C 
ATOM      7  C   UNL     1      36.244 -20.025 -20.522  0.00  0.00    +0.035 C 
ATOM      8  C   UNL     1      36.309 -20.834 -19.393  0.00  0.00    +0.006 C 
ATOM      9  C   UNL     1      33.938 -21.017 -19.450  0.00  0.00    +0.102 C 
ATOM     10  H   UNL     1      34.040 -18.765 -22.554  0.00  0.00    +0.156 HD
ENDROOT
BRANCH   6  13
ATOM     11  N   UNL     1      34.029 -22.833 -17.373  0.00  0.00    -0.241 NA
ATOM     12  N   UNL     1      36.337 -23.108 -15.804  0.00  0.00    -0.239 NA
ATOM     13  C   UNL     1      35.174 -22.185 -17.668  0.00  0.00    +0.102 C 
ATOM     14  C   UNL     1      36.308 -22.320 -16.897  0.00  0.00    +0.118 C 
ATOM     15  C   UNL     1      34.059 -23.621 -16.281  0.00  0.00    +0.119 C 
ATOM     16  C   UNL     1      35.192 -23.756 -15.509  0.00  0.00    +0.120 C 
ENDBRANCH   6  13
BRANCH   4  17
ATOM     17  C   UNL     1      35.500 -17.533 -24.064  0.00  0.00    +0.113 C 
BRANCH  17  19
ATOM     18  N   UNL     1      33.683 -14.220 -24.298  0.00  0.00    -0.244 NA
ATOM     19  C   UNL     1      34.927 -16.196 -23.672  0.00  0.00    +0.006 C 
ATOM     20  C   UNL     1      34.553 -14.456 -22.054  0.00  0.00    -0.004 C 
ATOM     21  C   UNL     1      33.863 -13.765 -23.037  0.00  0.00    +0.077 C 
ATOM     22  C   UNL     1      35.092 -15.694 -22.387  0.00  0.00    -0.005 C 
ATOM     23  C   UNL     1      34.221 -15.426 -24.583  0.00  0.00    +0.095 C 
ATOM     24  C   UNL     1      34.732 -13.920 -20.675  0.00  0.00    +0.033 C 
BRANCH  21  26
ATOM     25  N   UNL     1      32.119  -9.969 -22.303  0.00  0.00    -0.248 NA
ATOM     26  C   UNL     1      33.269 -12.471 -22.787  0.00  0.00    +0.020 C 
ATOM     27  C   UNL     1      33.761 -11.340 -23.430  0.00  0.00    +0.016 C 
ATOM     28  C   UNL     1      32.203 -12.352 -21.902  0.00  0.00    +0.022 C 
ATOM     29  C   UNL     1      33.156 -10.124 -23.155  0.00  0.00    +0.059 C 
ATOM     30  C   UNL     1      31.668 -11.091 -21.696  0.00  0.00    +0.098 C 
ATOM     31  C   UNL     1      33.658  -8.889 -23.827  0.00  0.00    +0.052 C 
ENDBRANCH  21  26
ENDBRANCH  17  19
ENDBRANCH   4  17
TORSDOF 4
ENDMDL
MODEL 5
REMARK VINA RESULT:     -11.7      1.935      3.290
REMARK  Name = 46926973
REMARK  4 active torsions:
REMARK  status: ('A' for Active; 'I' for Inactive)
REMARK    1  A    between atoms: C_4  and  C_17
REMARK    2  A    between atoms: C_6  and  C_13
REMARK    3  A    between atoms: C_17  and  C_19
REMARK    4  A    between atoms: C_21  and  C_26
REMARK                            x       y       z     vdW  Elec       q    Type
REMARK                         _______ _______ _______ _____ _____    ______ ____
ROOT
ATOM      1  O   UNL     1      33.637 -19.851 -21.034  0.00  0.00    -0.274 OA
ATOM      2  N   UNL     1      35.387 -20.690 -19.707  0.00  0.00    -0.269 N 
ATOM      3  N   UNL     1      35.457 -22.042 -17.767  0.00  0.00    -0.229 NA
ATOM      4  C   UNL     1      34.830 -19.973 -20.774  0.00  0.00    +0.232 C 
ATOM      5  C   UNL     1      34.720 -21.418 -18.713  0.00  0.00    +0.134 C 
ATOM      6  C   UNL     1      33.387 -22.828 -16.796  0.00  0.00    +0.038 C 
ATOM      7  C   UNL     1      33.336 -21.451 -18.767  0.00  0.00    +0.035 C 
ATOM      8  C   UNL     1      32.664 -22.171 -17.786  0.00  0.00    +0.006 C 
ATOM      9  C   UNL     1      34.769 -22.733 -16.830  0.00  0.00    +0.102 C 
ATOM     10  H   UNL     1      36.370 -20.683 -19.649  0.00  0.00    +0.156 HD
ENDROOT
BRANCH   6  13
ATOM     11  N   UNL     1      33.488 -23.981 -14.731  0.00  0.00    -0.241 NA
ATOM     12  N   UNL     1      30.754 -24.587 -14.862  0.00  0.00    -0.239 NA
ATOM     13  C   UNL     1      32.718 -23.584 -15.763  0.00  0.00    +0.102 C 
ATOM     14  C   UNL     1      31.375 -23.882 -15.827  0.00  0.00    +0.118 C 
ATOM     15  C   UNL     1      32.867 -24.686 -13.765  0.00  0.00    +0.119 C 
ATOM     16  C   UNL     1      31.524 -24.985 -13.829  0.00  0.00    +0.120 C 
ENDBRANCH   6  13
BRANCH   4  17
ATOM     17  C   UNL     1      35.916 -19.330 -21.622  0.00  0.00    +0.113 C 
BRANCH  17  19
ATOM     18  N   UNL     1      35.077 -16.543 -24.045  0.00  0.00    -0.244 NA
ATOM     19  C   UNL     1      35.539 -17.969 -22.147  0.00  0.00    +0.006 C 
ATOM     20  C   UNL     1      34.963 -15.660 -21.797  0.00  0.00    -0.004 C 
ATOM     21  C   UNL     1      34.861 -15.533 -23.172  0.00  0.00    +0.077 C 
ATOM     22  C   UNL     1      35.309 -16.905 -21.283  0.00  0.00    -0.005 C 
ATOM     23  C   UNL     1      35.411 -17.738 -23.508  0.00  0.00    +0.095 C 
ATOM     24  C   UNL     1      34.718 -14.521 -20.868  0.00  0.00    +0.033 C 
BRANCH  21  26
ATOM     25  N   UNL     1      33.825 -11.854 -25.011  0.00  0.00    -0.248 NA
ATOM     26  C   UNL     1      34.508 -14.279 -23.799  0.00  0.00    +0.020 C 
ATOM     27  C   UNL     1      33.986 -14.265 -25.089  0.00  0.00    +0.016 C 
ATOM     28  C   UNL     1      34.688 -13.082 -23.115  0.00  0.00    +0.022 C 
ATOM     29  C   UNL     1      33.664 -13.036 -25.644  0.00  0.00    +0.059 C 
ATOM     30  C   UNL     1      34.334 -11.907 -23.759  0.00  0.00    +0.098 C 
ATOM     31  C   UNL     1      33.103 -12.983 -27.026  0.00  0.00    +0.052 C 
ENDBRANCH  21  26
ENDBRANCH  17  19
ENDBRANCH   4  17
TORSDOF 4
ENDMDL
MODEL 6
REMARK VINA RESULT:     -11.4      2.251     10.303
REMARK  Name = 46926973
REMARK  4 active torsions:
REMARK  status: ('A' for Active; 'I' for Inactive)
REMARK    1  A    between atoms: C_4  and  C_17
REMARK    2  A    between atoms: C_6  and  C_13
REMARK    3  A    between atoms: C_17  and  C_19
REMARK    4  A    between atoms: C_21  and  C_26
REMARK                            x       y       z     vdW  Elec       q    Type
REMARK                         _______ _______ _______ _____ _____    ______ ____
ROOT
ATOM      1  O   UNL     1      36.689 -19.134 -19.872  0.00  0.00    -0.274 OA
ATOM      2  N   UNL     1      35.451 -19.814 -21.752  0.00  0.00    -0.269 N 
ATOM      3  N   UNL     1      34.441 -18.650 -23.547  0.00  0.00    -0.229 NA
ATOM      4  C   UNL     1      36.173 -20.005 -20.566  0.00  0.00    +0.232 C 
ATOM      5  C   UNL     1      35.160 -18.608 -22.402  0.00  0.00    +0.134 C 
ATOM      6  C   UNL     1      34.616 -16.240 -23.642  0.00  0.00    +0.038 C 
ATOM      7  C   UNL     1      35.634 -17.441 -21.824  0.00  0.00    +0.035 C 
ATOM      8  C   UNL     1      35.351 -16.239 -22.462  0.00  0.00    +0.006 C 
ATOM      9  C   UNL     1      34.187 -17.461 -24.138  0.00  0.00    +0.102 C 
ATOM     10  H   UNL     1      35.105 -20.630 -22.182  0.00  0.00    +0.156 HD
ENDROOT
BRANCH   6  13
ATOM     11  N   UNL     1      33.777 -15.136 -25.561  0.00  0.00    -0.241 NA
ATOM     12  N   UNL     1      34.247 -12.627 -24.401  0.00  0.00    -0.239 NA
ATOM     13  C   UNL     1      34.306 -15.008 -24.328  0.00  0.00    +0.102 C 
ATOM     14  C   UNL     1      34.537 -13.775 -23.758  0.00  0.00    +0.118 C 
ATOM     15  C   UNL     1      33.486 -13.987 -26.203  0.00  0.00    +0.119 C 
ATOM     16  C   UNL     1      33.717 -12.755 -25.634  0.00  0.00    +0.120 C 
ENDBRANCH   6  13
BRANCH   4  17
ATOM     17  C   UNL     1      36.256 -21.482 -20.213  0.00  0.00    +0.113 C 
BRANCH  17  19
ATOM     18  N   UNL     1      33.066 -22.502 -18.447  0.00  0.00    -0.244 NA
ATOM     19  C   UNL     1      35.307 -21.889 -19.116  0.00  0.00    +0.006 C 
ATOM     20  C   UNL     1      34.846 -22.407 -16.812  0.00  0.00    -0.004 C 
ATOM     21  C   UNL     1      33.530 -22.629 -17.183  0.00  0.00    +0.077 C 
ATOM     22  C   UNL     1      35.745 -22.030 -17.804  0.00  0.00    -0.005 C 
ATOM     23  C   UNL     1      33.969 -22.134 -19.382  0.00  0.00    +0.095 C 
ATOM     24  C   UNL     1      35.318 -22.557 -15.407  0.00  0.00    +0.033 C 
BRANCH  21  26
ATOM     25  N   UNL     1      30.576 -23.784 -14.366  0.00  0.00    -0.248 NA
ATOM     26  C   UNL     1      32.523 -23.023 -16.223  0.00  0.00    +0.020 C 
ATOM     27  C   UNL     1      31.223 -22.541 -16.337  0.00  0.00    +0.016 C 
ATOM     28  C   UNL     1      32.850 -23.885 -15.182  0.00  0.00    +0.022 C 
ATOM     29  C   UNL     1      30.295 -22.949 -15.391  0.00  0.00    +0.059 C 
ATOM     30  C   UNL     1      31.850 -24.231 -14.288  0.00  0.00    +0.098 C 
ATOM     31  C   UNL     1      28.891 -22.452 -15.482  0.00  0.00    +0.052 C 
ENDBRANCH  21  26
ENDBRANCH  17  19
ENDBRANCH   4  17
TORSDOF 4
ENDMDL
MODEL 7
REMARK VINA RESULT:     -11.1      3.087      5.544
REMARK  Name = 46926973
REMARK  4 active torsions:
REMARK  status: ('A' for Active; 'I' for Inactive)
REMARK    1  A    between atoms: C_4  and  C_17
REMARK    2  A    between atoms: C_6  and  C_13
REMARK    3  A    between atoms: C_17  and  C_19
REMARK    4  A    between atoms: C_21  and  C_26
REMARK                            x       y       z     vdW  Elec       q    Type
REMARK                         _______ _______ _______ _____ _____    ______ ____
ROOT
ATOM      1  O   UNL     1      34.531 -12.686 -22.173  0.00  0.00    -0.274 OA
ATOM      2  N   UNL     1      34.788 -14.320 -23.846  0.00  0.00    -0.269 N 
ATOM      3  N   UNL     1      35.160 -16.655 -23.798  0.00  0.00    -0.229 NA
ATOM      4  C   UNL     1      34.583 -13.024 -23.352  0.00  0.00    +0.232 C 
ATOM      5  C   UNL     1      34.977 -15.501 -23.118  0.00  0.00    +0.134 C 
ATOM      6  C   UNL     1      35.339 -17.783 -21.667  0.00  0.00    +0.038 C 
ATOM      7  C   UNL     1      34.964 -15.409 -21.735  0.00  0.00    +0.035 C 
ATOM      8  C   UNL     1      35.150 -16.576 -21.004  0.00  0.00    +0.006 C 
ATOM      9  C   UNL     1      35.337 -17.769 -23.053  0.00  0.00    +0.102 C 
ATOM     10  H   UNL     1      34.800 -14.411 -24.826  0.00  0.00    +0.156 HD
ENDROOT
BRANCH   6  13
ATOM     11  N   UNL     1      36.800 -19.271 -20.545  0.00  0.00    -0.241 NA
ATOM     12  N   UNL     1      34.682 -21.017 -19.969  0.00  0.00    -0.239 NA
ATOM     13  C   UNL     1      35.536 -19.012 -20.935  0.00  0.00    +0.102 C 
ATOM     14  C   UNL     1      34.496 -19.870 -20.652  0.00  0.00    +0.118 C 
ATOM     15  C   UNL     1      36.986 -20.417 -19.862  0.00  0.00    +0.119 C 
ATOM     16  C   UNL     1      35.947 -21.275 -19.579  0.00  0.00    +0.120 C 
ENDBRANCH   6  13
BRANCH   4  17
ATOM     17  C   UNL     1      34.419 -12.029 -24.490  0.00  0.00    +0.113 C 
BRANCH  17  19
ATOM     18  N   UNL     1      32.434  -9.146 -23.047  0.00  0.00    -0.244 NA
ATOM     19  C   UNL     1      34.063 -10.641 -24.026  0.00  0.00    +0.006 C 
ATOM     20  C   UNL     1      34.615  -8.323 -23.694  0.00  0.00    -0.004 C 
ATOM     21  C   UNL     1      33.345  -8.154 -23.165  0.00  0.00    +0.077 C 
ATOM     22  C   UNL     1      34.972  -9.595 -24.130  0.00  0.00    -0.005 C 
ATOM     23  C   UNL     1      32.818 -10.366 -23.482  0.00  0.00    +0.095 C 
ATOM     24  C   UNL     1      35.591  -7.203 -23.807  0.00  0.00    +0.033 C 
BRANCH  21  26
ATOM     25  N   UNL     1      31.990  -4.387 -21.761  0.00  0.00    -0.248 NA
ATOM     26  C   UNL     1      32.883  -6.870 -22.686  0.00  0.00    +0.020 C 
ATOM     27  C   UNL     1      32.463  -5.898 -23.588  0.00  0.00    +0.016 C 
ATOM     28  C   UNL     1      32.858  -6.601 -21.322  0.00  0.00    +0.022 C 
ATOM     29  C   UNL     1      32.029  -4.684 -23.078  0.00  0.00    +0.059 C 
ATOM     30  C   UNL     1      32.407  -5.356 -20.914  0.00  0.00    +0.098 C 
ATOM     31  C   UNL     1      31.571  -3.618 -24.017  0.00  0.00    +0.052 C 
ENDBRANCH  21  26
ENDBRANCH  17  19
ENDBRANCH   4  17
TORSDOF 4
ENDMDL
MODEL 8
REMARK VINA RESULT:     -11.0      1.541      9.938
REMARK  Name = 46926973
REMARK  4 active torsions:
REMARK  status: ('A' for Active; 'I' for Inactive)
REMARK    1  A    between atoms: C_4  and  C_17
REMARK    2  A    between atoms: C_6  and  C_13
REMARK    3  A    between atoms: C_17  and  C_19
REMARK    4  A    between atoms: C_21  and  C_26
REMARK                            x       y       z     vdW  Elec       q    Type
REMARK                         _______ _______ _______ _____ _____    ______ ____
ROOT
ATOM      1  O   UNL     1      35.349 -17.273 -24.319  0.00  0.00    -0.274 OA
ATOM      2  N   UNL     1      35.654 -16.455 -22.135  0.00  0.00    -0.269 N 
ATOM      3  N   UNL     1      34.887 -14.530 -20.994  0.00  0.00    -0.229 NA
ATOM      4  C   UNL     1      35.823 -17.361 -23.191  0.00  0.00    +0.232 C 
ATOM      5  C   UNL     1      34.919 -15.263 -22.130  0.00  0.00    +0.134 C 
ATOM      6  C   UNL     1      33.473 -12.949 -22.155  0.00  0.00    +0.038 C 
ATOM      7  C   UNL     1      34.265 -14.911 -23.300  0.00  0.00    +0.035 C 
ATOM      8  C   UNL     1      33.531 -13.730 -23.305  0.00  0.00    +0.006 C 
ATOM      9  C   UNL     1      34.163 -13.388 -21.037  0.00  0.00    +0.102 C 
ATOM     10  H   UNL     1      36.109 -16.684 -21.292  0.00  0.00    +0.156 HD
ENDROOT
BRANCH   6  13
ATOM     11  N   UNL     1      33.158 -10.741 -22.949  0.00  0.00    -0.241 NA
ATOM     12  N   UNL     1      30.920 -10.398 -21.295  0.00  0.00    -0.239 NA
ATOM     13  C   UNL     1      32.720 -11.718 -22.129  0.00  0.00    +0.102 C 
ATOM     14  C   UNL     1      31.620 -11.549 -21.317  0.00  0.00    +0.118 C 
ATOM     15  C   UNL     1      32.457  -9.590 -22.927  0.00  0.00    +0.119 C 
ATOM     16  C   UNL     1      31.358  -9.421 -22.114  0.00  0.00    +0.120 C 
ENDBRANCH   6  13
BRANCH   4  17
ATOM     17  C   UNL     1      36.700 -18.530 -22.767  0.00  0.00    +0.113 C 
BRANCH  17  19
ATOM     18  N   UNL     1      36.461 -20.736 -19.699  0.00  0.00    -0.244 NA
ATOM     19  C   UNL     1      36.111 -19.345 -21.646  0.00  0.00    +0.006 C 
ATOM     20  C   UNL     1      34.219 -20.236 -20.456  0.00  0.00    -0.004 C 
ATOM     21  C   UNL     1      35.117 -20.839 -19.591  0.00  0.00    +0.077 C 
ATOM     22  C   UNL     1      34.735 -19.476 -21.501  0.00  0.00    -0.005 C 
ATOM     23  C   UNL     1      36.924 -19.989 -20.726  0.00  0.00    +0.095 C 
ATOM     24  C   UNL     1      32.744 -20.375 -20.303  0.00  0.00    +0.033 C 
BRANCH  21  26
ATOM     25  N   UNL     1      33.825 -23.214 -16.322  0.00  0.00    -0.248 NA
ATOM     26  C   UNL     1      34.677 -21.649 -18.476  0.00  0.00    +0.020 C 
ATOM     27  C   UNL     1      35.563 -21.971 -17.454  0.00  0.00    +0.016 C 
ATOM     28  C   UNL     1      33.365 -22.108 -18.423  0.00  0.00    +0.022 C 
ATOM     29  C   UNL     1      35.091 -22.750 -16.409  0.00  0.00    +0.059 C 
ATOM     30  C   UNL     1      32.993 -22.880 -17.334  0.00  0.00    +0.098 C 
ATOM     31  C   UNL     1      36.015 -23.115 -15.294  0.00  0.00    +0.052 C 
ENDBRANCH  21  26
ENDBRANCH  17  19
ENDBRANCH   4  17
TORSDOF 4
ENDMDL
MODEL 9
REMARK VINA RESULT:     -11.0      1.579      2.773
REMARK  Name = 46926973
REMARK  4 active torsions:
REMARK  status: ('A' for Active; 'I' for Inactive)
REMARK    1  A    between atoms: C_4  and  C_17
REMARK    2  A    between atoms: C_6  and  C_13
REMARK    3  A    between atoms: C_17  and  C_19
REMARK    4  A    between atoms: C_21  and  C_26
REMARK                            x       y       z     vdW  Elec       q    Type
REMARK                         _______ _______ _______ _____ _____    ______ ____
ROOT
ATOM      1  O   UNL     1      33.589 -19.781 -21.320  0.00  0.00    -0.274 OA
ATOM      2  N   UNL     1      35.529 -20.345 -20.117  0.00  0.00    -0.269 N 
ATOM      3  N   UNL     1      35.921 -21.608 -18.155  0.00  0.00    -0.229 NA
ATOM      4  C   UNL     1      34.804 -19.741 -21.153  0.00  0.00    +0.232 C 
ATOM      5  C   UNL     1      35.039 -21.116 -19.055  0.00  0.00    +0.134 C 
ATOM      6  C   UNL     1      34.049 -22.616 -17.003  0.00  0.00    +0.038 C 
ATOM      7  C   UNL     1      33.671 -21.326 -18.997  0.00  0.00    +0.035 C 
ATOM      8  C   UNL     1      33.175 -22.091 -17.948  0.00  0.00    +0.006 C 
ATOM      9  C   UNL     1      35.401 -22.348 -17.150  0.00  0.00    +0.102 C 
ATOM     10  H   UNL     1      36.505 -20.210 -20.137  0.00  0.00    +0.156 HD
ENDROOT
BRANCH   6  13
ATOM     11  N   UNL     1      32.236 -23.643 -15.879  0.00  0.00    -0.241 NA
ATOM     12  N   UNL     1      33.951 -24.656 -13.905  0.00  0.00    -0.239 NA
ATOM     13  C   UNL     1      33.565 -23.414 -15.901  0.00  0.00    +0.102 C 
ATOM     14  C   UNL     1      34.407 -23.913 -14.932  0.00  0.00    +0.118 C 
ATOM     15  C   UNL     1      31.781 -24.388 -14.852  0.00  0.00    +0.119 C 
ATOM     16  C   UNL     1      32.622 -24.885 -13.882  0.00  0.00    +0.120 C 
ENDBRANCH   6  13
BRANCH   4  17
ATOM     17  C   UNL     1      35.731 -18.995 -22.101  0.00  0.00    +0.113 C 
BRANCH  17  19
ATOM     18  N   UNL     1      34.978 -15.320 -21.588  0.00  0.00    -0.244 NA
ATOM     19  C   UNL     1      35.289 -17.582 -22.382  0.00  0.00    +0.006 C 
ATOM     20  C   UNL     1      34.397 -15.908 -23.861  0.00  0.00    -0.004 C 
ATOM     21  C   UNL     1      34.507 -15.005 -22.816  0.00  0.00    +0.077 C 
ATOM     22  C   UNL     1      34.799 -17.220 -23.631  0.00  0.00    -0.005 C 
ATOM     23  C   UNL     1      35.358 -16.604 -21.403  0.00  0.00    +0.095 C 
ATOM     24  C   UNL     1      33.871 -15.522 -25.200  0.00  0.00    +0.033 C 
BRANCH  21  26
ATOM     25  N   UNL     1      33.356 -10.944 -23.236  0.00  0.00    -0.248 NA
ATOM     26  C   UNL     1      34.114 -13.621 -22.959  0.00  0.00    +0.020 C 
ATOM     27  C   UNL     1      33.164 -13.072 -22.104  0.00  0.00    +0.016 C 
ATOM     28  C   UNL     1      34.685 -12.833 -23.952  0.00  0.00    +0.022 C 
ATOM     29  C   UNL     1      32.823 -11.741 -22.283  0.00  0.00    +0.059 C 
ATOM     30  C   UNL     1      34.275 -11.512 -24.048  0.00  0.00    +0.098 C 
ATOM     31  C   UNL     1      31.806 -11.119 -21.384  0.00  0.00    +0.052 C 
ENDBRANCH  21  26
ENDBRANCH  17  19
ENDBRANCH   4  17
TORSDOF 4
ENDMDL
