MODEL 1
REMARK VINA RESULT:     -12.0      0.000      0.000
REMARK  Name = 5287739
REMARK  3 active torsions:
REMARK  status: ('A' for Active; 'I' for Inactive)
REMARK    1  A    between atoms: C_2  and  O_21
REMARK    2  A    between atoms: C_3  and  O_23
REMARK    3  A    between atoms: C_4  and  O_25
REMARK                            x       y       z     vdW  Elec       q    Type
REMARK                         _______ _______ _______ _____ _____    ______ ____
ROOT
ATOM      1  C   UNL     1      35.796 -23.677 -13.335  0.00  0.00    -0.021 C 
ATOM      2  C   UNL     1      37.385 -24.758 -11.137  0.00  0.00    +0.168 C 
ATOM      3  C   UNL     1      38.058 -23.804 -12.126  0.00  0.00    +0.162 C 
ATOM      4  C   UNL     1      35.958 -24.296 -10.855  0.00  0.00    +0.144 C 
ATOM      5  C   UNL     1      35.114 -24.297 -12.128  0.00  0.00    +0.058 C 
ATOM      6  C   UNL     1      37.190 -23.461 -13.320  0.00  0.00    +0.003 C 
ATOM      7  C   UNL     1      35.039 -23.357 -14.503  0.00  0.00    -0.004 C 
ATOM      8  C   UNL     1      35.697 -22.781 -15.621  0.00  0.00    -0.000 C 
ATOM      9  C   UNL     1      37.088 -22.542 -15.581  0.00  0.00    -0.000 C 
ATOM     10  C   UNL     1      37.814 -22.887 -14.438  0.00  0.00    -0.002 C 
ATOM     11  C   UNL     1      34.972 -22.440 -16.797  0.00  0.00    -0.000 C 
ATOM     12  C   UNL     1      33.651 -23.585 -14.618  0.00  0.00    -0.000 C 
ATOM     13  C   UNL     1      33.582 -22.678 -16.868  0.00  0.00    -0.000 C 
ATOM     14  C   UNL     1      35.636 -21.861 -17.906  0.00  0.00    -0.000 C 
ATOM     15  C   UNL     1      37.730 -21.970 -16.687  0.00  0.00    -0.000 C 
ATOM     16  C   UNL     1      32.937 -23.253 -15.772  0.00  0.00    -0.000 C 
ATOM     17  C   UNL     1      37.014 -21.631 -17.834  0.00  0.00    -0.000 C 
ATOM     18  C   UNL     1      32.876 -22.337 -18.031  0.00  0.00    -0.000 C 
ATOM     19  C   UNL     1      34.906 -21.530 -19.057  0.00  0.00    -0.000 C 
ATOM     20  C   UNL     1      33.534 -21.766 -19.117  0.00  0.00    +0.000 C 
ENDROOT
BRANCH   2  21
ATOM     21  O   UNL     1      37.364 -26.079 -11.679  0.00  0.00    -0.379 OA
ATOM     22  H   UNL     1      36.535 -26.216 -12.162  0.00  0.00    +0.211 HD
ENDBRANCH   2  21
BRANCH   3  23
ATOM     23  O   UNL     1      38.378 -22.582 -11.464  0.00  0.00    -0.377 OA
ATOM     24  H   UNL     1      39.014 -22.757 -10.753  0.00  0.00    +0.211 HD
ENDBRANCH   3  23
BRANCH   4  25
ATOM     25  O   UNL     1      35.343 -25.157  -9.901  0.00  0.00    -0.382 OA
ATOM     26  H   UNL     1      34.505 -24.767  -9.606  0.00  0.00    +0.210 HD
ENDBRANCH   4  25
TORSDOF 3
ENDMDL
MODEL 2
REMARK VINA RESULT:     -10.9      0.925      3.157
REMARK  Name = 5287739
REMARK  3 active torsions:
REMARK  status: ('A' for Active; 'I' for Inactive)
REMARK    1  A    between atoms: C_2  and  O_21
REMARK    2  A    between atoms: C_3  and  O_23
REMARK    3  A    between atoms: C_4  and  O_25
REMARK                            x       y       z     vdW  Elec       q    Type
REMARK                         _______ _______ _______ _____ _____    ______ ____
ROOT
ATOM      1  C   UNL     1      36.696 -23.061 -13.953  0.00  0.00    -0.021 C 
ATOM      2  C   UNL     1      37.070 -23.539 -11.097  0.00  0.00    +0.168 C 
ATOM      3  C   UNL     1      35.771 -24.010 -11.753  0.00  0.00    +0.162 C 
ATOM      4  C   UNL     1      38.246 -23.772 -12.042  0.00  0.00    +0.144 C 
ATOM      5  C   UNL     1      38.081 -22.978 -13.337  0.00  0.00    +0.058 C 
ATOM      6  C   UNL     1      35.614 -23.542 -13.186  0.00  0.00    +0.003 C 
ATOM      7  C   UNL     1      36.475 -22.610 -15.290  0.00  0.00    -0.004 C 
ATOM      8  C   UNL     1      35.172 -22.694 -15.845  0.00  0.00    -0.000 C 
ATOM      9  C   UNL     1      34.104 -23.205 -15.077  0.00  0.00    -0.000 C 
ATOM     10  C   UNL     1      34.336 -23.618 -13.762  0.00  0.00    -0.002 C 
ATOM     11  C   UNL     1      34.918 -22.263 -17.178  0.00  0.00    -0.000 C 
ATOM     12  C   UNL     1      37.492 -22.071 -16.108  0.00  0.00    -0.000 C 
ATOM     13  C   UNL     1      35.966 -21.737 -17.965  0.00  0.00    -0.000 C 
ATOM     14  C   UNL     1      33.616 -22.355 -17.725  0.00  0.00    -0.000 C 
ATOM     15  C   UNL     1      32.821 -23.289 -15.633  0.00  0.00    -0.000 C 
ATOM     16  C   UNL     1      37.245 -21.645 -17.415  0.00  0.00    -0.000 C 
ATOM     17  C   UNL     1      32.579 -22.871 -16.941  0.00  0.00    -0.000 C 
ATOM     18  C   UNL     1      35.707 -21.316 -19.277  0.00  0.00    -0.000 C 
ATOM     19  C   UNL     1      33.384 -21.927 -19.041  0.00  0.00    -0.000 C 
ATOM     20  C   UNL     1      34.424 -21.411 -19.811  0.00  0.00    +0.000 C 
ENDROOT
BRANCH   2  21
ATOM     21  O   UNL     1      36.975 -22.150 -10.781  0.00  0.00    -0.379 OA
ATOM     22  H   UNL     1      36.990 -22.036  -9.819  0.00  0.00    +0.211 HD
ENDBRANCH   2  21
BRANCH   3  23
ATOM     23  O   UNL     1      35.732 -25.436 -11.762  0.00  0.00    -0.377 OA
ATOM     24  H   UNL     1      36.634 -25.784 -11.677  0.00  0.00    +0.211 HD
ENDBRANCH   3  23
BRANCH   4  25
ATOM     25  O   UNL     1      39.463 -23.375 -11.417  0.00  0.00    -0.382 OA
ATOM     26  H   UNL     1      39.708 -24.027 -10.742  0.00  0.00    +0.210 HD
ENDBRANCH   4  25
TORSDOF 3
ENDMDL
MODEL 3
REMARK VINA RESULT:     -10.7      3.031      4.939
REMARK  Name = 5287739
REMARK  3 active torsions:
REMARK  status: ('A' for Active; 'I' for Inactive)
REMARK    1  A    between atoms: C_2  and  O_21
REMARK    2  A    between atoms: C_3  and  O_23
REMARK    3  A    between atoms: C_4  and  O_25
REMARK                            x       y       z     vdW  Elec       q    Type
REMARK                         _______ _______ _______ _____ _____    ______ ____
ROOT
ATOM      1  C   UNL     1      31.884 -23.438 -15.535  0.00  0.00    -0.021 C 
ATOM      2  C   UNL     1      30.011 -24.942 -13.874  0.00  0.00    +0.168 C 
ATOM      3  C   UNL     1      31.351 -24.518 -13.267  0.00  0.00    +0.162 C 
ATOM      4  C   UNL     1      29.471 -23.831 -14.770  0.00  0.00    +0.144 C 
ATOM      5  C   UNL     1      30.422 -23.544 -15.931  0.00  0.00    +0.058 C 
ATOM      6  C   UNL     1      32.307 -23.913 -14.275  0.00  0.00    +0.003 C 
ATOM      7  C   UNL     1      32.840 -22.903 -16.450  0.00  0.00    -0.004 C 
ATOM      8  C   UNL     1      34.202 -22.815 -16.060  0.00  0.00    -0.000 C 
ATOM      9  C   UNL     1      34.606 -23.266 -14.786  0.00  0.00    -0.000 C 
ATOM     10  C   UNL     1      33.659 -23.810 -13.914  0.00  0.00    -0.002 C 
ATOM     11  C   UNL     1      35.180 -22.278 -16.944  0.00  0.00    -0.000 C 
ATOM     12  C   UNL     1      32.509 -22.451 -17.746  0.00  0.00    -0.000 C 
ATOM     13  C   UNL     1      34.805 -21.829 -18.229  0.00  0.00    -0.000 C 
ATOM     14  C   UNL     1      36.535 -22.189 -16.545  0.00  0.00    -0.000 C 
ATOM     15  C   UNL     1      35.952 -23.173 -14.406  0.00  0.00    -0.000 C 
ATOM     16  C   UNL     1      33.468 -21.925 -18.616  0.00  0.00    -0.000 C 
ATOM     17  C   UNL     1      36.904 -22.639 -15.273  0.00  0.00    -0.000 C 
ATOM     18  C   UNL     1      35.775 -21.300 -19.092  0.00  0.00    -0.000 C 
ATOM     19  C   UNL     1      37.486 -21.656 -17.428  0.00  0.00    -0.000 C 
ATOM     20  C   UNL     1      37.107 -21.214 -18.693  0.00  0.00    +0.000 C 
ENDROOT
BRANCH   2  21
ATOM     21  O   UNL     1      30.184 -26.135 -14.637  0.00  0.00    -0.379 OA
ATOM     22  H   UNL     1      29.483 -26.195 -15.304  0.00  0.00    +0.211 HD
ENDBRANCH   2  21
BRANCH   3  23
ATOM     23  O   UNL     1      31.126 -23.542 -12.251  0.00  0.00    -0.377 OA
ATOM     24  H   UNL     1      31.957 -23.080 -12.059  0.00  0.00    +0.211 HD
ENDBRANCH   3  23
BRANCH   4  25
ATOM     25  O   UNL     1      28.204 -24.203 -15.302  0.00  0.00    -0.382 OA
ATOM     26  H   UNL     1      28.178 -25.163 -15.438  0.00  0.00    +0.210 HD
ENDBRANCH   4  25
TORSDOF 3
ENDMDL
MODEL 4
REMARK VINA RESULT:     -10.4      1.585      3.846
REMARK  Name = 5287739
REMARK  3 active torsions:
REMARK  status: ('A' for Active; 'I' for Inactive)
REMARK    1  A    between atoms: C_2  and  O_21
REMARK    2  A    between atoms: C_3  and  O_23
REMARK    3  A    between atoms: C_4  and  O_25
REMARK                            x       y       z     vdW  Elec       q    Type
REMARK                         _______ _______ _______ _____ _____    ______ ____
ROOT
ATOM      1  C   UNL     1      36.504 -23.097 -15.867  0.00  0.00    -0.021 C 
ATOM      2  C   UNL     1      36.980 -24.278 -13.239  0.00  0.00    +0.168 C 
ATOM      3  C   UNL     1      35.604 -24.458 -13.884  0.00  0.00    +0.162 C 
ATOM      4  C   UNL     1      38.071 -24.382 -14.301  0.00  0.00    +0.144 C 
ATOM      5  C   UNL     1      37.921 -23.289 -15.358  0.00  0.00    +0.058 C 
ATOM      6  C   UNL     1      35.419 -23.648 -15.151  0.00  0.00    +0.003 C 
ATOM      7  C   UNL     1      36.259 -22.320 -17.040  0.00  0.00    -0.004 C 
ATOM      8  C   UNL     1      34.926 -22.150 -17.496  0.00  0.00    -0.000 C 
ATOM      9  C   UNL     1      33.854 -22.733 -16.787  0.00  0.00    -0.000 C 
ATOM     10  C   UNL     1      34.112 -23.468 -15.627  0.00  0.00    -0.002 C 
ATOM     11  C   UNL     1      34.648 -21.391 -18.667  0.00  0.00    -0.000 C 
ATOM     12  C   UNL     1      37.281 -21.694 -17.786  0.00  0.00    -0.000 C 
ATOM     13  C   UNL     1      35.701 -20.788 -19.389  0.00  0.00    -0.000 C 
ATOM     14  C   UNL     1      33.316 -21.231 -19.118  0.00  0.00    -0.000 C 
ATOM     15  C   UNL     1      32.540 -22.564 -17.246  0.00  0.00    -0.000 C 
ATOM     16  C   UNL     1      37.011 -20.947 -18.934  0.00  0.00    -0.000 C 
ATOM     17  C   UNL     1      32.274 -21.825 -18.398  0.00  0.00    -0.000 C 
ATOM     18  C   UNL     1      35.417 -20.043 -20.542  0.00  0.00    -0.000 C 
ATOM     19  C   UNL     1      33.059 -20.480 -20.275  0.00  0.00    -0.000 C 
ATOM     20  C   UNL     1      34.104 -19.891 -20.982  0.00  0.00    +0.000 C 
ENDROOT
BRANCH   2  21
ATOM     21  O   UNL     1      37.049 -23.002 -12.601  0.00  0.00    -0.379 OA
ATOM     22  H   UNL     1      36.153 -22.652 -12.482  0.00  0.00    +0.211 HD
ENDBRANCH   2  21
BRANCH   3  23
ATOM     23  O   UNL     1      35.414 -25.831 -14.222  0.00  0.00    -0.377 OA
ATOM     24  H   UNL     1      36.187 -26.153 -14.711  0.00  0.00    +0.211 HD
ENDBRANCH   3  23
BRANCH   4  25
ATOM     25  O   UNL     1      39.355 -24.258 -13.698  0.00  0.00    -0.382 OA
ATOM     26  H   UNL     1      39.409 -23.415 -13.221  0.00  0.00    +0.210 HD
ENDBRANCH   4  25
TORSDOF 3
ENDMDL
MODEL 5
REMARK VINA RESULT:     -10.1      1.538      2.528
REMARK  Name = 5287739
REMARK  3 active torsions:
REMARK  status: ('A' for Active; 'I' for Inactive)
REMARK    1  A    between atoms: C_2  and  O_21
REMARK    2  A    between atoms: C_3  and  O_23
REMARK    3  A    between atoms: C_4  and  O_25
REMARK                            x       y       z     vdW  Elec       q    Type
REMARK                         _______ _______ _______ _____ _____    ______ ____
ROOT
ATOM      1  C   UNL     1      34.960 -23.045 -15.622  0.00  0.00    -0.021 C 
ATOM      2  C   UNL     1      36.117 -24.674 -13.492  0.00  0.00    +0.168 C 
ATOM      3  C   UNL     1      37.026 -23.701 -14.245  0.00  0.00    +0.162 C 
ATOM      4  C   UNL     1      34.746 -24.040 -13.271  0.00  0.00    +0.144 C 
ATOM      5  C   UNL     1      34.063 -23.721 -14.601  0.00  0.00    +0.058 C 
ATOM      6  C   UNL     1      36.360 -23.054 -15.443  0.00  0.00    +0.003 C 
ATOM      7  C   UNL     1      34.397 -22.441 -16.787  0.00  0.00    -0.004 C 
ATOM      8  C   UNL     1      35.254 -21.817 -17.730  0.00  0.00    -0.000 C 
ATOM      9  C   UNL     1      36.650 -21.807 -17.523  0.00  0.00    -0.000 C 
ATOM     10  C   UNL     1      37.183 -22.426 -16.389  0.00  0.00    -0.002 C 
ATOM     11  C   UNL     1      34.725 -21.197 -18.896  0.00  0.00    -0.000 C 
ATOM     12  C   UNL     1      33.013 -22.430 -17.066  0.00  0.00    -0.000 C 
ATOM     13  C   UNL     1      33.333 -21.202 -19.134  0.00  0.00    -0.000 C 
ATOM     14  C   UNL     1      35.587 -20.572 -19.830  0.00  0.00    -0.000 C 
ATOM     15  C   UNL     1      37.490 -21.185 -18.456  0.00  0.00    -0.000 C 
ATOM     16  C   UNL     1      32.491 -21.824 -18.211  0.00  0.00    -0.000 C 
ATOM     17  C   UNL     1      36.966 -20.573 -19.594  0.00  0.00    -0.000 C 
ATOM     18  C   UNL     1      32.822 -20.587 -20.286  0.00  0.00    -0.000 C 
ATOM     19  C   UNL     1      35.049 -19.964 -20.974  0.00  0.00    -0.000 C 
ATOM     20  C   UNL     1      33.675 -19.972 -21.199  0.00  0.00    +0.000 C 
ENDROOT
BRANCH   2  21
ATOM     21  O   UNL     1      35.975 -25.880 -14.242  0.00  0.00    -0.379 OA
ATOM     22  H   UNL     1      36.716 -26.472 -14.044  0.00  0.00    +0.211 HD
ENDBRANCH   2  21
BRANCH   3  23
ATOM     23  O   UNL     1      37.436 -22.655 -13.366  0.00  0.00    -0.377 OA
ATOM     24  H   UNL     1      36.679 -22.078 -13.176  0.00  0.00    +0.211 HD
ENDBRANCH   3  23
BRANCH   4  25
ATOM     25  O   UNL     1      33.910 -24.925 -12.532  0.00  0.00    -0.382 OA
ATOM     26  H   UNL     1      34.077 -25.839 -12.812  0.00  0.00    +0.210 HD
ENDBRANCH   4  25
TORSDOF 3
ENDMDL
MODEL 6
REMARK VINA RESULT:      -9.9      2.082      4.374
REMARK  Name = 5287739
REMARK  3 active torsions:
REMARK  status: ('A' for Active; 'I' for Inactive)
REMARK    1  A    between atoms: C_2  and  O_21
REMARK    2  A    between atoms: C_3  and  O_23
REMARK    3  A    between atoms: C_4  and  O_25
REMARK                            x       y       z     vdW  Elec       q    Type
REMARK                         _______ _______ _______ _____ _____    ______ ____
ROOT
ATOM      1  C   UNL     1      34.202 -23.177 -15.323  0.00  0.00    -0.021 C 
ATOM      2  C   UNL     1      32.536 -24.038 -13.086  0.00  0.00    +0.168 C 
ATOM      3  C   UNL     1      31.885 -23.868 -14.460  0.00  0.00    +0.162 C 
ATOM      4  C   UNL     1      33.929 -24.642 -13.240  0.00  0.00    +0.144 C 
ATOM      5  C   UNL     1      34.839 -23.730 -14.062  0.00  0.00    +0.058 C 
ATOM      6  C   UNL     1      32.803 -23.242 -15.490  0.00  0.00    +0.003 C 
ATOM      7  C   UNL     1      35.008 -22.549 -16.321  0.00  0.00    -0.004 C 
ATOM      8  C   UNL     1      34.392 -22.036 -17.492  0.00  0.00    -0.000 C 
ATOM      9  C   UNL     1      32.994 -22.135 -17.659  0.00  0.00    -0.000 C 
ATOM     10  C   UNL     1      32.220 -22.731 -16.660  0.00  0.00    -0.002 C 
ATOM     11  C   UNL     1      35.166 -21.413 -18.510  0.00  0.00    -0.000 C 
ATOM     12  C   UNL     1      36.408 -22.400 -16.210  0.00  0.00    -0.000 C 
ATOM     13  C   UNL     1      36.566 -21.292 -18.363  0.00  0.00    -0.000 C 
ATOM     14  C   UNL     1      34.543 -20.909 -19.677  0.00  0.00    -0.000 C 
ATOM     15  C   UNL     1      32.392 -21.630 -18.820  0.00  0.00    -0.000 C 
ATOM     16  C   UNL     1      37.170 -21.787 -17.207  0.00  0.00    -0.000 C 
ATOM     17  C   UNL     1      33.157 -21.026 -19.817  0.00  0.00    -0.000 C 
ATOM     18  C   UNL     1      37.320 -20.677 -19.373  0.00  0.00    -0.000 C 
ATOM     19  C   UNL     1      35.322 -20.299 -20.672  0.00  0.00    -0.000 C 
ATOM     20  C   UNL     1      36.702 -20.185 -20.519  0.00  0.00    +0.000 C 
ENDROOT
BRANCH   2  21
ATOM     21  O   UNL     1      32.630 -22.770 -12.437  0.00  0.00    -0.379 OA
ATOM     22  H   UNL     1      31.757 -22.512 -12.104  0.00  0.00    +0.211 HD
ENDBRANCH   2  21
BRANCH   3  23
ATOM     23  O   UNL     1      31.488 -25.145 -14.959  0.00  0.00    -0.377 OA
ATOM     24  H   UNL     1      31.154 -25.047 -15.865  0.00  0.00    +0.211 HD
ENDBRANCH   3  23
BRANCH   4  25
ATOM     25  O   UNL     1      34.521 -24.842 -11.960  0.00  0.00    -0.382 OA
ATOM     26  H   UNL     1      35.485 -24.764 -12.034  0.00  0.00    +0.210 HD
ENDBRANCH   4  25
TORSDOF 3
ENDMDL
MODEL 7
REMARK VINA RESULT:      -9.8      2.009      3.502
REMARK  Name = 5287739
REMARK  3 active torsions:
REMARK  status: ('A' for Active; 'I' for Inactive)
REMARK    1  A    between atoms: C_2  and  O_21
REMARK    2  A    between atoms: C_3  and  O_23
REMARK    3  A    between atoms: C_4  and  O_25
REMARK                            x       y       z     vdW  Elec       q    Type
REMARK                         _______ _______ _______ _____ _____    ______ ____
ROOT
ATOM      1  C   UNL     1      35.179 -24.239 -13.865  0.00  0.00    -0.021 C 
ATOM      2  C   UNL     1      38.038 -24.834 -13.805  0.00  0.00    +0.168 C 
ATOM      3  C   UNL     1      37.520 -23.834 -14.841  0.00  0.00    +0.162 C 
ATOM      4  C   UNL     1      37.298 -24.645 -12.483  0.00  0.00    +0.144 C 
ATOM      5  C   UNL     1      35.800 -24.898 -12.646  0.00  0.00    +0.058 C 
ATOM      6  C   UNL     1      36.008 -23.751 -14.897  0.00  0.00    +0.003 C 
ATOM      7  C   UNL     1      33.760 -24.153 -13.992  0.00  0.00    -0.004 C 
ATOM      8  C   UNL     1      33.201 -23.535 -15.141  0.00  0.00    -0.000 C 
ATOM      9  C   UNL     1      34.042 -23.024 -16.152  0.00  0.00    -0.000 C 
ATOM     10  C   UNL     1      35.428 -23.140 -16.020  0.00  0.00    -0.002 C 
ATOM     11  C   UNL     1      31.790 -23.424 -15.295  0.00  0.00    -0.000 C 
ATOM     12  C   UNL     1      32.860 -24.659 -13.029  0.00  0.00    -0.000 C 
ATOM     13  C   UNL     1      30.925 -23.937 -14.303  0.00  0.00    -0.000 C 
ATOM     14  C   UNL     1      31.241 -22.801 -16.441  0.00  0.00    -0.000 C 
ATOM     15  C   UNL     1      33.483 -22.411 -17.282  0.00  0.00    -0.000 C 
ATOM     16  C   UNL     1      31.475 -24.553 -13.179  0.00  0.00    -0.000 C 
ATOM     17  C   UNL     1      32.101 -22.299 -17.424  0.00  0.00    -0.000 C 
ATOM     18  C   UNL     1      29.537 -23.821 -14.464  0.00  0.00    -0.000 C 
ATOM     19  C   UNL     1      29.849 -22.699 -16.577  0.00  0.00    -0.000 C 
ATOM     20  C   UNL     1      29.004 -23.206 -15.593  0.00  0.00    +0.000 C 
ENDROOT
BRANCH   2  21
ATOM     21  O   UNL     1      37.841 -26.166 -14.280  0.00  0.00    -0.379 OA
ATOM     22  H   UNL     1      38.126 -26.796 -13.600  0.00  0.00    +0.211 HD
ENDBRANCH   2  21
BRANCH   3  23
ATOM     23  O   UNL     1      38.009 -22.531 -14.530  0.00  0.00    -0.377 OA
ATOM     24  H   UNL     1      38.831 -22.370 -15.020  0.00  0.00    +0.211 HD
ENDBRANCH   3  23
BRANCH   4  25
ATOM     25  O   UNL     1      37.807 -25.544 -11.503  0.00  0.00    -0.382 OA
ATOM     26  H   UNL     1      38.760 -25.664 -11.637  0.00  0.00    +0.210 HD
ENDBRANCH   4  25
TORSDOF 3
ENDMDL
MODEL 8
REMARK VINA RESULT:      -9.7      2.094      4.445
REMARK  Name = 5287739
REMARK  3 active torsions:
REMARK  status: ('A' for Active; 'I' for Inactive)
REMARK    1  A    between atoms: C_2  and  O_21
REMARK    2  A    between atoms: C_3  and  O_23
REMARK    3  A    between atoms: C_4  and  O_25
REMARK                            x       y       z     vdW  Elec       q    Type
REMARK                         _______ _______ _______ _____ _____    ______ ____
ROOT
ATOM      1  C   UNL     1      35.443 -23.824 -14.719  0.00  0.00    -0.021 C 
ATOM      2  C   UNL     1      37.978 -24.150 -13.306  0.00  0.00    +0.168 C 
ATOM      3  C   UNL     1      36.722 -24.797 -12.716  0.00  0.00    +0.162 C 
ATOM      4  C   UNL     1      37.962 -24.275 -14.827  0.00  0.00    +0.144 C 
ATOM      5  C   UNL     1      36.757 -23.554 -15.429  0.00  0.00    +0.058 C 
ATOM      6  C   UNL     1      35.446 -24.403 -13.432  0.00  0.00    +0.003 C 
ATOM      7  C   UNL     1      34.206 -23.451 -15.327  0.00  0.00    -0.004 C 
ATOM      8  C   UNL     1      32.989 -23.710 -14.644  0.00  0.00    -0.000 C 
ATOM      9  C   UNL     1      33.006 -24.317 -13.370  0.00  0.00    -0.000 C 
ATOM     10  C   UNL     1      34.228 -24.651 -12.781  0.00  0.00    -0.002 C 
ATOM     11  C   UNL     1      31.739 -23.361 -15.226  0.00  0.00    -0.000 C 
ATOM     12  C   UNL     1      34.117 -22.824 -16.589  0.00  0.00    -0.000 C 
ATOM     13  C   UNL     1      31.694 -22.742 -16.495  0.00  0.00    -0.000 C 
ATOM     14  C   UNL     1      30.529 -23.627 -14.540  0.00  0.00    -0.000 C 
ATOM     15  C   UNL     1      31.801 -24.574 -12.703  0.00  0.00    -0.000 C 
ATOM     16  C   UNL     1      32.891 -22.478 -17.161  0.00  0.00    -0.000 C 
ATOM     17  C   UNL     1      30.577 -24.235 -13.281  0.00  0.00    -0.000 C 
ATOM     18  C   UNL     1      30.456 -22.402 -17.060  0.00  0.00    -0.000 C 
ATOM     19  C   UNL     1      29.305 -23.277 -15.128  0.00  0.00    -0.000 C 
ATOM     20  C   UNL     1      29.270 -22.669 -16.380  0.00  0.00    +0.000 C 
ENDROOT
BRANCH   2  21
ATOM     21  O   UNL     1      38.029 -22.773 -12.937  0.00  0.00    -0.379 OA
ATOM     22  H   UNL     1      37.151 -22.483 -12.647  0.00  0.00    +0.211 HD
ENDBRANCH   2  21
BRANCH   3  23
ATOM     23  O   UNL     1      36.837 -26.217 -12.795  0.00  0.00    -0.377 OA
ATOM     24  H   UNL     1      36.321 -26.622 -12.080  0.00  0.00    +0.211 HD
ENDBRANCH   3  23
BRANCH   4  25
ATOM     25  O   UNL     1      39.150 -23.714 -15.377  0.00  0.00    -0.382 OA
ATOM     26  H   UNL     1      38.989 -23.453 -16.297  0.00  0.00    +0.210 HD
ENDBRANCH   4  25
TORSDOF 3
ENDMDL
MODEL 9
REMARK VINA RESULT:      -9.6      1.675      3.870
REMARK  Name = 5287739
REMARK  3 active torsions:
REMARK  status: ('A' for Active; 'I' for Inactive)
REMARK    1  A    between atoms: C_2  and  O_21
REMARK    2  A    between atoms: C_3  and  O_23
REMARK    3  A    between atoms: C_4  and  O_25
REMARK                            x       y       z     vdW  Elec       q    Type
REMARK                         _______ _______ _______ _____ _____    ______ ____
ROOT
ATOM      1  C   UNL     1      35.635 -23.219 -15.469  0.00  0.00    -0.021 C 
ATOM      2  C   UNL     1      35.022 -24.371 -12.857  0.00  0.00    +0.168 C 
ATOM      3  C   UNL     1      33.917 -24.326 -13.915  0.00  0.00    +0.162 C 
ATOM      4  C   UNL     1      36.358 -24.706 -13.514  0.00  0.00    +0.144 C 
ATOM      5  C   UNL     1      36.755 -23.643 -14.536  0.00  0.00    +0.058 C 
ATOM      6  C   UNL     1      34.298 -23.542 -15.154  0.00  0.00    +0.003 C 
ATOM      7  C   UNL     1      35.924 -22.454 -16.640  0.00  0.00    -0.004 C 
ATOM      8  C   UNL     1      34.862 -22.066 -17.497  0.00  0.00    -0.000 C 
ATOM      9  C   UNL     1      33.532 -22.422 -17.185  0.00  0.00    -0.000 C 
ATOM     10  C   UNL     1      33.268 -23.149 -16.022  0.00  0.00    -0.002 C 
ATOM     11  C   UNL     1      35.116 -21.313 -18.677  0.00  0.00    -0.000 C 
ATOM     12  C   UNL     1      37.227 -22.049 -17.003  0.00  0.00    -0.000 C 
ATOM     13  C   UNL     1      36.436 -20.934 -19.007  0.00  0.00    -0.000 C 
ATOM     14  C   UNL     1      34.051 -20.934 -19.529  0.00  0.00    -0.000 C 
ATOM     15  C   UNL     1      32.489 -22.039 -18.038  0.00  0.00    -0.000 C 
ATOM     16  C   UNL     1      37.479 -21.307 -18.159  0.00  0.00    -0.000 C 
ATOM     17  C   UNL     1      32.744 -21.306 -19.197  0.00  0.00    -0.000 C 
ATOM     18  C   UNL     1      36.676 -20.192 -20.173  0.00  0.00    -0.000 C 
ATOM     19  C   UNL     1      34.319 -20.192 -20.689  0.00  0.00    -0.000 C 
ATOM     20  C   UNL     1      35.624 -19.825 -21.008  0.00  0.00    +0.000 C 
ENDROOT
BRANCH   2  21
ATOM     21  O   UNL     1      35.112 -23.106 -12.201  0.00  0.00    -0.379 OA
ATOM     22  H   UNL     1      34.333 -22.978 -11.639  0.00  0.00    +0.211 HD
ENDBRANCH   2  21
BRANCH   3  23
ATOM     23  O   UNL     1      33.601 -25.654 -14.328  0.00  0.00    -0.377 OA
ATOM     24  H   UNL     1      34.341 -26.018 -14.840  0.00  0.00    +0.211 HD
ENDBRANCH   3  23
BRANCH   4  25
ATOM     25  O   UNL     1      37.381 -24.792 -12.526  0.00  0.00    -0.382 OA
ATOM     26  H   UNL     1      38.250 -24.730 -12.954  0.00  0.00    +0.210 HD
ENDBRANCH   4  25
TORSDOF 3
ENDMDL
