MODEL 1
REMARK VINA RESULT:     -11.8      0.000      0.000
REMARK  Name = 54726191
REMARK  4 active torsions:
REMARK  status: ('A' for Active; 'I' for Inactive)
REMARK    1  A    between atoms: C_15  and  O_31
REMARK    2  A    between atoms: C_16  and  C_20
REMARK    3  A    between atoms: N_19  and  C_22
REMARK    4  A    between atoms: C_22  and  C_25
REMARK                            x       y       z     vdW  Elec       q    Type
REMARK                         _______ _______ _______ _____ _____    ______ ____
ROOT
ATOM      1  O   UNL     1      37.258 -22.710 -15.488  0.00  0.00    -0.336 OA
ATOM      2  O   UNL     1      33.367 -23.377 -18.034  0.00  0.00    -0.268 OA
ATOM      3  O   UNL     1      33.772 -19.689 -21.520  0.00  0.00    -0.283 OA
ATOM      4  N   UNL     1      35.147 -22.896 -16.634  0.00  0.00    -0.253 N 
ATOM      5  N   UNL     1      36.177 -21.188 -18.623  0.00  0.00    -0.275 N 
ATOM      6  C   UNL     1      36.320 -22.060 -16.354  0.00  0.00    +0.215 C 
ATOM      7  C   UNL     1      34.569 -23.673 -15.522  0.00  0.00    +0.080 C 
ATOM      8  C   UNL     1      35.655 -24.241 -14.609  0.00  0.00    +0.052 C 
ATOM      9  C   UNL     1      37.079 -21.766 -17.637  0.00  0.00    +0.147 C 
ATOM     10  C   UNL     1      36.684 -23.179 -14.275  0.00  0.00    +0.146 C 
ATOM     11  C   UNL     1      34.384 -22.725 -17.798  0.00  0.00    +0.267 C 
ATOM     12  C   UNL     1      34.871 -21.665 -18.759  0.00  0.00    +0.143 C 
ATOM     13  C   UNL     1      33.561 -22.822 -14.740  0.00  0.00    +0.022 C 
ATOM     14  C   UNL     1      36.635 -20.222 -19.509  0.00  0.00    +0.074 C 
ATOM     15  C   UNL     1      34.022 -21.203 -19.704  0.00  0.00    +0.191 C 
ATOM     16  C   UNL     1      35.907 -19.677 -20.491  0.00  0.00    +0.110 C 
ATOM     17  C   UNL     1      34.506 -20.146 -20.649  0.00  0.00    +0.236 C 
ENDROOT
BRANCH  16  20
ATOM     18  O   UNL     1      37.751 -18.596 -21.465  0.00  0.00    -0.270 OA
ATOM     19  N   UNL     1      35.603 -17.838 -21.965  0.00  0.00    -0.297 N 
ATOM     20  C   UNL     1      36.527 -18.664 -21.344  0.00  0.00    +0.251 C 
ATOM     21  H   UNL     1      34.647 -17.993 -21.788  0.00  0.00    +0.150 HD
BRANCH  19  22
ATOM     22  C   UNL     1      35.969 -16.761 -22.856  0.00  0.00    +0.119 C 
BRANCH  22  25
ATOM     23  F   UNL     1      34.724 -15.385 -24.991  0.00  0.00    -0.204 F 
ATOM     24  F   UNL     1      32.743 -12.210 -22.097  0.00  0.00    -0.204 F 
ATOM     25  C   UNL     1      35.109 -15.548 -22.655  0.00  0.00    +0.025 C 
ATOM     26  C   UNL     1      34.524 -14.916 -23.753  0.00  0.00    +0.140 C 
ATOM     27  C   UNL     1      34.894 -15.052 -21.369  0.00  0.00    +0.002 C 
ATOM     28  C   UNL     1      33.724 -13.788 -23.564  0.00  0.00    +0.059 C 
ATOM     29  C   UNL     1      34.095 -13.924 -21.180  0.00  0.00    +0.030 C 
ATOM     30  C   UNL     1      33.510 -13.292 -22.278  0.00  0.00    +0.142 C 
ENDBRANCH  22  25
ENDBRANCH  19  22
ENDBRANCH  16  20
BRANCH  15  31
ATOM     31  O   UNL     1      32.721 -21.630 -19.851  0.00  0.00    -0.502 OA
ATOM     32  H   UNL     1      32.026 -21.004 -19.906  0.00  0.00    +0.292 HD
ENDBRANCH  15  31
TORSDOF 4
ENDMDL
MODEL 2
REMARK VINA RESULT:     -11.2      1.176      1.446
REMARK  Name = 54726191
REMARK  4 active torsions:
REMARK  status: ('A' for Active; 'I' for Inactive)
REMARK    1  A    between atoms: C_15  and  O_31
REMARK    2  A    between atoms: C_16  and  C_20
REMARK    3  A    between atoms: N_19  and  C_22
REMARK    4  A    between atoms: C_22  and  C_25
REMARK                            x       y       z     vdW  Elec       q    Type
REMARK                         _______ _______ _______ _____ _____    ______ ____
ROOT
ATOM      1  O   UNL     1      36.905 -23.050 -14.740  0.00  0.00    -0.336 OA
ATOM      2  O   UNL     1      33.109 -23.610 -17.450  0.00  0.00    -0.268 OA
ATOM      3  O   UNL     1      33.897 -20.111 -21.063  0.00  0.00    -0.283 OA
ATOM      4  N   UNL     1      34.845 -23.168 -15.982  0.00  0.00    -0.253 N 
ATOM      5  N   UNL     1      36.068 -21.612 -17.987  0.00  0.00    -0.275 N 
ATOM      6  C   UNL     1      36.050 -22.388 -15.679  0.00  0.00    +0.215 C 
ATOM      7  C   UNL     1      34.169 -23.860 -14.870  0.00  0.00    +0.080 C 
ATOM      8  C   UNL     1      35.175 -24.448 -13.880  0.00  0.00    +0.052 C 
ATOM      9  C   UNL     1      36.885 -22.196 -16.934  0.00  0.00    +0.147 C 
ATOM     10  C   UNL     1      36.247 -23.432 -13.539  0.00  0.00    +0.146 C 
ATOM     11  C   UNL     1      34.150 -23.007 -17.190  0.00  0.00    +0.267 C 
ATOM     12  C   UNL     1      34.743 -22.020 -18.169  0.00  0.00    +0.143 C 
ATOM     13  C   UNL     1      33.177 -22.919 -14.176  0.00  0.00    +0.022 C 
ATOM     14  C   UNL     1      36.624 -20.714 -18.888  0.00  0.00    +0.074 C 
ATOM     15  C   UNL     1      33.970 -21.554 -19.174  0.00  0.00    +0.191 C 
ATOM     16  C   UNL     1      35.977 -20.174 -19.928  0.00  0.00    +0.110 C 
ATOM     17  C   UNL     1      34.560 -20.569 -20.137  0.00  0.00    +0.236 C 
ENDROOT
BRANCH  16  20
ATOM     18  O   UNL     1      37.721 -18.674 -20.405  0.00  0.00    -0.270 OA
ATOM     19  N   UNL     1      36.100 -19.077 -22.032  0.00  0.00    -0.297 N 
ATOM     20  C   UNL     1      36.695 -19.237 -20.791  0.00  0.00    +0.251 C 
ATOM     21  H   UNL     1      35.278 -19.584 -22.224  0.00  0.00    +0.150 HD
BRANCH  19  22
ATOM     22  C   UNL     1      36.622 -18.204 -23.059  0.00  0.00    +0.119 C 
BRANCH  22  25
ATOM     23  F   UNL     1      34.868 -18.286 -25.278  0.00  0.00    -0.204 F 
ATOM     24  F   UNL     1      33.050 -14.030 -24.293  0.00  0.00    -0.204 F 
ATOM     25  C   UNL     1      35.669 -17.092 -23.389  0.00  0.00    +0.025 C 
ATOM     26  C   UNL     1      34.831 -17.196 -24.500  0.00  0.00    +0.140 C 
ATOM     27  C   UNL     1      35.622 -15.954 -22.584  0.00  0.00    +0.002 C 
ATOM     28  C   UNL     1      33.946 -16.162 -24.805  0.00  0.00    +0.059 C 
ATOM     29  C   UNL     1      34.737 -14.919 -22.890  0.00  0.00    +0.030 C 
ATOM     30  C   UNL     1      33.899 -15.023 -24.000  0.00  0.00    +0.142 C 
ENDBRANCH  22  25
ENDBRANCH  19  22
ENDBRANCH  16  20
BRANCH  15  31
ATOM     31  O   UNL     1      32.655 -21.912 -19.368  0.00  0.00    -0.502 OA
ATOM     32  H   UNL     1      32.411 -22.817 -19.371  0.00  0.00    +0.292 HD
ENDBRANCH  15  31
TORSDOF 4
ENDMDL
MODEL 3
REMARK VINA RESULT:     -11.2      1.121      1.772
REMARK  Name = 54726191
REMARK  4 active torsions:
REMARK  status: ('A' for Active; 'I' for Inactive)
REMARK    1  A    between atoms: C_15  and  O_31
REMARK    2  A    between atoms: C_16  and  C_20
REMARK    3  A    between atoms: N_19  and  C_22
REMARK    4  A    between atoms: C_22  and  C_25
REMARK                            x       y       z     vdW  Elec       q    Type
REMARK                         _______ _______ _______ _____ _____    ______ ____
ROOT
ATOM      1  O   UNL     1      37.043 -23.016 -15.210  0.00  0.00    -0.336 OA
ATOM      2  O   UNL     1      33.261 -23.546 -17.946  0.00  0.00    -0.268 OA
ATOM      3  O   UNL     1      33.892 -19.784 -21.317  0.00  0.00    -0.283 OA
ATOM      4  N   UNL     1      34.984 -23.134 -16.455  0.00  0.00    -0.253 N 
ATOM      5  N   UNL     1      36.135 -21.398 -18.352  0.00  0.00    -0.275 N 
ATOM      6  C   UNL     1      36.158 -22.328 -16.102  0.00  0.00    +0.215 C 
ATOM      7  C   UNL     1      34.341 -23.925 -15.391  0.00  0.00    +0.080 C 
ATOM      8  C   UNL     1      35.375 -24.537 -14.444  0.00  0.00    +0.052 C 
ATOM      9  C   UNL     1      36.980 -22.018 -17.342  0.00  0.00    +0.147 C 
ATOM     10  C   UNL     1      36.406 -23.503 -14.037  0.00  0.00    +0.146 C 
ATOM     11  C   UNL     1      34.278 -22.920 -17.648  0.00  0.00    +0.267 C 
ATOM     12  C   UNL     1      34.827 -21.846 -18.559  0.00  0.00    +0.143 C 
ATOM     13  C   UNL     1      33.315 -23.074 -14.633  0.00  0.00    +0.022 C 
ATOM     14  C   UNL     1      36.650 -20.420 -19.192  0.00  0.00    +0.074 C 
ATOM     15  C   UNL     1      34.031 -21.345 -19.529  0.00  0.00    +0.191 C 
ATOM     16  C   UNL     1      35.978 -19.838 -20.192  0.00  0.00    +0.110 C 
ATOM     17  C   UNL     1      34.577 -20.275 -20.425  0.00  0.00    +0.236 C 
ENDROOT
BRANCH  16  20
ATOM     18  O   UNL     1      37.838 -18.939 -21.309  0.00  0.00    -0.270 OA
ATOM     19  N   UNL     1      35.830 -17.754 -21.323  0.00  0.00    -0.297 N 
ATOM     20  C   UNL     1      36.654 -18.817 -20.991  0.00  0.00    +0.251 C 
ATOM     21  H   UNL     1      34.897 -17.771 -21.008  0.00  0.00    +0.150 HD
BRANCH  19  22
ATOM     22  C   UNL     1      36.268 -16.621 -22.107  0.00  0.00    +0.119 C 
BRANCH  22  25
ATOM     23  F   UNL     1      35.193 -14.033 -22.501  0.00  0.00    -0.204 F 
ATOM     24  F   UNL     1      32.660 -15.405 -26.255  0.00  0.00    -0.204 F 
ATOM     25  C   UNL     1      35.306 -16.295 -23.212  0.00  0.00    +0.025 C 
ATOM     26  C   UNL     1      34.813 -14.997 -23.350  0.00  0.00    +0.140 C 
ATOM     27  C   UNL     1      34.905 -17.292 -24.101  0.00  0.00    +0.002 C 
ATOM     28  C   UNL     1      33.919 -14.697 -24.378  0.00  0.00    +0.059 C 
ATOM     29  C   UNL     1      34.011 -16.991 -25.129  0.00  0.00    +0.030 C 
ATOM     30  C   UNL     1      33.518 -15.694 -25.268  0.00  0.00    +0.142 C 
ENDBRANCH  22  25
ENDBRANCH  19  22
ENDBRANCH  16  20
BRANCH  15  31
ATOM     31  O   UNL     1      32.731 -21.743 -19.745  0.00  0.00    -0.502 OA
ATOM     32  H   UNL     1      32.457 -22.605 -19.499  0.00  0.00    +0.292 HD
ENDBRANCH  15  31
TORSDOF 4
ENDMDL
MODEL 4
REMARK VINA RESULT:     -11.0      3.732      5.864
REMARK  Name = 54726191
REMARK  4 active torsions:
REMARK  status: ('A' for Active; 'I' for Inactive)
REMARK    1  A    between atoms: C_15  and  O_31
REMARK    2  A    between atoms: C_16  and  C_20
REMARK    3  A    between atoms: N_19  and  C_22
REMARK    4  A    between atoms: C_22  and  C_25
REMARK                            x       y       z     vdW  Elec       q    Type
REMARK                         _______ _______ _______ _____ _____    ______ ____
ROOT
ATOM      1  O   UNL     1      38.447 -25.255 -14.294  0.00  0.00    -0.336 OA
ATOM      2  O   UNL     1      34.652 -24.688 -11.584  0.00  0.00    -0.268 OA
ATOM      3  O   UNL     1      31.513 -22.187 -14.715  0.00  0.00    -0.283 OA
ATOM      4  N   UNL     1      36.605 -24.749 -12.826  0.00  0.00    -0.253 N 
ATOM      5  N   UNL     1      35.114 -24.006 -15.099  0.00  0.00    -0.275 N 
ATOM      6  C   UNL     1      37.287 -24.440 -14.088  0.00  0.00    +0.215 C 
ATOM      7  C   UNL     1      37.434 -25.004 -11.635  0.00  0.00    +0.080 C 
ATOM      8  C   UNL     1      38.691 -25.800 -11.986  0.00  0.00    +0.052 C 
ATOM      9  C   UNL     1      36.371 -24.722 -15.268  0.00  0.00    +0.147 C 
ATOM     10  C   UNL     1      39.368 -25.220 -13.212  0.00  0.00    +0.146 C 
ATOM     11  C   UNL     1      35.239 -24.487 -12.647  0.00  0.00    +0.267 C 
ATOM     12  C   UNL     1      34.512 -23.914 -13.841  0.00  0.00    +0.143 C 
ATOM     13  C   UNL     1      37.778 -23.687 -10.928  0.00  0.00    +0.022 C 
ATOM     14  C   UNL     1      34.448 -23.493 -16.203  0.00  0.00    +0.074 C 
ATOM     15  C   UNL     1      33.314 -23.318 -13.651  0.00  0.00    +0.191 C 
ATOM     16  C   UNL     1      33.259 -22.879 -16.162  0.00  0.00    +0.110 C 
ATOM     17  C   UNL     1      32.600 -22.744 -14.837  0.00  0.00    +0.236 C 
ENDROOT
BRANCH  16  20
ATOM     18  O   UNL     1      31.464 -22.408 -17.602  0.00  0.00    -0.270 OA
ATOM     19  N   UNL     1      33.634 -21.912 -18.300  0.00  0.00    -0.297 N 
ATOM     20  C   UNL     1      32.681 -22.385 -17.411  0.00  0.00    +0.251 C 
ATOM     21  H   UNL     1      34.580 -21.947 -18.030  0.00  0.00    +0.150 HD
BRANCH  19  22
ATOM     22  C   UNL     1      33.311 -21.373 -19.601  0.00  0.00    +0.119 C 
BRANCH  22  25
ATOM     23  F   UNL     1      32.968 -19.489 -21.684  0.00  0.00    -0.204 F 
ATOM     24  F   UNL     1      37.570 -18.391 -21.761  0.00  0.00    -0.204 F 
ATOM     25  C   UNL     1      34.445 -20.578 -20.178  0.00  0.00    +0.025 C 
ATOM     26  C   UNL     1      34.207 -19.664 -21.205  0.00  0.00    +0.140 C 
ATOM     27  C   UNL     1      35.738 -20.752 -19.685  0.00  0.00    +0.002 C 
ATOM     28  C   UNL     1      35.263 -18.925 -21.740  0.00  0.00    +0.059 C 
ATOM     29  C   UNL     1      36.794 -20.013 -20.221  0.00  0.00    +0.030 C 
ATOM     30  C   UNL     1      36.557 -19.100 -21.248  0.00  0.00    +0.142 C 
ENDBRANCH  22  25
ENDBRANCH  19  22
ENDBRANCH  16  20
BRANCH  15  31
ATOM     31  O   UNL     1      32.703 -23.184 -12.424  0.00  0.00    -0.502 OA
ATOM     32  H   UNL     1      32.514 -22.332 -12.085  0.00  0.00    +0.292 HD
ENDBRANCH  15  31
TORSDOF 4
ENDMDL
MODEL 5
REMARK VINA RESULT:     -11.0      3.972      9.601
REMARK  Name = 54726191
REMARK  4 active torsions:
REMARK  status: ('A' for Active; 'I' for Inactive)
REMARK    1  A    between atoms: C_15  and  O_31
REMARK    2  A    between atoms: C_16  and  C_20
REMARK    3  A    between atoms: N_19  and  C_22
REMARK    4  A    between atoms: C_22  and  C_25
REMARK                            x       y       z     vdW  Elec       q    Type
REMARK                         _______ _______ _______ _____ _____    ______ ____
ROOT
ATOM      1  O   UNL     1      34.517 -12.137 -23.324  0.00  0.00    -0.336 OA
ATOM      2  O   UNL     1      32.955 -15.802 -25.812  0.00  0.00    -0.268 OA
ATOM      3  O   UNL     1      35.504 -19.658 -23.680  0.00  0.00    -0.283 OA
ATOM      4  N   UNL     1      33.905 -13.972 -24.760  0.00  0.00    -0.253 N 
ATOM      5  N   UNL     1      35.021 -15.720 -22.853  0.00  0.00    -0.275 N 
ATOM      6  C   UNL     1      34.843 -13.465 -23.753  0.00  0.00    +0.215 C 
ATOM      7  C   UNL     1      33.452 -13.047 -25.814  0.00  0.00    +0.080 C 
ATOM      8  C   UNL     1      33.224 -11.638 -25.264  0.00  0.00    +0.052 C 
ATOM      9  C   UNL     1      34.794 -14.326 -22.502  0.00  0.00    +0.147 C 
ATOM     10  C   UNL     1      34.387 -11.208 -24.392  0.00  0.00    +0.146 C 
ATOM     11  C   UNL     1      33.697 -15.346 -24.942  0.00  0.00    +0.267 C 
ATOM     12  C   UNL     1      34.460 -16.262 -24.013  0.00  0.00    +0.143 C 
ATOM     13  C   UNL     1      34.440 -13.042 -26.986  0.00  0.00    +0.022 C 
ATOM     14  C   UNL     1      35.713 -16.556 -21.988  0.00  0.00    +0.074 C 
ATOM     15  C   UNL     1      34.589 -17.566 -24.342  0.00  0.00    +0.191 C 
ATOM     16  C   UNL     1      35.917 -17.864 -22.186  0.00  0.00    +0.110 C 
ATOM     17  C   UNL     1      35.353 -18.468 -23.421  0.00  0.00    +0.236 C 
ENDROOT
BRANCH  16  20
ATOM     18  O   UNL     1      37.807 -18.270 -20.851  0.00  0.00    -0.270 OA
ATOM     19  N   UNL     1      35.978 -19.709 -20.691  0.00  0.00    -0.297 N 
ATOM     20  C   UNL     1      36.672 -18.616 -21.185  0.00  0.00    +0.251 C 
ATOM     21  H   UNL     1      35.074 -19.883 -21.038  0.00  0.00    +0.150 HD
BRANCH  19  22
ATOM     22  C   UNL     1      36.514 -20.608 -19.693  0.00  0.00    +0.119 C 
BRANCH  22  25
ATOM     23  F   UNL     1      36.996 -22.040 -17.301  0.00  0.00    -0.204 F 
ATOM     24  F   UNL     1      32.445 -23.246 -16.833  0.00  0.00    -0.204 F 
ATOM     25  C   UNL     1      35.430 -21.312 -18.930  0.00  0.00    +0.025 C 
ATOM     26  C   UNL     1      35.737 -22.001 -17.756  0.00  0.00    +0.140 C 
ATOM     27  C   UNL     1      34.116 -21.275 -19.395  0.00  0.00    +0.002 C 
ATOM     28  C   UNL     1      34.727 -22.654 -17.048  0.00  0.00    +0.059 C 
ATOM     29  C   UNL     1      33.107 -21.929 -18.687  0.00  0.00    +0.030 C 
ATOM     30  C   UNL     1      33.412 -22.619 -17.513  0.00  0.00    +0.142 C 
ENDBRANCH  22  25
ENDBRANCH  19  22
ENDBRANCH  16  20
BRANCH  15  31
ATOM     31  O   UNL     1      34.073 -18.129 -25.489  0.00  0.00    -0.502 OA
ATOM     32  H   UNL     1      33.266 -18.603 -25.456  0.00  0.00    +0.292 HD
ENDBRANCH  15  31
TORSDOF 4
ENDMDL
MODEL 6
REMARK VINA RESULT:     -10.2      4.998      8.549
REMARK  Name = 54726191
REMARK  4 active torsions:
REMARK  status: ('A' for Active; 'I' for Inactive)
REMARK    1  A    between atoms: C_15  and  O_31
REMARK    2  A    between atoms: C_16  and  C_20
REMARK    3  A    between atoms: N_19  and  C_22
REMARK    4  A    between atoms: C_22  and  C_25
REMARK                            x       y       z     vdW  Elec       q    Type
REMARK                         _______ _______ _______ _____ _____    ______ ____
ROOT
ATOM      1  O   UNL     1      35.653 -17.633 -20.734  0.00  0.00    -0.336 OA
ATOM      2  O   UNL     1      35.605 -16.280 -25.232  0.00  0.00    -0.268 OA
ATOM      3  O   UNL     1      32.852 -12.005 -24.994  0.00  0.00    -0.283 OA
ATOM      4  N   UNL     1      35.420 -17.079 -23.067  0.00  0.00    -0.253 N 
ATOM      5  N   UNL     1      34.452 -14.553 -22.279  0.00  0.00    -0.275 N 
ATOM      6  C   UNL     1      34.922 -16.872 -21.703  0.00  0.00    +0.215 C 
ATOM      7  C   UNL     1      35.793 -18.447 -23.469  0.00  0.00    +0.080 C 
ATOM      8  C   UNL     1      36.482 -19.198 -22.330  0.00  0.00    +0.052 C 
ATOM      9  C   UNL     1      35.085 -15.418 -21.294  0.00  0.00    +0.147 C 
ATOM     10  C   UNL     1      35.720 -19.022 -21.032  0.00  0.00    +0.146 C 
ATOM     11  C   UNL     1      35.242 -16.113 -24.068  0.00  0.00    +0.267 C 
ATOM     12  C   UNL     1      34.550 -14.839 -23.643  0.00  0.00    +0.143 C 
ATOM     13  C   UNL     1      34.566 -19.208 -23.987  0.00  0.00    +0.022 C 
ATOM     14  C   UNL     1      33.828 -13.379 -21.881  0.00  0.00    +0.074 C 
ATOM     15  C   UNL     1      34.034 -14.029 -24.595  0.00  0.00    +0.191 C 
ATOM     16  C   UNL     1      33.275 -12.486 -22.711  0.00  0.00    +0.110 C 
ATOM     17  C   UNL     1      33.342 -12.770 -24.169  0.00  0.00    +0.236 C 
ENDROOT
BRANCH  16  20
ATOM     18  O   UNL     1      31.889 -11.374 -21.175  0.00  0.00    -0.270 OA
ATOM     19  N   UNL     1      33.000 -10.128 -22.804  0.00  0.00    -0.297 N 
ATOM     20  C   UNL     1      32.647 -11.294 -22.143  0.00  0.00    +0.251 C 
ATOM     21  H   UNL     1      33.617 -10.194 -23.568  0.00  0.00    +0.150 HD
BRANCH  19  22
ATOM     22  C   UNL     1      32.509  -8.821 -22.430  0.00  0.00    +0.119 C 
BRANCH  22  25
ATOM     23  F   UNL     1      31.201  -6.527 -23.445  0.00  0.00    -0.204 F 
ATOM     24  F   UNL     1      35.224  -4.696 -25.134  0.00  0.00    -0.204 F 
ATOM     25  C   UNL     1      33.231  -7.721 -23.151  0.00  0.00    +0.025 C 
ATOM     26  C   UNL     1      32.525  -6.615 -23.627  0.00  0.00    +0.140 C 
ATOM     27  C   UNL     1      34.610  -7.804 -23.344  0.00  0.00    +0.002 C 
ATOM     28  C   UNL     1      33.199  -5.594 -24.297  0.00  0.00    +0.059 C 
ATOM     29  C   UNL     1      35.283  -6.782 -24.014  0.00  0.00    +0.030 C 
ATOM     30  C   UNL     1      34.578  -5.677 -24.491  0.00  0.00    +0.142 C 
ENDBRANCH  22  25
ENDBRANCH  19  22
ENDBRANCH  16  20
BRANCH  15  31
ATOM     31  O   UNL     1      34.088 -14.290 -25.946  0.00  0.00    -0.502 OA
ATOM     32  H   UNL     1      33.822 -15.127 -26.272  0.00  0.00    +0.292 HD
ENDBRANCH  15  31
TORSDOF 4
ENDMDL
MODEL 7
REMARK VINA RESULT:      -9.3      4.023      9.204
REMARK  Name = 54726191
REMARK  4 active torsions:
REMARK  status: ('A' for Active; 'I' for Inactive)
REMARK    1  A    between atoms: C_15  and  O_31
REMARK    2  A    between atoms: C_16  and  C_20
REMARK    3  A    between atoms: N_19  and  C_22
REMARK    4  A    between atoms: C_22  and  C_25
REMARK                            x       y       z     vdW  Elec       q    Type
REMARK                         _______ _______ _______ _____ _____    ______ ____
ROOT
ATOM      1  O   UNL     1      33.100 -12.638 -20.279  0.00  0.00    -0.336 OA
ATOM      2  O   UNL     1      33.424 -14.473 -24.591  0.00  0.00    -0.268 OA
ATOM      3  O   UNL     1      36.623 -18.357 -23.821  0.00  0.00    -0.283 OA
ATOM      4  N   UNL     1      33.458 -13.421 -22.529  0.00  0.00    -0.253 N 
ATOM      5  N   UNL     1      34.676 -15.716 -21.442  0.00  0.00    -0.275 N 
ATOM      6  C   UNL     1      33.937 -13.416 -21.143  0.00  0.00    +0.215 C 
ATOM      7  C   UNL     1      32.948 -12.157 -23.091  0.00  0.00    +0.080 C 
ATOM      8  C   UNL     1      32.148 -11.365 -22.056  0.00  0.00    +0.052 C 
ATOM      9  C   UNL     1      33.923 -14.824 -20.572  0.00  0.00    +0.147 C 
ATOM     10  C   UNL     1      32.889 -11.308 -20.735  0.00  0.00    +0.146 C 
ATOM     11  C   UNL     1      33.770 -14.466 -23.410  0.00  0.00    +0.267 C 
ATOM     12  C   UNL     1      34.586 -15.599 -22.831  0.00  0.00    +0.143 C 
ATOM     13  C   UNL     1      34.098 -11.326 -23.673  0.00  0.00    +0.022 C 
ATOM     14  C   UNL     1      35.414 -16.761 -20.902  0.00  0.00    +0.074 C 
ATOM     15  C   UNL     1      35.214 -16.447 -23.675  0.00  0.00    +0.191 C 
ATOM     16  C   UNL     1      36.084 -17.673 -21.616  0.00  0.00    +0.110 C 
ATOM     17  C   UNL     1      36.029 -17.564 -23.097  0.00  0.00    +0.236 C 
ENDROOT
BRANCH  16  20
ATOM     18  O   UNL     1      38.050 -18.667 -20.800  0.00  0.00    -0.270 OA
ATOM     19  N   UNL     1      36.004 -19.710 -20.394  0.00  0.00    -0.297 N 
ATOM     20  C   UNL     1      36.823 -18.716 -20.905  0.00  0.00    +0.251 C 
ATOM     21  H   UNL     1      35.034 -19.637 -20.545  0.00  0.00    +0.150 HD
BRANCH  19  22
ATOM     22  C   UNL     1      36.499 -20.848 -19.653  0.00  0.00    +0.119 C 
BRANCH  22  25
ATOM     23  F   UNL     1      37.024 -22.181 -17.214  0.00  0.00    -0.204 F 
ATOM     24  F   UNL     1      32.464 -23.259 -16.553  0.00  0.00    -0.204 F 
ATOM     25  C   UNL     1      35.424 -21.491 -18.826  0.00  0.00    +0.025 C 
ATOM     26  C   UNL     1      35.752 -22.133 -17.631  0.00  0.00    +0.140 C 
ATOM     27  C   UNL     1      34.097 -21.445 -19.252  0.00  0.00    +0.002 C 
ATOM     28  C   UNL     1      34.752 -22.731 -16.864  0.00  0.00    +0.059 C 
ATOM     29  C   UNL     1      33.097 -22.043 -18.484  0.00  0.00    +0.030 C 
ATOM     30  C   UNL     1      33.424 -22.686 -17.290  0.00  0.00    +0.142 C 
ENDBRANCH  22  25
ENDBRANCH  19  22
ENDBRANCH  16  20
BRANCH  15  31
ATOM     31  O   UNL     1      35.170 -16.346 -25.048  0.00  0.00    -0.502 OA
ATOM     32  H   UNL     1      34.557 -15.768 -25.456  0.00  0.00    +0.292 HD
ENDBRANCH  15  31
TORSDOF 4
ENDMDL
MODEL 8
REMARK VINA RESULT:      -9.2      5.855     11.596
REMARK  Name = 54726191
REMARK  4 active torsions:
REMARK  status: ('A' for Active; 'I' for Inactive)
REMARK    1  A    between atoms: C_15  and  O_31
REMARK    2  A    between atoms: C_16  and  C_20
REMARK    3  A    between atoms: N_19  and  C_22
REMARK    4  A    between atoms: C_22  and  C_25
REMARK                            x       y       z     vdW  Elec       q    Type
REMARK                         _______ _______ _______ _____ _____    ______ ____
ROOT
ATOM      1  O   UNL     1      31.675  -7.321 -20.068  0.00  0.00    -0.336 OA
ATOM      2  O   UNL     1      32.587  -8.618 -24.489  0.00  0.00    -0.268 OA
ATOM      3  O   UNL     1      34.327 -13.358 -23.836  0.00  0.00    -0.283 OA
ATOM      4  N   UNL     1      32.373  -7.891 -22.302  0.00  0.00    -0.253 N 
ATOM      5  N   UNL     1      32.614 -10.565 -21.449  0.00  0.00    -0.275 N 
ATOM      6  C   UNL     1      32.466  -8.204 -20.872  0.00  0.00    +0.215 C 
ATOM      7  C   UNL     1      32.380  -6.472 -22.702  0.00  0.00    +0.080 C 
ATOM      8  C   UNL     1      31.584  -5.609 -21.724  0.00  0.00    +0.052 C 
ATOM      9  C   UNL     1      31.931  -9.600 -20.599  0.00  0.00    +0.147 C 
ATOM     10  C   UNL     1      31.950  -5.945 -20.292  0.00  0.00    +0.146 C 
ATOM     11  C   UNL     1      32.609  -8.864 -23.283  0.00  0.00    +0.267 C 
ATOM     12  C   UNL     1      32.917 -10.254 -22.778  0.00  0.00    +0.143 C 
ATOM     13  C   UNL     1      33.820  -5.967 -22.861  0.00  0.00    +0.022 C 
ATOM     14  C   UNL     1      32.884 -11.843 -20.980  0.00  0.00    +0.074 C 
ATOM     15  C   UNL     1      33.490 -11.142 -23.620  0.00  0.00    +0.191 C 
ATOM     16  C   UNL     1      33.446 -12.821 -21.701  0.00  0.00    +0.110 C 
ATOM     17  C   UNL     1      33.801 -12.517 -23.112  0.00  0.00    +0.236 C 
ENDROOT
BRANCH  16  20
ATOM     18  O   UNL     1      32.908 -14.546 -20.201  0.00  0.00    -0.270 OA
ATOM     19  N   UNL     1      34.800 -14.767 -21.547  0.00  0.00    -0.297 N 
ATOM     20  C   UNL     1      33.673 -14.119 -21.067  0.00  0.00    +0.251 C 
ATOM     21  H   UNL     1      35.333 -14.321 -22.244  0.00  0.00    +0.150 HD
BRANCH  19  22
ATOM     22  C   UNL     1      35.235 -16.063 -21.076  0.00  0.00    +0.119 C 
BRANCH  22  25
ATOM     23  F   UNL     1      35.417 -18.836 -20.544  0.00  0.00    -0.204 F 
ATOM     24  F   UNL     1      34.937 -19.978 -25.110  0.00  0.00    -0.204 F 
ATOM     25  C   UNL     1      35.156 -17.107 -22.150  0.00  0.00    +0.025 C 
ATOM     26  C   UNL     1      35.253 -18.459 -21.819  0.00  0.00    +0.140 C 
ATOM     27  C   UNL     1      34.984 -16.725 -23.481  0.00  0.00    +0.002 C 
ATOM     28  C   UNL     1      35.179 -19.429 -22.820  0.00  0.00    +0.059 C 
ATOM     29  C   UNL     1      34.910 -17.695 -24.481  0.00  0.00    +0.030 C 
ATOM     30  C   UNL     1      35.008 -19.047 -24.151  0.00  0.00    +0.142 C 
ENDBRANCH  22  25
ENDBRANCH  19  22
ENDBRANCH  16  20
BRANCH  15  31
ATOM     31  O   UNL     1      33.826 -10.864 -24.926  0.00  0.00    -0.502 OA
ATOM     32  H   UNL     1      33.391 -11.308 -25.627  0.00  0.00    +0.292 HD
ENDBRANCH  15  31
TORSDOF 4
ENDMDL
MODEL 9
REMARK VINA RESULT:      -9.2      4.274      9.480
REMARK  Name = 54726191
REMARK  4 active torsions:
REMARK  status: ('A' for Active; 'I' for Inactive)
REMARK    1  A    between atoms: C_15  and  O_31
REMARK    2  A    between atoms: C_16  and  C_20
REMARK    3  A    between atoms: N_19  and  C_22
REMARK    4  A    between atoms: C_22  and  C_25
REMARK                            x       y       z     vdW  Elec       q    Type
REMARK                         _______ _______ _______ _____ _____    ______ ____
ROOT
ATOM      1  O   UNL     1      32.607 -11.866 -19.831  0.00  0.00    -0.336 OA
ATOM      2  O   UNL     1      32.495 -12.731 -24.447  0.00  0.00    -0.268 OA
ATOM      3  O   UNL     1      35.731 -16.641 -24.842  0.00  0.00    -0.283 OA
ATOM      4  N   UNL     1      32.738 -12.144 -22.220  0.00  0.00    -0.253 N 
ATOM      5  N   UNL     1      34.043 -14.600 -21.774  0.00  0.00    -0.275 N 
ATOM      6  C   UNL     1      33.351 -12.428 -20.918  0.00  0.00    +0.215 C 
ATOM      7  C   UNL     1      32.183 -10.797 -22.446  0.00  0.00    +0.080 C 
ATOM      8  C   UNL     1      31.494 -10.257 -21.193  0.00  0.00    +0.052 C 
ATOM      9  C   UNL     1      33.385 -13.926 -20.664  0.00  0.00    +0.147 C 
ATOM     10  C   UNL     1      32.361 -10.473 -19.968  0.00  0.00    +0.146 C 
ATOM     11  C   UNL     1      32.955 -12.972 -23.331  0.00  0.00    +0.267 C 
ATOM     12  C   UNL     1      33.817 -14.190 -23.090  0.00  0.00    +0.143 C 
ATOM     13  C   UNL     1      33.275  -9.843 -22.946  0.00  0.00    +0.022 C 
ATOM     14  C   UNL     1      34.824 -15.725 -21.545  0.00  0.00    +0.074 C 
ATOM     15  C   UNL     1      34.354 -14.828 -24.154  0.00  0.00    +0.191 C 
ATOM     16  C   UNL     1      35.416 -16.453 -22.499  0.00  0.00    +0.110 C 
ATOM     17  C   UNL     1      35.215 -16.031 -23.910  0.00  0.00    +0.236 C 
ENDROOT
BRANCH  16  20
ATOM     18  O   UNL     1      37.413 -17.684 -22.382  0.00  0.00    -0.270 OA
ATOM     19  N   UNL     1      35.483 -18.565 -21.412  0.00  0.00    -0.297 N 
ATOM     20  C   UNL     1      36.215 -17.612 -22.104  0.00  0.00    +0.251 C 
ATOM     21  H   UNL     1      34.528 -18.392 -21.252  0.00  0.00    +0.150 HD
BRANCH  19  22
ATOM     22  C   UNL     1      36.050 -19.799 -20.917  0.00  0.00    +0.119 C 
BRANCH  22  25
ATOM     23  F   UNL     1      36.875 -21.722 -19.013  0.00  0.00    -0.204 F 
ATOM     24  F   UNL     1      32.434 -22.613 -17.645  0.00  0.00    -0.204 F 
ATOM     25  C   UNL     1      35.087 -20.550 -20.045  0.00  0.00    +0.025 C 
ATOM     26  C   UNL     1      35.561 -21.486 -19.125  0.00  0.00    +0.140 C 
ATOM     27  C   UNL     1      33.717 -20.310 -20.154  0.00  0.00    +0.002 C 
ATOM     28  C   UNL     1      34.664 -22.183 -18.315  0.00  0.00    +0.059 C 
ATOM     29  C   UNL     1      32.821 -21.007 -19.343  0.00  0.00    +0.030 C 
ATOM     30  C   UNL     1      33.294 -21.944 -18.424  0.00  0.00    +0.142 C 
ENDBRANCH  22  25
ENDBRANCH  19  22
ENDBRANCH  16  20
BRANCH  15  31
ATOM     31  O   UNL     1      34.176 -14.437 -25.462  0.00  0.00    -0.502 OA
ATOM     32  H   UNL     1      33.398 -13.980 -25.712  0.00  0.00    +0.292 HD
ENDBRANCH  15  31
TORSDOF 4
ENDMDL
