MODEL 1
REMARK VINA RESULT:     -11.6      0.000      0.000
REMARK  Name = 24963046
REMARK  6 active torsions:
REMARK  status: ('A' for Active; 'I' for Inactive)
REMARK    1  A    between atoms: N_1  and  C_27
REMARK    2  A    between atoms: C_4  and  C_16
REMARK    3  A    between atoms: C_13  and  C_22
REMARK    4  A    between atoms: N_21  and  C_24
REMARK    5  A    between atoms: C_27  and  C_28
REMARK    6  A    between atoms: C_28  and  N_30
REMARK                            x       y       z     vdW  Elec       q    Type
REMARK                         _______ _______ _______ _____ _____    ______ ____
ROOT
ATOM      1  N   UNL     1      33.927 -23.540 -16.665  0.00  0.00    -0.270 N 
ATOM      2  N   UNL     1      35.116 -22.157 -18.106  0.00  0.00    -0.338 NA
ATOM      3  N   UNL     1      32.708 -22.236 -18.146  0.00  0.00    -0.170 NA
ATOM      4  C   UNL     1      35.125 -19.335 -21.173  0.00  0.00    -0.000 C 
ATOM      5  C   UNL     1      33.917 -19.833 -20.693  0.00  0.00    +0.004 C 
ATOM      6  C   UNL     1      33.910 -20.786 -19.659  0.00  0.00    +0.050 C 
ATOM      7  C   UNL     1      33.915 -22.603 -17.685  0.00  0.00    +0.145 C 
ATOM      8  C   UNL     1      36.320 -19.784 -20.621  0.00  0.00    +0.003 C 
ATOM      9  C   UNL     1      35.111 -21.247 -19.095  0.00  0.00    +0.146 C 
ATOM     10  C   UNL     1      36.304 -20.731 -19.593  0.00  0.00    +0.033 C 
ATOM     11  C   UNL     1      32.739 -21.323 -19.136  0.00  0.00    +0.114 C 
ATOM     12  H   UNL     1      33.064 -23.882 -16.338  0.00  0.00    +0.159 HD
ENDROOT
BRANCH   4  16
ATOM     13  C   UNL     1      35.034 -16.042 -22.924  0.00  0.00    +0.053 C 
ATOM     14  C   UNL     1      35.025 -17.004 -21.914  0.00  0.00    +0.004 C 
ATOM     15  C   UNL     1      35.156 -16.432 -24.257  0.00  0.00    +0.004 C 
ATOM     16  C   UNL     1      35.136 -18.356 -22.237  0.00  0.00    -0.004 C 
ATOM     17  C   UNL     1      35.258 -18.746 -23.572  0.00  0.00    -0.022 C 
ATOM     18  C   UNL     1      35.268 -17.784 -24.582  0.00  0.00    -0.004 C 
ATOM     19  C   UNL     1      35.380 -20.186 -23.957  0.00  0.00    +0.031 C 
BRANCH  13  22
ATOM     20  O   UNL     1      34.957 -14.257 -21.402  0.00  0.00    -0.270 OA
ATOM     21  N   UNL     1      34.742 -13.736 -23.649  0.00  0.00    -0.302 N 
ATOM     22  C   UNL     1      34.918 -14.632 -22.587  0.00  0.00    +0.246 C 
ATOM     23  H   UNL     1      34.720 -14.096 -24.566  0.00  0.00    +0.150 HD
BRANCH  21  24
ATOM     24  C   UNL     1      34.592 -12.318 -23.469  0.00  0.00    +0.072 C 
ATOM     25  C   UNL     1      34.049 -11.449 -24.564  0.00  0.00    +0.021 C 
ATOM     26  C   UNL     1      33.236 -11.693 -23.326  0.00  0.00    +0.021 C 
ENDBRANCH  21  24
ENDBRANCH  13  22
ENDBRANCH   4  16
BRANCH   1  27
ATOM     27  C   UNL     1      35.134 -24.044 -16.054  0.00  0.00    +0.075 C 
BRANCH  27  28
ATOM     28  C   UNL     1      34.930 -24.180 -14.551  0.00  0.00    -0.055 C 
BRANCH  28  30
ATOM     29  O   UNL     1      38.435 -25.954 -13.075  0.00  0.00    -0.358 OA
ATOM     30  N   UNL     1      35.862 -25.159 -13.997  0.00  0.00    +0.391 N 
ATOM     31  C   UNL     1      36.389 -24.704 -12.702  0.00  0.00    -0.045 C 
ATOM     32  C   UNL     1      36.968 -25.413 -14.930  0.00  0.00    -0.045 C 
ATOM     33  C   UNL     1      37.368 -25.735 -12.150  0.00  0.00    +0.119 C 
ATOM     34  C   UNL     1      37.933 -26.429 -14.325  0.00  0.00    +0.119 C 
ATOM     35  H   UNL     1      35.351 -26.030 -13.852  0.00  0.00    -0.079 HD
ENDBRANCH  28  30
ENDBRANCH  27  28
ENDBRANCH   1  27
TORSDOF 6
ENDMDL
MODEL 2
REMARK VINA RESULT:     -11.0      3.340     12.090
REMARK  Name = 24963046
REMARK  6 active torsions:
REMARK  status: ('A' for Active; 'I' for Inactive)
REMARK    1  A    between atoms: N_1  and  C_27
REMARK    2  A    between atoms: C_4  and  C_16
REMARK    3  A    between atoms: C_13  and  C_22
REMARK    4  A    between atoms: N_21  and  C_24
REMARK    5  A    between atoms: C_27  and  C_28
REMARK    6  A    between atoms: C_28  and  N_30
REMARK                            x       y       z     vdW  Elec       q    Type
REMARK                         _______ _______ _______ _____ _____    ______ ____
ROOT
ATOM      1  N   UNL     1      33.764 -12.509 -25.308  0.00  0.00    -0.270 N 
ATOM      2  N   UNL     1      34.287 -13.745 -23.411  0.00  0.00    -0.338 NA
ATOM      3  N   UNL     1      34.172 -14.776 -25.587  0.00  0.00    -0.170 NA
ATOM      4  C   UNL     1      35.266 -17.406 -21.674  0.00  0.00    -0.000 C 
ATOM      5  C   UNL     1      35.050 -17.326 -23.047  0.00  0.00    +0.004 C 
ATOM      6  C   UNL     1      34.719 -16.094 -23.636  0.00  0.00    +0.050 C 
ATOM      7  C   UNL     1      34.088 -13.733 -24.745  0.00  0.00    +0.145 C 
ATOM      8  C   UNL     1      35.155 -16.260 -20.895  0.00  0.00    +0.003 C 
ATOM      9  C   UNL     1      34.603 -14.929 -22.858  0.00  0.00    +0.146 C 
ATOM     10  C   UNL     1      34.826 -15.038 -21.488  0.00  0.00    +0.033 C 
ATOM     11  C   UNL     1      34.490 -15.946 -25.000  0.00  0.00    +0.114 C 
ATOM     12  H   UNL     1      33.614 -12.471 -26.281  0.00  0.00    +0.159 HD
ENDROOT
BRANCH   4  16
ATOM     13  C   UNL     1      34.889 -20.691 -19.947  0.00  0.00    +0.053 C 
ATOM     14  C   UNL     1      34.586 -19.466 -20.540  0.00  0.00    +0.004 C 
ATOM     15  C   UNL     1      36.213 -21.123 -19.878  0.00  0.00    +0.004 C 
ATOM     16  C   UNL     1      35.606 -18.672 -21.064  0.00  0.00    -0.004 C 
ATOM     17  C   UNL     1      36.931 -19.105 -20.995  0.00  0.00    -0.022 C 
ATOM     18  C   UNL     1      37.234 -20.331 -20.403  0.00  0.00    -0.004 C 
ATOM     19  C   UNL     1      38.051 -18.282 -21.546  0.00  0.00    +0.031 C 
BRANCH  13  22
ATOM     20  O   UNL     1      32.716 -21.576 -19.959  0.00  0.00    -0.270 OA
ATOM     21  N   UNL     1      34.106 -22.219 -18.221  0.00  0.00    -0.302 N 
ATOM     22  C   UNL     1      33.825 -21.519 -19.400  0.00  0.00    +0.246 C 
ATOM     23  H   UNL     1      35.005 -22.132 -17.827  0.00  0.00    +0.150 HD
BRANCH  21  24
ATOM     24  C   UNL     1      33.148 -23.059 -17.554  0.00  0.00    +0.072 C 
ATOM     25  C   UNL     1      33.147 -23.203 -16.061  0.00  0.00    +0.021 C 
ATOM     26  C   UNL     1      32.031 -22.471 -16.746  0.00  0.00    +0.021 C 
ENDBRANCH  21  24
ENDBRANCH  13  22
ENDBRANCH   4  16
BRANCH   1  27
ATOM     27  C   UNL     1      33.634 -11.287 -24.551  0.00  0.00    +0.075 C 
BRANCH  27  28
ATOM     28  C   UNL     1      34.883 -10.435 -24.736  0.00  0.00    -0.055 C 
BRANCH  28  30
ATOM     29  O   UNL     1      34.141  -6.695 -22.981  0.00  0.00    -0.358 OA
ATOM     30  N   UNL     1      34.883  -9.322 -23.789  0.00  0.00    +0.391 N 
ATOM     31  C   UNL     1      33.515  -9.011 -23.350  0.00  0.00    -0.045 C 
ATOM     32  C   UNL     1      35.504  -8.130 -24.383  0.00  0.00    -0.045 C 
ATOM     33  C   UNL     1      33.539  -7.839 -22.372  0.00  0.00    +0.119 C 
ATOM     34  C   UNL     1      35.482  -6.980 -23.381  0.00  0.00    +0.119 C 
ATOM     35  H   UNL     1      35.429  -9.604 -22.975  0.00  0.00    -0.079 HD
ENDBRANCH  28  30
ENDBRANCH  27  28
ENDBRANCH   1  27
TORSDOF 6
ENDMDL
MODEL 3
REMARK VINA RESULT:     -11.0      2.116     11.215
REMARK  Name = 24963046
REMARK  6 active torsions:
REMARK  status: ('A' for Active; 'I' for Inactive)
REMARK    1  A    between atoms: N_1  and  C_27
REMARK    2  A    between atoms: C_4  and  C_16
REMARK    3  A    between atoms: C_13  and  C_22
REMARK    4  A    between atoms: N_21  and  C_24
REMARK    5  A    between atoms: C_27  and  C_28
REMARK    6  A    between atoms: C_28  and  N_30
REMARK                            x       y       z     vdW  Elec       q    Type
REMARK                         _______ _______ _______ _____ _____    ______ ____
ROOT
ATOM      1  N   UNL     1      36.127 -18.031 -23.279  0.00  0.00    -0.270 N 
ATOM      2  N   UNL     1      34.948 -19.319 -21.745  0.00  0.00    -0.338 NA
ATOM      3  N   UNL     1      37.322 -18.967 -21.525  0.00  0.00    -0.170 NA
ATOM      4  C   UNL     1      34.924 -21.661 -18.297  0.00  0.00    -0.000 C 
ATOM      5  C   UNL     1      36.117 -21.103 -18.747  0.00  0.00    +0.004 C 
ATOM      6  C   UNL     1      36.129 -20.313 -19.910  0.00  0.00    +0.050 C 
ATOM      7  C   UNL     1      36.135 -18.807 -22.132  0.00  0.00    +0.145 C 
ATOM      8  C   UNL     1      33.749 -21.430 -19.004  0.00  0.00    +0.003 C 
ATOM      9  C   UNL     1      34.948 -20.073 -20.633  0.00  0.00    +0.146 C 
ATOM     10  C   UNL     1      33.769 -20.643 -20.159  0.00  0.00    +0.033 C 
ATOM     11  C   UNL     1      37.287 -19.727 -20.413  0.00  0.00    +0.114 C 
ATOM     12  H   UNL     1      36.980 -17.644 -23.583  0.00  0.00    +0.159 HD
ENDROOT
BRANCH   4  16
ATOM     13  C   UNL     1      36.120 -23.539 -15.304  0.00  0.00    +0.053 C 
ATOM     14  C   UNL     1      36.112 -22.756 -16.458  0.00  0.00    +0.004 C 
ATOM     15  C   UNL     1      34.924 -24.040 -14.793  0.00  0.00    +0.004 C 
ATOM     16  C   UNL     1      34.908 -22.475 -17.102  0.00  0.00    -0.004 C 
ATOM     17  C   UNL     1      33.710 -22.977 -16.590  0.00  0.00    -0.022 C 
ATOM     18  C   UNL     1      33.718 -23.759 -15.435  0.00  0.00    -0.004 C 
ATOM     19  C   UNL     1      32.399 -22.696 -17.253  0.00  0.00    +0.031 C 
BRANCH  13  22
ATOM     20  O   UNL     1      37.898 -22.999 -13.871  0.00  0.00    -0.270 OA
ATOM     21  N   UNL     1      37.967 -25.073 -14.899  0.00  0.00    -0.302 N 
ATOM     22  C   UNL     1      37.377 -23.832 -14.632  0.00  0.00    +0.246 C 
ATOM     23  H   UNL     1      37.503 -25.690 -15.512  0.00  0.00    +0.150 HD
BRANCH  21  24
ATOM     24  C   UNL     1      39.216 -25.493 -14.326  0.00  0.00    +0.072 C 
ATOM     25  C   UNL     1      40.088 -26.501 -15.016  0.00  0.00    +0.021 C 
ATOM     26  C   UNL     1      40.525 -25.068 -14.922  0.00  0.00    +0.021 C 
ENDBRANCH  21  24
ENDBRANCH  13  22
ENDBRANCH   4  16
BRANCH   1  27
ATOM     27  C   UNL     1      34.941 -17.757 -24.054  0.00  0.00    +0.075 C 
BRANCH  27  28
ATOM     28  C   UNL     1      35.026 -16.355 -24.644  0.00  0.00    -0.055 C 
BRANCH  28  30
ATOM     29  O   UNL     1      33.983 -12.878 -22.537  0.00  0.00    -0.358 OA
ATOM     30  N   UNL     1      34.294 -15.406 -23.808  0.00  0.00    +0.391 N 
ATOM     31  C   UNL     1      33.944 -14.200 -24.572  0.00  0.00    -0.045 C 
ATOM     32  C   UNL     1      35.080 -15.040 -22.621  0.00  0.00    -0.045 C 
ATOM     33  C   UNL     1      33.191 -13.220 -23.677  0.00  0.00    +0.119 C 
ATOM     34  C   UNL     1      34.299 -14.041 -21.772  0.00  0.00    +0.119 C 
ATOM     35  H   UNL     1      33.432 -15.859 -23.502  0.00  0.00    -0.079 HD
ENDBRANCH  28  30
ENDBRANCH  27  28
ENDBRANCH   1  27
TORSDOF 6
ENDMDL
MODEL 4
REMARK VINA RESULT:     -10.9      3.041     10.702
REMARK  Name = 24963046
REMARK  6 active torsions:
REMARK  status: ('A' for Active; 'I' for Inactive)
REMARK    1  A    between atoms: N_1  and  C_27
REMARK    2  A    between atoms: C_4  and  C_16
REMARK    3  A    between atoms: C_13  and  C_22
REMARK    4  A    between atoms: N_21  and  C_24
REMARK    5  A    between atoms: C_27  and  C_28
REMARK    6  A    between atoms: C_28  and  N_30
REMARK                            x       y       z     vdW  Elec       q    Type
REMARK                         _______ _______ _______ _____ _____    ______ ____
ROOT
ATOM      1  N   UNL     1      36.070 -17.826 -23.624  0.00  0.00    -0.270 N 
ATOM      2  N   UNL     1      34.672 -18.969 -22.161  0.00  0.00    -0.338 NA
ATOM      3  N   UNL     1      37.061 -18.941 -21.848  0.00  0.00    -0.170 NA
ATOM      4  C   UNL     1      34.204 -21.341 -18.766  0.00  0.00    -0.000 C 
ATOM      5  C   UNL     1      35.477 -20.941 -19.161  0.00  0.00    +0.004 C 
ATOM      6  C   UNL     1      35.639 -20.141 -20.306  0.00  0.00    +0.050 C 
ATOM      7  C   UNL     1      35.930 -18.614 -22.494  0.00  0.00    +0.145 C 
ATOM      8  C   UNL     1      33.098 -20.944 -19.510  0.00  0.00    +0.003 C 
ATOM      9  C   UNL     1      34.529 -19.734 -21.065  0.00  0.00    +0.146 C 
ATOM     10  C   UNL     1      33.267 -20.148 -20.646  0.00  0.00    +0.033 C 
ATOM     11  C   UNL     1      36.882 -19.707 -20.754  0.00  0.00    +0.114 C 
ATOM     12  H   UNL     1      36.978 -17.551 -23.889  0.00  0.00    +0.159 HD
ENDROOT
BRANCH   4  16
ATOM     13  C   UNL     1      32.562 -23.387 -16.113  0.00  0.00    +0.053 C 
ATOM     14  C   UNL     1      32.751 -22.592 -17.243  0.00  0.00    +0.004 C 
ATOM     15  C   UNL     1      33.655 -23.757 -15.330  0.00  0.00    +0.004 C 
ATOM     16  C   UNL     1      34.033 -22.165 -17.590  0.00  0.00    -0.004 C 
ATOM     17  C   UNL     1      35.126 -22.535 -16.806  0.00  0.00    -0.022 C 
ATOM     18  C   UNL     1      34.938 -23.331 -15.676  0.00  0.00    -0.004 C 
ATOM     19  C   UNL     1      36.516 -22.097 -17.146  0.00  0.00    +0.031 C 
BRANCH  13  22
ATOM     20  O   UNL     1      31.063 -24.865 -15.077  0.00  0.00    -0.270 OA
ATOM     21  N   UNL     1      30.151 -23.063 -16.212  0.00  0.00    -0.302 N 
ATOM     22  C   UNL     1      31.226 -23.833 -15.752  0.00  0.00    +0.246 C 
ATOM     23  H   UNL     1      30.347 -22.256 -16.742  0.00  0.00    +0.150 HD
BRANCH  21  24
ATOM     24  C   UNL     1      28.776 -23.390 -15.952  0.00  0.00    +0.072 C 
ATOM     25  C   UNL     1      27.836 -22.381 -15.361  0.00  0.00    +0.021 C 
ATOM     26  C   UNL     1      27.671 -22.817 -16.788  0.00  0.00    +0.021 C 
ENDBRANCH  21  24
ENDBRANCH  13  22
ENDBRANCH   4  16
BRANCH   1  27
ATOM     27  C   UNL     1      34.962 -17.382 -24.435  0.00  0.00    +0.075 C 
BRANCH  27  28
ATOM     28  C   UNL     1      35.088 -15.888 -24.703  0.00  0.00    -0.055 C 
BRANCH  28  30
ATOM     29  O   UNL     1      33.855 -12.883 -22.045  0.00  0.00    -0.358 OA
ATOM     30  N   UNL     1      34.297 -15.129 -23.737  0.00  0.00    +0.391 N 
ATOM     31  C   UNL     1      33.924 -13.817 -24.285  0.00  0.00    -0.045 C 
ATOM     32  C   UNL     1      35.034 -14.959 -22.477  0.00  0.00    -0.045 C 
ATOM     33  C   UNL     1      33.110 -13.039 -23.255  0.00  0.00    +0.119 C 
ATOM     34  C   UNL     1      34.192 -14.155 -21.490  0.00  0.00    +0.119 C 
ATOM     35  H   UNL     1      33.444 -15.657 -23.549  0.00  0.00    -0.079 HD
ENDBRANCH  28  30
ENDBRANCH  27  28
ENDBRANCH   1  27
TORSDOF 6
ENDMDL
MODEL 5
REMARK VINA RESULT:     -10.8      2.701      3.654
REMARK  Name = 24963046
REMARK  6 active torsions:
REMARK  status: ('A' for Active; 'I' for Inactive)
REMARK    1  A    between atoms: N_1  and  C_27
REMARK    2  A    between atoms: C_4  and  C_16
REMARK    3  A    between atoms: C_13  and  C_22
REMARK    4  A    between atoms: N_21  and  C_24
REMARK    5  A    between atoms: C_27  and  C_28
REMARK    6  A    between atoms: C_28  and  N_30
REMARK                            x       y       z     vdW  Elec       q    Type
REMARK                         _______ _______ _______ _____ _____    ______ ____
ROOT
ATOM      1  N   UNL     1      34.747 -23.352 -16.765  0.00  0.00    -0.270 N 
ATOM      2  N   UNL     1      33.913 -21.975 -18.441  0.00  0.00    -0.338 NA
ATOM      3  N   UNL     1      36.268 -22.045 -17.931  0.00  0.00    -0.170 NA
ATOM      4  C   UNL     1      34.595 -19.154 -21.434  0.00  0.00    -0.000 C 
ATOM      5  C   UNL     1      35.664 -19.649 -20.691  0.00  0.00    +0.004 C 
ATOM      6  C   UNL     1      35.437 -20.600 -19.681  0.00  0.00    +0.050 C 
ATOM      7  C   UNL     1      34.989 -22.415 -17.756  0.00  0.00    +0.145 C 
ATOM      8  C   UNL     1      33.308 -19.609 -21.169  0.00  0.00    +0.003 C 
ATOM      9  C   UNL     1      34.141 -21.066 -19.405  0.00  0.00    +0.146 C 
ATOM     10  C   UNL     1      33.092 -20.555 -20.163  0.00  0.00    +0.033 C 
ATOM     11  C   UNL     1      36.461 -21.133 -18.904  0.00  0.00    +0.114 C 
ATOM     12  H   UNL     1      35.515 -23.692 -16.250  0.00  0.00    +0.159 HD
ENDROOT
BRANCH   4  16
ATOM     13  C   UNL     1      34.973 -15.857 -23.138  0.00  0.00    +0.053 C 
ATOM     14  C   UNL     1      34.757 -16.820 -22.152  0.00  0.00    +0.004 C 
ATOM     15  C   UNL     1      35.258 -16.250 -24.445  0.00  0.00    +0.004 C 
ATOM     16  C   UNL     1      34.823 -18.175 -22.473  0.00  0.00    -0.004 C 
ATOM     17  C   UNL     1      35.107 -18.568 -23.781  0.00  0.00    -0.022 C 
ATOM     18  C   UNL     1      35.325 -17.606 -24.768  0.00  0.00    -0.004 C 
ATOM     19  C   UNL     1      35.188 -20.012 -24.164  0.00  0.00    +0.031 C 
BRANCH  13  22
ATOM     20  O   UNL     1      34.994 -14.066 -21.621  0.00  0.00    -0.270 OA
ATOM     21  N   UNL     1      34.714 -13.547 -23.862  0.00  0.00    -0.302 N 
ATOM     22  C   UNL     1      34.904 -14.443 -22.803  0.00  0.00    +0.246 C 
ATOM     23  H   UNL     1      34.650 -13.909 -24.776  0.00  0.00    +0.150 HD
BRANCH  21  24
ATOM     24  C   UNL     1      34.605 -12.125 -23.682  0.00  0.00    +0.072 C 
ATOM     25  C   UNL     1      34.026 -11.249 -24.753  0.00  0.00    +0.021 C 
ATOM     26  C   UNL     1      33.273 -11.469 -23.473  0.00  0.00    +0.021 C 
ENDBRANCH  21  24
ENDBRANCH  13  22
ENDBRANCH   4  16
BRANCH   1  27
ATOM     27  C   UNL     1      33.434 -23.861 -16.445  0.00  0.00    +0.075 C 
BRANCH  27  28
ATOM     28  C   UNL     1      33.000 -23.337 -15.082  0.00  0.00    -0.055 C 
BRANCH  28  30
ATOM     29  O   UNL     1      28.940 -24.075 -15.851  0.00  0.00    -0.358 OA
ATOM     30  N   UNL     1      31.542 -23.302 -14.992  0.00  0.00    +0.391 N 
ATOM     31  C   UNL     1      31.005 -24.642 -14.709  0.00  0.00    -0.045 C 
ATOM     32  C   UNL     1      30.954 -22.775 -16.231  0.00  0.00    -0.045 C 
ATOM     33  C   UNL     1      29.483 -24.583 -14.631  0.00  0.00    +0.119 C 
ATOM     34  C   UNL     1      29.432 -22.760 -16.116  0.00  0.00    +0.119 C 
ATOM     35  H   UNL     1      31.291 -22.682 -14.221  0.00  0.00    -0.079 HD
ENDBRANCH  28  30
ENDBRANCH  27  28
ENDBRANCH   1  27
TORSDOF 6
ENDMDL
MODEL 6
REMARK VINA RESULT:     -10.6      2.756     11.008
REMARK  Name = 24963046
REMARK  6 active torsions:
REMARK  status: ('A' for Active; 'I' for Inactive)
REMARK    1  A    between atoms: N_1  and  C_27
REMARK    2  A    between atoms: C_4  and  C_16
REMARK    3  A    between atoms: C_13  and  C_22
REMARK    4  A    between atoms: N_21  and  C_24
REMARK    5  A    between atoms: C_27  and  C_28
REMARK    6  A    between atoms: C_28  and  N_30
REMARK                            x       y       z     vdW  Elec       q    Type
REMARK                         _______ _______ _______ _____ _____    ______ ____
ROOT
ATOM      1  N   UNL     1      34.569 -18.995 -22.680  0.00  0.00    -0.270 N 
ATOM      2  N   UNL     1      35.655 -19.966 -20.868  0.00  0.00    -0.338 NA
ATOM      3  N   UNL     1      33.256 -20.053 -21.088  0.00  0.00    -0.170 NA
ATOM      4  C   UNL     1      35.455 -22.095 -17.290  0.00  0.00    -0.000 C 
ATOM      5  C   UNL     1      34.286 -21.793 -17.983  0.00  0.00    +0.004 C 
ATOM      6  C   UNL     1      34.349 -21.075 -19.189  0.00  0.00    +0.050 C 
ATOM      7  C   UNL     1      34.488 -19.703 -21.492  0.00  0.00    +0.145 C 
ATOM      8  C   UNL     1      36.681 -21.684 -17.802  0.00  0.00    +0.003 C 
ATOM      9  C   UNL     1      35.582 -20.653 -19.715  0.00  0.00    +0.146 C 
ATOM     10  C   UNL     1      36.735 -20.970 -19.002  0.00  0.00    +0.033 C 
ATOM     11  C   UNL     1      33.219 -20.740 -19.929  0.00  0.00    +0.114 C 
ATOM     12  H   UNL     1      33.733 -18.790 -23.157  0.00  0.00    +0.159 HD
ENDROOT
BRANCH   4  16
ATOM     13  C   UNL     1      34.066 -23.922 -14.349  0.00  0.00    +0.053 C 
ATOM     14  C   UNL     1      34.149 -23.210 -15.545  0.00  0.00    +0.004 C 
ATOM     15  C   UNL     1      35.228 -24.258 -13.656  0.00  0.00    +0.004 C 
ATOM     16  C   UNL     1      35.394 -22.833 -16.048  0.00  0.00    -0.004 C 
ATOM     17  C   UNL     1      36.557 -23.169 -15.354  0.00  0.00    -0.022 C 
ATOM     18  C   UNL     1      36.474 -23.882 -14.158  0.00  0.00    -0.004 C 
ATOM     19  C   UNL     1      37.910 -22.783 -15.862  0.00  0.00    +0.031 C 
BRANCH  13  22
ATOM     20  O   UNL     1      32.682 -24.968 -12.769  0.00  0.00    -0.270 OA
ATOM     21  N   UNL     1      31.641 -23.945 -14.568  0.00  0.00    -0.302 N 
ATOM     22  C   UNL     1      32.768 -24.316 -13.824  0.00  0.00    +0.246 C 
ATOM     23  H   UNL     1      31.777 -23.428 -15.396  0.00  0.00    +0.150 HD
BRANCH  21  24
ATOM     24  C   UNL     1      30.297 -24.280 -14.186  0.00  0.00    +0.072 C 
ATOM     25  C   UNL     1      29.169 -24.212 -15.172  0.00  0.00    +0.021 C 
ATOM     26  C   UNL     1      29.646 -25.543 -14.667  0.00  0.00    +0.021 C 
ENDBRANCH  21  24
ENDBRANCH  13  22
ENDBRANCH   4  16
BRANCH   1  27
ATOM     27  C   UNL     1      35.812 -18.542 -23.259  0.00  0.00    +0.075 C 
BRANCH  27  28
ATOM     28  C   UNL     1      36.079 -17.102 -22.837  0.00  0.00    -0.055 C 
BRANCH  28  30
ATOM     29  O   UNL     1      33.869 -13.892 -24.394  0.00  0.00    -0.358 OA
ATOM     30  N   UNL     1      34.959 -16.244 -23.220  0.00  0.00    +0.391 N 
ATOM     31  C   UNL     1      34.918 -16.062 -24.678  0.00  0.00    -0.045 C 
ATOM     32  C   UNL     1      35.049 -14.939 -22.551  0.00  0.00    -0.045 C 
ATOM     33  C   UNL     1      33.750 -15.154 -25.052  0.00  0.00    +0.119 C 
ATOM     34  C   UNL     1      33.878 -14.058 -22.975  0.00  0.00    +0.119 C 
ATOM     35  H   UNL     1      34.098 -16.704 -22.924  0.00  0.00    -0.079 HD
ENDBRANCH  28  30
ENDBRANCH  27  28
ENDBRANCH   1  27
TORSDOF 6
ENDMDL
MODEL 7
REMARK VINA RESULT:     -10.4      1.866      2.412
REMARK  Name = 24963046
REMARK  6 active torsions:
REMARK  status: ('A' for Active; 'I' for Inactive)
REMARK    1  A    between atoms: N_1  and  C_27
REMARK    2  A    between atoms: C_4  and  C_16
REMARK    3  A    between atoms: C_13  and  C_22
REMARK    4  A    between atoms: N_21  and  C_24
REMARK    5  A    between atoms: C_27  and  C_28
REMARK    6  A    between atoms: C_28  and  N_30
REMARK                            x       y       z     vdW  Elec       q    Type
REMARK                         _______ _______ _______ _____ _____    ______ ____
ROOT
ATOM      1  N   UNL     1      33.875 -23.361 -16.906  0.00  0.00    -0.270 N 
ATOM      2  N   UNL     1      35.065 -21.939 -18.307  0.00  0.00    -0.338 NA
ATOM      3  N   UNL     1      32.661 -22.076 -18.409  0.00  0.00    -0.170 NA
ATOM      4  C   UNL     1      35.082 -19.096 -21.356  0.00  0.00    -0.000 C 
ATOM      5  C   UNL     1      33.875 -19.627 -20.910  0.00  0.00    +0.004 C 
ATOM      6  C   UNL     1      33.865 -20.586 -19.882  0.00  0.00    +0.050 C 
ATOM      7  C   UNL     1      33.865 -22.417 -17.920  0.00  0.00    +0.145 C 
ATOM      8  C   UNL     1      36.273 -19.521 -20.777  0.00  0.00    +0.003 C 
ATOM      9  C   UNL     1      35.062 -21.023 -19.291  0.00  0.00    +0.146 C 
ATOM     10  C   UNL     1      36.255 -20.474 -19.756  0.00  0.00    +0.033 C 
ATOM     11  C   UNL     1      32.695 -21.156 -19.392  0.00  0.00    +0.114 C 
ATOM     12  H   UNL     1      33.012 -23.726 -16.603  0.00  0.00    +0.159 HD
ENDROOT
BRANCH   4  16
ATOM     13  C   UNL     1      35.011 -15.791 -23.083  0.00  0.00    +0.053 C 
ATOM     14  C   UNL     1      34.999 -16.759 -22.080  0.00  0.00    +0.004 C 
ATOM     15  C   UNL     1      35.122 -16.172 -24.420  0.00  0.00    +0.004 C 
ATOM     16  C   UNL     1      35.096 -18.110 -22.413  0.00  0.00    -0.004 C 
ATOM     17  C   UNL     1      35.207 -18.492 -23.751  0.00  0.00    -0.022 C 
ATOM     18  C   UNL     1      35.220 -17.523 -24.754  0.00  0.00    -0.004 C 
ATOM     19  C   UNL     1      35.314 -19.930 -24.147  0.00  0.00    +0.031 C 
BRANCH  13  22
ATOM     20  O   UNL     1      35.072 -14.005 -21.562  0.00  0.00    -0.270 OA
ATOM     21  N   UNL     1      34.603 -13.491 -23.772  0.00  0.00    -0.302 N 
ATOM     22  C   UNL     1      34.909 -14.382 -22.736  0.00  0.00    +0.246 C 
ATOM     23  H   UNL     1      34.486 -13.853 -24.681  0.00  0.00    +0.150 HD
BRANCH  21  24
ATOM     24  C   UNL     1      34.451 -12.075 -23.577  0.00  0.00    +0.072 C 
ATOM     25  C   UNL     1      34.590 -11.114 -24.720  0.00  0.00    +0.021 C 
ATOM     26  C   UNL     1      33.246 -11.346 -24.094  0.00  0.00    +0.021 C 
ENDBRANCH  21  24
ENDBRANCH  13  22
ENDBRANCH   4  16
BRANCH   1  27
ATOM     27  C   UNL     1      35.078 -23.839 -16.268  0.00  0.00    +0.075 C 
BRANCH  27  28
ATOM     28  C   UNL     1      34.728 -24.484 -14.933  0.00  0.00    -0.055 C 
BRANCH  28  30
ATOM     29  O   UNL     1      31.256 -23.922 -12.643  0.00  0.00    -0.358 OA
ATOM     30  N   UNL     1      33.360 -24.144 -14.547  0.00  0.00    +0.391 N 
ATOM     31  C   UNL     1      33.355 -23.084 -13.529  0.00  0.00    -0.045 C 
ATOM     32  C   UNL     1      32.650 -25.328 -14.045  0.00  0.00    -0.045 C 
ATOM     33  C   UNL     1      31.918 -22.755 -13.133  0.00  0.00    +0.119 C 
ATOM     34  C   UNL     1      31.229 -24.946 -13.638  0.00  0.00    +0.119 C 
ATOM     35  H   UNL     1      32.878 -23.800 -15.377  0.00  0.00    -0.079 HD
ENDBRANCH  28  30
ENDBRANCH  27  28
ENDBRANCH   1  27
TORSDOF 6
ENDMDL
MODEL 8
REMARK VINA RESULT:     -10.2      1.227      2.014
REMARK  Name = 24963046
REMARK  6 active torsions:
REMARK  status: ('A' for Active; 'I' for Inactive)
REMARK    1  A    between atoms: N_1  and  C_27
REMARK    2  A    between atoms: C_4  and  C_16
REMARK    3  A    between atoms: C_13  and  C_22
REMARK    4  A    between atoms: N_21  and  C_24
REMARK    5  A    between atoms: C_27  and  C_28
REMARK    6  A    between atoms: C_28  and  N_30
REMARK                            x       y       z     vdW  Elec       q    Type
REMARK                         _______ _______ _______ _____ _____    ______ ____
ROOT
ATOM      1  N   UNL     1      35.741 -23.148 -16.418  0.00  0.00    -0.270 N 
ATOM      2  N   UNL     1      34.676 -21.962 -18.110  0.00  0.00    -0.338 NA
ATOM      3  N   UNL     1      37.056 -21.793 -17.766  0.00  0.00    -0.170 NA
ATOM      4  C   UNL     1      34.898 -19.297 -21.307  0.00  0.00    -0.000 C 
ATOM      5  C   UNL     1      36.054 -19.646 -20.615  0.00  0.00    +0.004 C 
ATOM      6  C   UNL     1      35.983 -20.544 -19.536  0.00  0.00    +0.050 C 
ATOM      7  C   UNL     1      35.830 -22.261 -17.478  0.00  0.00    +0.145 C 
ATOM      8  C   UNL     1      33.678 -19.843 -20.925  0.00  0.00    +0.003 C 
ATOM      9  C   UNL     1      34.756 -21.102 -19.140  0.00  0.00    +0.146 C 
ATOM     10  C   UNL     1      33.616 -20.736 -19.851  0.00  0.00    +0.033 C 
ATOM     11  C   UNL     1      37.100 -20.934 -18.803  0.00  0.00    +0.114 C 
ATOM     12  H   UNL     1      36.569 -23.384 -15.939  0.00  0.00    +0.159 HD
ENDROOT
BRANCH   4  16
ATOM     13  C   UNL     1      34.856 -16.100 -23.229  0.00  0.00    +0.053 C 
ATOM     14  C   UNL     1      34.794 -17.010 -22.174  0.00  0.00    +0.004 C 
ATOM     15  C   UNL     1      35.092 -16.552 -24.527  0.00  0.00    +0.004 C 
ATOM     16  C   UNL     1      34.967 -18.372 -22.417  0.00  0.00    -0.004 C 
ATOM     17  C   UNL     1      35.203 -18.824 -23.716  0.00  0.00    -0.022 C 
ATOM     18  C   UNL     1      35.266 -17.914 -24.771  0.00  0.00    -0.004 C 
ATOM     19  C   UNL     1      35.394 -20.277 -24.015  0.00  0.00    +0.031 C 
BRANCH  13  22
ATOM     20  O   UNL     1      35.277 -13.832 -23.661  0.00  0.00    -0.270 OA
ATOM     21  N   UNL     1      33.820 -14.322 -21.928  0.00  0.00    -0.302 N 
ATOM     22  C   UNL     1      34.676 -14.679 -22.977  0.00  0.00    +0.246 C 
ATOM     23  H   UNL     1      33.373 -15.041 -21.423  0.00  0.00    +0.150 HD
BRANCH  21  24
ATOM     24  C   UNL     1      33.561 -12.960 -21.548  0.00  0.00    +0.072 C 
ATOM     25  C   UNL     1      32.290 -12.270 -21.947  0.00  0.00    +0.021 C 
ATOM     26  C   UNL     1      32.532 -12.626 -20.509  0.00  0.00    +0.021 C 
ENDBRANCH  21  24
ENDBRANCH  13  22
ENDBRANCH   4  16
BRANCH   1  27
ATOM     27  C   UNL     1      34.504 -23.746 -15.975  0.00  0.00    +0.075 C 
BRANCH  27  28
ATOM     28  C   UNL     1      34.775 -24.664 -14.790  0.00  0.00    -0.055 C 
BRANCH  28  30
ATOM     29  O   UNL     1      38.466 -26.063 -13.365  0.00  0.00    -0.358 OA
ATOM     30  N   UNL     1      36.213 -24.838 -14.600  0.00  0.00    +0.391 N 
ATOM     31  C   UNL     1      36.622 -26.209 -14.936  0.00  0.00    -0.045 C 
ATOM     32  C   UNL     1      36.599 -24.522 -13.217  0.00  0.00    -0.045 C 
ATOM     33  C   UNL     1      38.124 -26.370 -14.718  0.00  0.00    +0.119 C 
ATOM     34  C   UNL     1      38.101 -24.721 -13.041  0.00  0.00    +0.119 C 
ATOM     35  H   UNL     1      36.692 -24.192 -15.228  0.00  0.00    -0.079 HD
ENDBRANCH  28  30
ENDBRANCH  27  28
ENDBRANCH   1  27
TORSDOF 6
ENDMDL
MODEL 9
REMARK VINA RESULT:     -10.1      3.798     11.925
REMARK  Name = 24963046
REMARK  6 active torsions:
REMARK  status: ('A' for Active; 'I' for Inactive)
REMARK    1  A    between atoms: N_1  and  C_27
REMARK    2  A    between atoms: C_4  and  C_16
REMARK    3  A    between atoms: C_13  and  C_22
REMARK    4  A    between atoms: N_21  and  C_24
REMARK    5  A    between atoms: C_27  and  C_28
REMARK    6  A    between atoms: C_28  and  N_30
REMARK                            x       y       z     vdW  Elec       q    Type
REMARK                         _______ _______ _______ _____ _____    ______ ____
ROOT
ATOM      1  N   UNL     1      33.632  -9.725 -24.589  0.00  0.00    -0.270 N 
ATOM      2  N   UNL     1      34.101 -11.573 -23.260  0.00  0.00    -0.338 NA
ATOM      3  N   UNL     1      33.881 -11.771 -25.652  0.00  0.00    -0.170 NA
ATOM      4  C   UNL     1      34.857 -15.660 -22.940  0.00  0.00    -0.000 C 
ATOM      5  C   UNL     1      34.625 -15.094 -24.191  0.00  0.00    +0.004 C 
ATOM      6  C   UNL     1      34.369 -13.716 -24.302  0.00  0.00    +0.050 C 
ATOM      7  C   UNL     1      33.882 -11.084 -24.498  0.00  0.00    +0.145 C 
ATOM      8  C   UNL     1      34.836 -14.853 -21.808  0.00  0.00    +0.003 C 
ATOM      9  C   UNL     1      34.344 -12.891 -23.165  0.00  0.00    +0.146 C 
ATOM     10  C   UNL     1      34.581 -13.484 -21.927  0.00  0.00    +0.033 C 
ATOM     11  C   UNL     1      34.129 -13.089 -25.521  0.00  0.00    +0.114 C 
ATOM     12  H   UNL     1      33.470  -9.341 -25.481  0.00  0.00    +0.159 HD
ENDROOT
BRANCH   4  16
ATOM     13  C   UNL     1      36.091 -18.905 -21.576  0.00  0.00    +0.053 C 
ATOM     14  C   UNL     1      35.827 -17.543 -21.713  0.00  0.00    +0.004 C 
ATOM     15  C   UNL     1      35.649 -19.802 -22.547  0.00  0.00    +0.004 C 
ATOM     16  C   UNL     1      35.120 -17.077 -22.821  0.00  0.00    -0.004 C 
ATOM     17  C   UNL     1      34.677 -17.975 -23.793  0.00  0.00    -0.022 C 
ATOM     18  C   UNL     1      34.941 -19.337 -23.656  0.00  0.00    -0.004 C 
ATOM     19  C   UNL     1      33.916 -17.513 -24.995  0.00  0.00    +0.031 C 
BRANCH  13  22
ATOM     20  O   UNL     1      37.756 -18.722 -19.932  0.00  0.00    -0.270 OA
ATOM     21  N   UNL     1      36.458 -20.641 -19.908  0.00  0.00    -0.302 N 
ATOM     22  C   UNL     1      36.828 -19.392 -20.420  0.00  0.00    +0.246 C 
ATOM     23  H   UNL     1      35.715 -21.122 -20.341  0.00  0.00    +0.150 HD
BRANCH  21  24
ATOM     24  C   UNL     1      37.108 -21.258 -18.785  0.00  0.00    +0.072 C 
ATOM     25  C   UNL     1      37.202 -20.560 -17.461  0.00  0.00    +0.021 C 
ATOM     26  C   UNL     1      36.320 -21.764 -17.614  0.00  0.00    +0.021 C 
ENDBRANCH  21  24
ENDBRANCH  13  22
ENDBRANCH   4  16
BRANCH   1  27
ATOM     27  C   UNL     1      33.597  -8.838 -23.450  0.00  0.00    +0.075 C 
BRANCH  27  28
ATOM     28  C   UNL     1      32.182  -8.308 -23.257  0.00  0.00    -0.055 C 
BRANCH  28  30
ATOM     29  O   UNL     1      32.473  -8.603 -19.080  0.00  0.00    -0.358 OA
ATOM     30  N   UNL     1      31.843  -8.268 -21.836  0.00  0.00    +0.391 N 
ATOM     31  C   UNL     1      32.701  -7.311 -21.122  0.00  0.00    -0.045 C 
ATOM     32  C   UNL     1      31.965  -9.602 -21.232  0.00  0.00    -0.045 C 
ATOM     33  C   UNL     1      32.338  -7.296 -19.640  0.00  0.00    +0.119 C 
ATOM     34  C   UNL     1      31.617  -9.532 -19.748  0.00  0.00    +0.119 C 
ATOM     35  H   UNL     1      30.874  -7.959 -21.754  0.00  0.00    -0.079 HD
ENDBRANCH  28  30
ENDBRANCH  27  28
ENDBRANCH   1  27
TORSDOF 6
ENDMDL
