MODEL 1
REMARK VINA RESULT:     -13.0      0.000      0.000
REMARK  Name = 67335295
REMARK  6 active torsions:
REMARK  status: ('A' for Active; 'I' for Inactive)
REMARK    1  A    between atoms: N_2  and  C_14
REMARK    2  A    between atoms: C_7  and  O_20
REMARK    3  A    between atoms: O_20  and  C_21
REMARK    4  A    between atoms: C_21  and  C_23
REMARK    5  A    between atoms: C_22  and  C_28
REMARK    6  A    between atoms: C_28  and  N_30
REMARK                            x       y       z     vdW  Elec       q    Type
REMARK                         _______ _______ _______ _____ _____    ______ ____
ROOT
ATOM      1  O   UNL     1      34.976 -24.688 -11.744  0.00  0.00    -0.270 OA
ATOM      2  N   UNL     1      35.968 -24.751 -13.888  0.00  0.00    -0.265 N 
ATOM      3  C   UNL     1      35.600 -24.336 -15.236  0.00  0.00    +0.124 C 
ATOM      4  C   UNL     1      34.244 -23.754 -15.020  0.00  0.00    +0.036 C 
ATOM      5  C   UNL     1      34.987 -24.474 -12.943  0.00  0.00    +0.249 C 
ATOM      6  C   UNL     1      33.886 -23.837 -13.674  0.00  0.00    +0.054 C 
ATOM      7  C   UNL     1      33.379 -23.190 -15.939  0.00  0.00    +0.137 C 
ATOM      8  C   UNL     1      32.678 -23.371 -13.193  0.00  0.00    +0.004 C 
ATOM      9  C   UNL     1      32.149 -22.711 -15.479  0.00  0.00    +0.037 C 
ATOM     10  C   UNL     1      31.802 -22.800 -14.117  0.00  0.00    +0.003 C 
ENDROOT
BRANCH   2  14
ATOM     11  O   UNL     1      37.890 -23.226 -12.709  0.00  0.00    -0.273 OA
ATOM     12  O   UNL     1      41.276 -26.004 -14.128  0.00  0.00    -0.275 OA
ATOM     13  N   UNL     1      39.553 -24.628 -13.457  0.00  0.00    -0.254 N 
ATOM     14  C   UNL     1      37.220 -25.383 -13.568  0.00  0.00    +0.153 C 
ATOM     15  C   UNL     1      37.715 -26.240 -14.723  0.00  0.00    +0.039 C 
ATOM     16  C   UNL     1      39.051 -26.859 -14.354  0.00  0.00    +0.088 C 
ATOM     17  C   UNL     1      38.219 -24.293 -13.225  0.00  0.00    +0.246 C 
ATOM     18  C   UNL     1      40.069 -25.803 -13.996  0.00  0.00    +0.228 C 
ATOM     19  H   UNL     1      40.215 -23.944 -13.206  0.00  0.00    +0.158 HD
ENDBRANCH   2  14
BRANCH   7  20
ATOM     20  O   UNL     1      33.705 -23.100 -17.254  0.00  0.00    -0.471 OA
BRANCH  20  21
ATOM     21  C   UNL     1      32.838 -22.333 -18.090  0.00  0.00    +0.232 C 
BRANCH  21  23
ATOM     22  C   UNL     1      35.210 -19.908 -20.718  0.00  0.00    -0.043 C 
ATOM     23  C   UNL     1      33.668 -21.484 -19.008  0.00  0.00    +0.021 C 
ATOM     24  C   UNL     1      33.820 -19.779 -20.713  0.00  0.00    -0.007 C 
ATOM     25  C   UNL     1      35.828 -20.826 -19.869  0.00  0.00    -0.007 C 
ATOM     26  C   UNL     1      33.049 -20.566 -19.858  0.00  0.00    -0.001 C 
ATOM     27  C   UNL     1      35.056 -21.613 -19.013  0.00  0.00    -0.001 C 
BRANCH  22  28
ATOM     28  C   UNL     1      36.033 -19.066 -21.633  0.00  0.00    -0.050 C 
BRANCH  28  30
ATOM     29  O   UNL     1      34.806 -17.014 -25.083  0.00  0.00    -0.358 OA
ATOM     30  N   UNL     1      35.215 -18.317 -22.585  0.00  0.00    +0.393 N 
ATOM     31  C   UNL     1      35.824 -17.012 -22.881  0.00  0.00    -0.044 C 
ATOM     32  C   UNL     1      35.030 -19.079 -23.827  0.00  0.00    -0.044 C 
ATOM     33  C   UNL     1      34.186 -18.273 -24.810  0.00  0.00    +0.119 C 
ATOM     34  C   UNL     1      34.960 -16.254 -23.884  0.00  0.00    +0.119 C 
ATOM     35  H   UNL     1      34.302 -18.161 -22.158  0.00  0.00    -0.079 HD
ENDBRANCH  28  30
ENDBRANCH  22  28
ENDBRANCH  21  23
ENDBRANCH  20  21
ENDBRANCH   7  20
TORSDOF 6
ENDMDL
MODEL 2
REMARK VINA RESULT:     -12.8      1.611      2.322
REMARK  Name = 67335295
REMARK  6 active torsions:
REMARK  status: ('A' for Active; 'I' for Inactive)
REMARK    1  A    between atoms: N_2  and  C_14
REMARK    2  A    between atoms: C_7  and  O_20
REMARK    3  A    between atoms: O_20  and  C_21
REMARK    4  A    between atoms: C_21  and  C_23
REMARK    5  A    between atoms: C_22  and  C_28
REMARK    6  A    between atoms: C_28  and  N_30
REMARK                            x       y       z     vdW  Elec       q    Type
REMARK                         _______ _______ _______ _____ _____    ______ ____
ROOT
ATOM      1  O   UNL     1      32.889 -24.679 -12.567  0.00  0.00    -0.270 OA
ATOM      2  N   UNL     1      34.215 -23.700 -14.261  0.00  0.00    -0.265 N 
ATOM      3  C   UNL     1      33.979 -23.030 -15.534  0.00  0.00    +0.124 C 
ATOM      4  C   UNL     1      32.492 -23.060 -15.627  0.00  0.00    +0.036 C 
ATOM      5  C   UNL     1      33.045 -24.102 -13.628  0.00  0.00    +0.249 C 
ATOM      6  C   UNL     1      31.945 -23.690 -14.508  0.00  0.00    +0.054 C 
ATOM      7  C   UNL     1      31.669 -22.569 -16.623  0.00  0.00    +0.137 C 
ATOM      8  C   UNL     1      30.585 -23.855 -14.335  0.00  0.00    +0.004 C 
ATOM      9  C   UNL     1      30.287 -22.724 -16.473  0.00  0.00    +0.037 C 
ATOM     10  C   UNL     1      29.750 -23.362 -15.338  0.00  0.00    +0.003 C 
ENDROOT
BRANCH   2  14
ATOM     11  O   UNL     1      35.641 -25.816 -15.213  0.00  0.00    -0.273 OA
ATOM     12  O   UNL     1      38.245 -26.049 -11.423  0.00  0.00    -0.275 OA
ATOM     13  N   UNL     1      36.905 -25.911 -13.293  0.00  0.00    -0.254 N 
ATOM     14  C   UNL     1      35.528 -23.923 -13.714  0.00  0.00    +0.153 C 
ATOM     15  C   UNL     1      35.520 -23.798 -12.198  0.00  0.00    +0.039 C 
ATOM     16  C   UNL     1      36.914 -24.073 -11.664  0.00  0.00    +0.088 C 
ATOM     17  C   UNL     1      35.987 -25.303 -14.150  0.00  0.00    +0.246 C 
ATOM     18  C   UNL     1      37.410 -25.435 -12.086  0.00  0.00    +0.228 C 
ATOM     19  H   UNL     1      37.238 -26.792 -13.580  0.00  0.00    +0.158 HD
ENDBRANCH   2  14
BRANCH   7  20
ATOM     20  O   UNL     1      32.178 -21.955 -17.721  0.00  0.00    -0.471 OA
BRANCH  20  21
ATOM     21  C   UNL     1      33.279 -22.591 -18.373  0.00  0.00    +0.232 C 
BRANCH  21  23
ATOM     22  C   UNL     1      35.345 -19.693 -20.771  0.00  0.00    -0.043 C 
ATOM     23  C   UNL     1      34.002 -21.579 -19.213  0.00  0.00    +0.021 C 
ATOM     24  C   UNL     1      36.068 -20.630 -20.031  0.00  0.00    -0.007 C 
ATOM     25  C   UNL     1      33.951 -19.699 -20.731  0.00  0.00    -0.007 C 
ATOM     26  C   UNL     1      35.396 -21.573 -19.252  0.00  0.00    -0.001 C 
ATOM     27  C   UNL     1      33.279 -20.643 -19.953  0.00  0.00    -0.001 C 
BRANCH  22  28
ATOM     28  C   UNL     1      36.064 -18.686 -21.603  0.00  0.00    -0.050 C 
BRANCH  28  30
ATOM     29  O   UNL     1      34.672 -16.876 -25.125  0.00  0.00    -0.358 OA
ATOM     30  N   UNL     1      35.187 -18.044 -22.580  0.00  0.00    +0.393 N 
ATOM     31  C   UNL     1      35.683 -16.705 -22.926  0.00  0.00    -0.044 C 
ATOM     32  C   UNL     1      35.069 -18.866 -23.793  0.00  0.00    -0.044 C 
ATOM     33  C   UNL     1      34.160 -18.171 -24.803  0.00  0.00    +0.119 C 
ATOM     34  C   UNL     1      34.760 -16.061 -23.955  0.00  0.00    +0.119 C 
ATOM     35  H   UNL     1      34.263 -17.951 -22.158  0.00  0.00    -0.079 HD
ENDBRANCH  28  30
ENDBRANCH  22  28
ENDBRANCH  21  23
ENDBRANCH  20  21
ENDBRANCH   7  20
TORSDOF 6
ENDMDL
MODEL 3
REMARK VINA RESULT:     -11.9      3.363     12.265
REMARK  Name = 67335295
REMARK  6 active torsions:
REMARK  status: ('A' for Active; 'I' for Inactive)
REMARK    1  A    between atoms: N_2  and  C_14
REMARK    2  A    between atoms: C_7  and  O_20
REMARK    3  A    between atoms: O_20  and  C_21
REMARK    4  A    between atoms: C_21  and  C_23
REMARK    5  A    between atoms: C_22  and  C_28
REMARK    6  A    between atoms: C_28  and  N_30
REMARK                            x       y       z     vdW  Elec       q    Type
REMARK                         _______ _______ _______ _____ _____    ______ ____
ROOT
ATOM      1  O   UNL     1      33.836 -14.401 -25.460  0.00  0.00    -0.270 OA
ATOM      2  N   UNL     1      34.557 -14.248 -23.215  0.00  0.00    -0.265 N 
ATOM      3  C   UNL     1      35.017 -15.173 -22.187  0.00  0.00    +0.124 C 
ATOM      4  C   UNL     1      34.952 -16.481 -22.898  0.00  0.00    +0.036 C 
ATOM      5  C   UNL     1      34.242 -14.874 -24.415  0.00  0.00    +0.249 C 
ATOM      6  C   UNL     1      34.497 -16.305 -24.205  0.00  0.00    +0.054 C 
ATOM      7  C   UNL     1      35.269 -17.744 -22.435  0.00  0.00    +0.137 C 
ATOM      8  C   UNL     1      34.341 -17.354 -25.090  0.00  0.00    +0.004 C 
ATOM      9  C   UNL     1      35.120 -18.825 -23.310  0.00  0.00    +0.037 C 
ATOM     10  C   UNL     1      34.660 -18.631 -24.626  0.00  0.00    +0.003 C 
ENDROOT
BRANCH   2  14
ATOM     11  O   UNL     1      32.712 -13.377 -21.411  0.00  0.00    -0.273 OA
ATOM     12  O   UNL     1      32.453  -9.212 -23.356  0.00  0.00    -0.275 OA
ATOM     13  N   UNL     1      32.597 -11.316 -22.427  0.00  0.00    -0.254 N 
ATOM     14  C   UNL     1      34.441 -12.828 -23.009  0.00  0.00    +0.153 C 
ATOM     15  C   UNL     1      34.432 -12.079 -24.333  0.00  0.00    +0.039 C 
ATOM     16  C   UNL     1      34.274 -10.593 -24.068  0.00  0.00    +0.088 C 
ATOM     17  C   UNL     1      33.167 -12.573 -22.224  0.00  0.00    +0.246 C 
ATOM     18  C   UNL     1      33.020 -10.301 -23.279  0.00  0.00    +0.228 C 
ATOM     19  H   UNL     1      31.789 -11.123 -21.898  0.00  0.00    +0.158 HD
ENDBRANCH   2  14
BRANCH   7  20
ATOM     20  O   UNL     1      35.712 -17.941 -21.166  0.00  0.00    -0.471 OA
BRANCH  20  21
ATOM     21  C   UNL     1      36.538 -19.083 -20.933  0.00  0.00    +0.232 C 
BRANCH  21  23
ATOM     22  C   UNL     1      34.284 -22.028 -18.775  0.00  0.00    -0.043 C 
ATOM     23  C   UNL     1      35.750 -20.111 -20.177  0.00  0.00    +0.021 C 
ATOM     24  C   UNL     1      35.675 -21.993 -18.662  0.00  0.00    -0.007 C 
ATOM     25  C   UNL     1      33.627 -21.106 -19.588  0.00  0.00    -0.007 C 
ATOM     26  C   UNL     1      36.407 -21.034 -19.364  0.00  0.00    -0.001 C 
ATOM     27  C   UNL     1      34.360 -20.147 -20.289  0.00  0.00    -0.001 C 
BRANCH  22  28
ATOM     28  C   UNL     1      33.503 -23.053 -18.026  0.00  0.00    -0.050 C 
BRANCH  28  30
ATOM     29  O   UNL     1      32.781 -23.439 -13.909  0.00  0.00    -0.358 OA
ATOM     30  N   UNL     1      33.420 -22.754 -16.597  0.00  0.00    +0.393 N 
ATOM     31  C   UNL     1      32.028 -22.822 -16.131  0.00  0.00    -0.044 C 
ATOM     32  C   UNL     1      34.256 -23.681 -15.821  0.00  0.00    -0.044 C 
ATOM     33  C   UNL     1      34.143 -23.358 -14.333  0.00  0.00    +0.119 C 
ATOM     34  C   UNL     1      31.968 -22.518 -14.637  0.00  0.00    +0.119 C 
ATOM     35  H   UNL     1      33.766 -21.806 -16.455  0.00  0.00    -0.079 HD
ENDBRANCH  28  30
ENDBRANCH  22  28
ENDBRANCH  21  23
ENDBRANCH  20  21
ENDBRANCH   7  20
TORSDOF 6
ENDMDL
MODEL 4
REMARK VINA RESULT:     -11.5      8.061     15.583
REMARK  Name = 67335295
REMARK  6 active torsions:
REMARK  status: ('A' for Active; 'I' for Inactive)
REMARK    1  A    between atoms: N_2  and  C_14
REMARK    2  A    between atoms: C_7  and  O_20
REMARK    3  A    between atoms: O_20  and  C_21
REMARK    4  A    between atoms: C_21  and  C_23
REMARK    5  A    between atoms: C_22  and  C_28
REMARK    6  A    between atoms: C_28  and  N_30
REMARK                            x       y       z     vdW  Elec       q    Type
REMARK                         _______ _______ _______ _____ _____    ______ ____
ROOT
ATOM      1  O   UNL     1      32.443  -6.564 -19.638  0.00  0.00    -0.270 OA
ATOM      2  N   UNL     1      32.600  -7.195 -21.910  0.00  0.00    -0.265 N 
ATOM      3  C   UNL     1      32.565  -8.441 -22.666  0.00  0.00    +0.124 C 
ATOM      4  C   UNL     1      32.381  -9.451 -21.586  0.00  0.00    +0.036 C 
ATOM      5  C   UNL     1      32.458  -7.381 -20.539  0.00  0.00    +0.249 C 
ATOM      6  C   UNL     1      32.319  -8.829 -20.339  0.00  0.00    +0.054 C 
ATOM      7  C   UNL     1      32.274 -10.826 -21.685  0.00  0.00    +0.137 C 
ATOM      8  C   UNL     1      32.151  -9.530 -19.162  0.00  0.00    +0.004 C 
ATOM      9  C   UNL     1      32.104 -11.561 -20.508  0.00  0.00    +0.037 C 
ATOM     10  C   UNL     1      32.043 -10.918 -19.257  0.00  0.00    +0.003 C 
ENDROOT
BRANCH   2  14
ATOM     11  O   UNL     1      30.418  -5.573 -22.047  0.00  0.00    -0.273 OA
ATOM     12  O   UNL     1      32.152  -3.169 -25.570  0.00  0.00    -0.275 OA
ATOM     13  N   UNL     1      31.312  -4.412 -23.821  0.00  0.00    -0.254 N 
ATOM     14  C   UNL     1      32.765  -5.901 -22.519  0.00  0.00    +0.153 C 
ATOM     15  C   UNL     1      33.561  -6.000 -23.812  0.00  0.00    +0.039 C 
ATOM     16  C   UNL     1      33.680  -4.621 -24.435  0.00  0.00    +0.088 C 
ATOM     17  C   UNL     1      31.384  -5.322 -22.766  0.00  0.00    +0.246 C 
ATOM     18  C   UNL     1      32.324  -4.008 -24.687  0.00  0.00    +0.228 C 
ATOM     19  H   UNL     1      30.430  -4.002 -23.971  0.00  0.00    +0.158 HD
ENDBRANCH   2  14
BRANCH   7  20
ATOM     20  O   UNL     1      32.334 -11.454 -22.887  0.00  0.00    -0.471 OA
BRANCH  20  21
ATOM     21  C   UNL     1      33.619 -11.571 -23.500  0.00  0.00    +0.232 C 
BRANCH  21  23
ATOM     22  C   UNL     1      34.684 -15.720 -23.757  0.00  0.00    -0.043 C 
ATOM     23  C   UNL     1      33.989 -13.022 -23.589  0.00  0.00    +0.021 C 
ATOM     24  C   UNL     1      34.942 -15.003 -22.587  0.00  0.00    -0.007 C 
ATOM     25  C   UNL     1      34.079 -15.086 -24.842  0.00  0.00    -0.007 C 
ATOM     26  C   UNL     1      34.595 -13.655 -22.503  0.00  0.00    -0.001 C 
ATOM     27  C   UNL     1      33.731 -13.738 -24.758  0.00  0.00    -0.001 C 
BRANCH  22  28
ATOM     28  C   UNL     1      35.056 -17.161 -23.846  0.00  0.00    -0.050 C 
BRANCH  28  30
ATOM     29  O   UNL     1      36.198 -19.873 -20.853  0.00  0.00    -0.358 OA
ATOM     30  N   UNL     1      35.339 -17.743 -22.535  0.00  0.00    +0.393 N 
ATOM     31  C   UNL     1      34.495 -18.922 -22.296  0.00  0.00    -0.044 C 
ATOM     32  C   UNL     1      36.758 -18.109 -22.423  0.00  0.00    -0.044 C 
ATOM     33  C   UNL     1      37.027 -18.727 -21.053  0.00  0.00    +0.119 C 
ATOM     34  C   UNL     1      34.816 -19.519 -20.929  0.00  0.00    +0.119 C 
ATOM     35  H   UNL     1      35.126 -17.041 -21.828  0.00  0.00    -0.079 HD
ENDBRANCH  28  30
ENDBRANCH  22  28
ENDBRANCH  21  23
ENDBRANCH  20  21
ENDBRANCH   7  20
TORSDOF 6
ENDMDL
MODEL 5
REMARK VINA RESULT:     -11.2      2.597      5.593
REMARK  Name = 67335295
REMARK  6 active torsions:
REMARK  status: ('A' for Active; 'I' for Inactive)
REMARK    1  A    between atoms: N_2  and  C_14
REMARK    2  A    between atoms: C_7  and  O_20
REMARK    3  A    between atoms: O_20  and  C_21
REMARK    4  A    between atoms: C_21  and  C_23
REMARK    5  A    between atoms: C_22  and  C_28
REMARK    6  A    between atoms: C_28  and  N_30
REMARK                            x       y       z     vdW  Elec       q    Type
REMARK                         _______ _______ _______ _____ _____    ______ ____
ROOT
ATOM      1  O   UNL     1      31.879 -23.682 -12.273  0.00  0.00    -0.270 OA
ATOM      2  N   UNL     1      32.069 -23.431 -14.615  0.00  0.00    -0.265 N 
ATOM      3  C   UNL     1      33.154 -23.382 -15.588  0.00  0.00    +0.124 C 
ATOM      4  C   UNL     1      34.354 -23.543 -14.720  0.00  0.00    +0.036 C 
ATOM      5  C   UNL     1      32.513 -23.600 -13.308  0.00  0.00    +0.249 C 
ATOM      6  C   UNL     1      33.977 -23.670 -13.382  0.00  0.00    +0.054 C 
ATOM      7  C   UNL     1      35.690 -23.576 -15.074  0.00  0.00    +0.137 C 
ATOM      8  C   UNL     1      34.892 -23.833 -12.361  0.00  0.00    +0.004 C 
ATOM      9  C   UNL     1      36.638 -23.739 -14.059  0.00  0.00    +0.037 C 
ATOM     10  C   UNL     1      36.242 -23.867 -12.714  0.00  0.00    +0.003 C 
ENDROOT
BRANCH   2  14
ATOM     11  O   UNL     1      30.585 -25.713 -14.667  0.00  0.00    -0.273 OA
ATOM     12  O   UNL     1      27.480 -23.889 -17.536  0.00  0.00    -0.275 OA
ATOM     13  N   UNL     1      29.069 -24.770 -16.119  0.00  0.00    -0.254 N 
ATOM     14  C   UNL     1      30.679 -23.317 -14.970  0.00  0.00    +0.153 C 
ATOM     15  C   UNL     1      30.493 -22.415 -16.180  0.00  0.00    +0.039 C 
ATOM     16  C   UNL     1      29.019 -22.351 -16.538  0.00  0.00    +0.088 C 
ATOM     17  C   UNL     1      30.150 -24.714 -15.238  0.00  0.00    +0.246 C 
ATOM     18  C   UNL     1      28.454 -23.726 -16.803  0.00  0.00    +0.228 C 
ATOM     19  H   UNL     1      28.693 -25.666 -16.275  0.00  0.00    +0.158 HD
ENDBRANCH   2  14
BRANCH   7  20
ATOM     20  O   UNL     1      36.081 -23.451 -16.368  0.00  0.00    -0.471 OA
BRANCH  20  21
ATOM     21  C   UNL     1      36.753 -22.245 -16.733  0.00  0.00    +0.232 C 
BRANCH  21  23
ATOM     22  C   UNL     1      34.806 -20.542 -20.157  0.00  0.00    -0.043 C 
ATOM     23  C   UNL     1      36.072 -21.648 -17.929  0.00  0.00    +0.021 C 
ATOM     24  C   UNL     1      34.074 -21.303 -19.244  0.00  0.00    -0.007 C 
ATOM     25  C   UNL     1      36.170 -20.335 -19.956  0.00  0.00    -0.007 C 
ATOM     26  C   UNL     1      34.707 -21.855 -18.130  0.00  0.00    -0.001 C 
ATOM     27  C   UNL     1      36.803 -20.887 -18.842  0.00  0.00    -0.001 C 
BRANCH  22  28
ATOM     28  C   UNL     1      34.128 -19.952 -21.347  0.00  0.00    -0.050 C 
BRANCH  28  30
ATOM     29  O   UNL     1      35.447 -16.576 -23.465  0.00  0.00    -0.358 OA
ATOM     30  N   UNL     1      34.987 -19.014 -22.067  0.00  0.00    +0.393 N 
ATOM     31  C   UNL     1      34.501 -18.811 -23.439  0.00  0.00    -0.044 C 
ATOM     32  C   UNL     1      35.057 -17.726 -21.363  0.00  0.00    -0.044 C 
ATOM     33  C   UNL     1      35.947 -16.759 -22.139  0.00  0.00    +0.119 C 
ATOM     34  C   UNL     1      35.405 -17.819 -24.166  0.00  0.00    +0.119 C 
ATOM     35  H   UNL     1      35.924 -19.415 -22.108  0.00  0.00    -0.079 HD
ENDBRANCH  28  30
ENDBRANCH  22  28
ENDBRANCH  21  23
ENDBRANCH  20  21
ENDBRANCH   7  20
TORSDOF 6
ENDMDL
MODEL 6
REMARK VINA RESULT:     -11.0      6.969     14.688
REMARK  Name = 67335295
REMARK  6 active torsions:
REMARK  status: ('A' for Active; 'I' for Inactive)
REMARK    1  A    between atoms: N_2  and  C_14
REMARK    2  A    between atoms: C_7  and  O_20
REMARK    3  A    between atoms: O_20  and  C_21
REMARK    4  A    between atoms: C_21  and  C_23
REMARK    5  A    between atoms: C_22  and  C_28
REMARK    6  A    between atoms: C_28  and  N_30
REMARK                            x       y       z     vdW  Elec       q    Type
REMARK                         _______ _______ _______ _____ _____    ______ ____
ROOT
ATOM      1  O   UNL     1      31.888  -7.892 -20.803  0.00  0.00    -0.270 OA
ATOM      2  N   UNL     1      32.612  -8.800 -22.861  0.00  0.00    -0.265 N 
ATOM      3  C   UNL     1      32.908 -10.128 -23.385  0.00  0.00    +0.124 C 
ATOM      4  C   UNL     1      32.636 -10.994 -22.202  0.00  0.00    +0.036 C 
ATOM      5  C   UNL     1      32.207  -8.814 -21.531  0.00  0.00    +0.249 C 
ATOM      6  C   UNL     1      32.225 -10.221 -21.115  0.00  0.00    +0.054 C 
ATOM      7  C   UNL     1      32.740 -12.367 -22.083  0.00  0.00    +0.137 C 
ATOM      8  C   UNL     1      31.906 -10.769 -19.889  0.00  0.00    +0.004 C 
ATOM      9  C   UNL     1      32.424 -12.947 -20.851  0.00  0.00    +0.037 C 
ATOM     10  C   UNL     1      32.010 -12.155 -19.763  0.00  0.00    +0.003 C 
ENDROOT
BRANCH   2  14
ATOM     11  O   UNL     1      34.916  -7.366 -22.645  0.00  0.00    -0.273 OA
ATOM     12  O   UNL     1      32.888  -3.478 -24.048  0.00  0.00    -0.275 OA
ATOM     13  N   UNL     1      33.858  -5.441 -23.329  0.00  0.00    -0.254 N 
ATOM     14  C   UNL     1      32.726  -7.596 -23.641  0.00  0.00    +0.153 C 
ATOM     15  C   UNL     1      31.455  -6.765 -23.559  0.00  0.00    +0.039 C 
ATOM     16  C   UNL     1      31.633  -5.493 -24.368  0.00  0.00    +0.088 C 
ATOM     17  C   UNL     1      33.926  -6.820 -23.129  0.00  0.00    +0.246 C 
ATOM     18  C   UNL     1      32.826  -4.698 -23.892  0.00  0.00    +0.228 C 
ATOM     19  H   UNL     1      34.645  -4.928 -23.033  0.00  0.00    +0.158 HD
ENDBRANCH   2  14
BRANCH   7  20
ATOM     20  O   UNL     1      33.140 -13.139 -23.126  0.00  0.00    -0.471 OA
BRANCH  20  21
ATOM     21  C   UNL     1      34.546 -13.334 -23.292  0.00  0.00    +0.232 C 
BRANCH  21  23
ATOM     22  C   UNL     1      35.481 -17.453 -22.538  0.00  0.00    -0.043 C 
ATOM     23  C   UNL     1      34.875 -14.774 -23.028  0.00  0.00    +0.021 C 
ATOM     24  C   UNL     1      35.342 -16.997 -23.851  0.00  0.00    -0.007 C 
ATOM     25  C   UNL     1      35.316 -16.570 -21.473  0.00  0.00    -0.007 C 
ATOM     26  C   UNL     1      35.039 -15.657 -24.095  0.00  0.00    -0.001 C 
ATOM     27  C   UNL     1      35.013 -15.229 -21.717  0.00  0.00    -0.001 C 
BRANCH  22  28
ATOM     28  C   UNL     1      35.804 -18.885 -22.278  0.00  0.00    -0.050 C 
BRANCH  28  30
ATOM     29  O   UNL     1      33.947 -21.422 -19.497  0.00  0.00    -0.358 OA
ATOM     30  N   UNL     1      35.180 -19.382 -21.053  0.00  0.00    +0.393 N 
ATOM     31  C   UNL     1      33.800 -19.817 -21.310  0.00  0.00    -0.044 C 
ATOM     32  C   UNL     1      35.960 -20.491 -20.484  0.00  0.00    -0.044 C 
ATOM     33  C   UNL     1      35.283 -21.001 -19.214  0.00  0.00    +0.119 C 
ATOM     34  C   UNL     1      33.175 -20.342 -20.021  0.00  0.00    +0.119 C 
ATOM     35  H   UNL     1      35.161 -18.617 -20.379  0.00  0.00    -0.079 HD
ENDBRANCH  28  30
ENDBRANCH  22  28
ENDBRANCH  21  23
ENDBRANCH  20  21
ENDBRANCH   7  20
TORSDOF 6
ENDMDL
MODEL 7
REMARK VINA RESULT:     -10.9      2.177      3.560
REMARK  Name = 67335295
REMARK  6 active torsions:
REMARK  status: ('A' for Active; 'I' for Inactive)
REMARK    1  A    between atoms: N_2  and  C_14
REMARK    2  A    between atoms: C_7  and  O_20
REMARK    3  A    between atoms: O_20  and  C_21
REMARK    4  A    between atoms: C_21  and  C_23
REMARK    5  A    between atoms: C_22  and  C_28
REMARK    6  A    between atoms: C_28  and  N_30
REMARK                            x       y       z     vdW  Elec       q    Type
REMARK                         _______ _______ _______ _____ _____    ______ ____
ROOT
ATOM      1  O   UNL     1      33.699 -23.629 -14.559  0.00  0.00    -0.270 OA
ATOM      2  N   UNL     1      35.782 -23.374 -15.647  0.00  0.00    -0.265 N 
ATOM      3  C   UNL     1      36.250 -22.855 -16.926  0.00  0.00    +0.124 C 
ATOM      4  C   UNL     1      34.975 -22.428 -17.571  0.00  0.00    +0.036 C 
ATOM      5  C   UNL     1      34.403 -23.291 -15.494  0.00  0.00    +0.249 C 
ATOM      6  C   UNL     1      33.892 -22.685 -16.729  0.00  0.00    +0.054 C 
ATOM      7  C   UNL     1      34.773 -21.853 -18.811  0.00  0.00    +0.137 C 
ATOM      8  C   UNL     1      32.589 -22.387 -17.077  0.00  0.00    +0.004 C 
ATOM      9  C   UNL     1      33.463 -21.542 -19.189  0.00  0.00    +0.037 C 
ATOM     10  C   UNL     1      32.381 -21.807 -18.328  0.00  0.00    +0.003 C 
ENDROOT
BRANCH   2  14
ATOM     11  O   UNL     1      36.216 -26.062 -15.666  0.00  0.00    -0.273 OA
ATOM     12  O   UNL     1      37.411 -26.123 -11.220  0.00  0.00    -0.275 OA
ATOM     13  N   UNL     1      36.785 -26.051 -13.437  0.00  0.00    -0.254 N 
ATOM     14  C   UNL     1      36.659 -23.917 -14.643  0.00  0.00    +0.153 C 
ATOM     15  C   UNL     1      36.350 -23.337 -13.271  0.00  0.00    +0.039 C 
ATOM     16  C   UNL     1      37.275 -23.962 -12.242  0.00  0.00    +0.088 C 
ATOM     17  C   UNL     1      36.499 -25.427 -14.651  0.00  0.00    +0.246 C 
ATOM     18  C   UNL     1      37.151 -25.466 -12.228  0.00  0.00    +0.228 C 
ATOM     19  H   UNL     1      36.720 -27.033 -13.436  0.00  0.00    +0.158 HD
ENDBRANCH   2  14
BRANCH   7  20
ATOM     20  O   UNL     1      35.811 -21.596 -19.648  0.00  0.00    -0.471 OA
BRANCH  20  21
ATOM     21  C   UNL     1      36.421 -20.308 -19.555  0.00  0.00    +0.232 C 
BRANCH  21  23
ATOM     22  C   UNL     1      35.595 -18.100 -23.141  0.00  0.00    -0.043 C 
ATOM     23  C   UNL     1      36.133 -19.538 -20.810  0.00  0.00    +0.021 C 
ATOM     24  C   UNL     1      36.837 -17.977 -22.515  0.00  0.00    -0.007 C 
ATOM     25  C   UNL     1      34.623 -18.942 -22.601  0.00  0.00    -0.007 C 
ATOM     26  C   UNL     1      37.105 -18.695 -21.350  0.00  0.00    -0.001 C 
ATOM     27  C   UNL     1      34.892 -19.661 -21.436  0.00  0.00    -0.001 C 
BRANCH  22  28
ATOM     28  C   UNL     1      35.309 -17.332 -24.386  0.00  0.00    -0.050 C 
BRANCH  28  30
ATOM     29  O   UNL     1      33.616 -13.682 -23.188  0.00  0.00    -0.358 OA
ATOM     30  N   UNL     1      35.127 -15.904 -24.129  0.00  0.00    +0.393 N 
ATOM     31  C   UNL     1      33.978 -15.382 -24.882  0.00  0.00    -0.044 C 
ATOM     32  C   UNL     1      34.944 -15.653 -22.692  0.00  0.00    -0.044 C 
ATOM     33  C   UNL     1      34.743 -14.159 -22.449  0.00  0.00    +0.119 C 
ATOM     34  C   UNL     1      33.801 -13.895 -24.588  0.00  0.00    +0.119 C 
ATOM     35  H   UNL     1      35.969 -15.420 -24.440  0.00  0.00    -0.079 HD
ENDBRANCH  28  30
ENDBRANCH  22  28
ENDBRANCH  21  23
ENDBRANCH  20  21
ENDBRANCH   7  20
TORSDOF 6
ENDMDL
MODEL 8
REMARK VINA RESULT:     -10.9      3.057     12.014
REMARK  Name = 67335295
REMARK  6 active torsions:
REMARK  status: ('A' for Active; 'I' for Inactive)
REMARK    1  A    between atoms: N_2  and  C_14
REMARK    2  A    between atoms: C_7  and  O_20
REMARK    3  A    between atoms: O_20  and  C_21
REMARK    4  A    between atoms: C_21  and  C_23
REMARK    5  A    between atoms: C_22  and  C_28
REMARK    6  A    between atoms: C_28  and  N_30
REMARK                            x       y       z     vdW  Elec       q    Type
REMARK                         _______ _______ _______ _____ _____    ______ ____
ROOT
ATOM      1  O   UNL     1      33.999 -15.058 -25.228  0.00  0.00    -0.270 OA
ATOM      2  N   UNL     1      34.728 -14.876 -22.988  0.00  0.00    -0.265 N 
ATOM      3  C   UNL     1      35.204 -15.787 -21.954  0.00  0.00    +0.124 C 
ATOM      4  C   UNL     1      35.151 -17.102 -22.653  0.00  0.00    +0.036 C 
ATOM      5  C   UNL     1      34.415 -15.518 -24.181  0.00  0.00    +0.249 C 
ATOM      6  C   UNL     1      34.687 -16.943 -23.959  0.00  0.00    +0.054 C 
ATOM      7  C   UNL     1      35.485 -18.357 -22.179  0.00  0.00    +0.137 C 
ATOM      8  C   UNL     1      34.540 -18.002 -24.833  0.00  0.00    +0.004 C 
ATOM      9  C   UNL     1      35.345 -19.447 -23.044  0.00  0.00    +0.037 C 
ATOM     10  C   UNL     1      34.876 -19.271 -24.360  0.00  0.00    +0.003 C 
ENDROOT
BRANCH   2  14
ATOM     11  O   UNL     1      33.150 -14.019 -20.942  0.00  0.00    -0.273 OA
ATOM     12  O   UNL     1      32.457  -9.912 -22.905  0.00  0.00    -0.275 OA
ATOM     13  N   UNL     1      32.812 -11.988 -21.969  0.00  0.00    -0.254 N 
ATOM     14  C   UNL     1      34.596 -13.456 -22.795  0.00  0.00    +0.153 C 
ATOM     15  C   UNL     1      34.361 -12.741 -24.116  0.00  0.00    +0.039 C 
ATOM     16  C   UNL     1      34.195 -11.254 -23.860  0.00  0.00    +0.088 C 
ATOM     17  C   UNL     1      33.449 -13.221 -21.830  0.00  0.00    +0.246 C 
ATOM     18  C   UNL     1      33.067 -10.981 -22.895  0.00  0.00    +0.228 C 
ATOM     19  H   UNL     1      32.088 -11.807 -21.327  0.00  0.00    +0.158 HD
ENDBRANCH   2  14
BRANCH   7  20
ATOM     20  O   UNL     1      35.936 -18.537 -20.911  0.00  0.00    -0.471 OA
BRANCH  20  21
ATOM     21  C   UNL     1      36.815 -19.639 -20.682  0.00  0.00    +0.232 C 
BRANCH  21  23
ATOM     22  C   UNL     1      35.143 -22.141 -17.621  0.00  0.00    -0.043 C 
ATOM     23  C   UNL     1      36.231 -20.516 -19.613  0.00  0.00    +0.021 C 
ATOM     24  C   UNL     1      34.379 -21.799 -18.739  0.00  0.00    -0.007 C 
ATOM     25  C   UNL     1      36.450 -21.669 -17.500  0.00  0.00    -0.007 C 
ATOM     26  C   UNL     1      34.924 -20.987 -19.734  0.00  0.00    -0.001 C 
ATOM     27  C   UNL     1      36.994 -20.857 -18.496  0.00  0.00    -0.001 C 
BRANCH  22  28
ATOM     28  C   UNL     1      34.561 -23.008 -16.558  0.00  0.00    -0.050 C 
BRANCH  28  30
ATOM     29  O   UNL     1      36.355 -24.688 -13.155  0.00  0.00    -0.358 OA
ATOM     30  N   UNL     1      35.569 -23.476 -15.608  0.00  0.00    +0.393 N 
ATOM     31  C   UNL     1      35.445 -22.768 -14.326  0.00  0.00    -0.044 C 
ATOM     32  C   UNL     1      35.453 -24.926 -15.396  0.00  0.00    -0.044 C 
ATOM     33  C   UNL     1      36.505 -25.388 -14.392  0.00  0.00    +0.119 C 
ATOM     34  C   UNL     1      36.498 -23.281 -13.349  0.00  0.00    +0.119 C 
ATOM     35  H   UNL     1      36.488 -23.277 -16.003  0.00  0.00    -0.079 HD
ENDBRANCH  28  30
ENDBRANCH  22  28
ENDBRANCH  21  23
ENDBRANCH  20  21
ENDBRANCH   7  20
TORSDOF 6
ENDMDL
MODEL 9
REMARK VINA RESULT:     -10.4      2.972      5.714
REMARK  Name = 67335295
REMARK  6 active torsions:
REMARK  status: ('A' for Active; 'I' for Inactive)
REMARK    1  A    between atoms: N_2  and  C_14
REMARK    2  A    between atoms: C_7  and  O_20
REMARK    3  A    between atoms: O_20  and  C_21
REMARK    4  A    between atoms: C_21  and  C_23
REMARK    5  A    between atoms: C_22  and  C_28
REMARK    6  A    between atoms: C_28  and  N_30
REMARK                            x       y       z     vdW  Elec       q    Type
REMARK                         _______ _______ _______ _____ _____    ______ ____
ROOT
ATOM      1  O   UNL     1      33.987 -24.392 -14.253  0.00  0.00    -0.270 OA
ATOM      2  N   UNL     1      33.131 -23.322 -16.179  0.00  0.00    -0.265 N 
ATOM      3  C   UNL     1      33.664 -22.490 -17.251  0.00  0.00    +0.124 C 
ATOM      4  C   UNL     1      35.105 -22.396 -16.881  0.00  0.00    +0.036 C 
ATOM      5  C   UNL     1      34.094 -23.706 -15.254  0.00  0.00    +0.249 C 
ATOM      6  C   UNL     1      35.356 -23.110 -15.709  0.00  0.00    +0.054 C 
ATOM      7  C   UNL     1      36.131 -21.731 -17.526  0.00  0.00    +0.137 C 
ATOM      8  C   UNL     1      36.611 -23.192 -15.139  0.00  0.00    +0.004 C 
ATOM      9  C   UNL     1      37.412 -21.797 -16.970  0.00  0.00    +0.037 C 
ATOM     10  C   UNL     1      37.650 -22.521 -15.786  0.00  0.00    +0.003 C 
ENDROOT
BRANCH   2  14
ATOM     11  O   UNL     1      31.317 -21.872 -17.601  0.00  0.00    -0.273 OA
ATOM     12  O   UNL     1      27.839 -23.116 -14.852  0.00  0.00    -0.275 OA
ATOM     13  N   UNL     1      29.612 -22.500 -16.189  0.00  0.00    -0.254 N 
ATOM     14  C   UNL     1      31.747 -23.707 -16.087  0.00  0.00    +0.153 C 
ATOM     15  C   UNL     1      31.346 -23.980 -14.646  0.00  0.00    +0.039 C 
ATOM     16  C   UNL     1      29.875 -24.349 -14.594  0.00  0.00    +0.088 C 
ATOM     17  C   UNL     1      30.911 -22.592 -16.689  0.00  0.00    +0.246 C 
ATOM     18  C   UNL     1      29.012 -23.265 -15.194  0.00  0.00    +0.228 C 
ATOM     19  H   UNL     1      29.047 -21.804 -16.595  0.00  0.00    +0.158 HD
ENDBRANCH   2  14
BRANCH   7  20
ATOM     20  O   UNL     1      35.910 -21.029 -18.667  0.00  0.00    -0.471 OA
BRANCH  20  21
ATOM     21  C   UNL     1      37.058 -20.570 -19.383  0.00  0.00    +0.232 C 
BRANCH  21  23
ATOM     22  C   UNL     1      35.767 -18.307 -22.793  0.00  0.00    -0.043 C 
ATOM     23  C   UNL     1      36.607 -19.780 -20.577  0.00  0.00    +0.021 C 
ATOM     24  C   UNL     1      37.101 -18.257 -22.386  0.00  0.00    -0.007 C 
ATOM     25  C   UNL     1      34.854 -19.094 -22.092  0.00  0.00    -0.007 C 
ATOM     26  C   UNL     1      37.521 -18.993 -21.277  0.00  0.00    -0.001 C 
ATOM     27  C   UNL     1      35.274 -19.831 -20.984  0.00  0.00    -0.001 C 
BRANCH  22  28
ATOM     28  C   UNL     1      35.319 -17.520 -23.977  0.00  0.00    -0.050 C 
BRANCH  28  30
ATOM     29  O   UNL     1      34.328 -13.492 -23.336  0.00  0.00    -0.358 OA
ATOM     30  N   UNL     1      34.584 -16.315 -23.598  0.00  0.00    +0.393 N 
ATOM     31  C   UNL     1      35.305 -15.571 -22.556  0.00  0.00    -0.044 C 
ATOM     32  C   UNL     1      34.357 -15.453 -24.766  0.00  0.00    -0.044 C 
ATOM     33  C   UNL     1      33.600 -14.197 -24.344  0.00  0.00    +0.119 C 
ATOM     34  C   UNL     1      34.525 -14.313 -22.185  0.00  0.00    +0.119 C 
ATOM     35  H   UNL     1      33.679 -16.604 -23.225  0.00  0.00    -0.079 HD
ENDBRANCH  28  30
ENDBRANCH  22  28
ENDBRANCH  21  23
ENDBRANCH  20  21
ENDBRANCH   7  20
TORSDOF 6
ENDMDL
