MODEL 1
REMARK VINA RESULT:     -11.9      0.000      0.000
REMARK  Name = 10224714
REMARK  8 active torsions:
REMARK  status: ('A' for Active; 'I' for Inactive)
REMARK    1  A    between atoms: N_1  and  C_12
REMARK    2  A    between atoms: N_2  and  CA_30
REMARK    3  A    between atoms: N_15  and  C_17
REMARK    4  A    between atoms: C_17  and  C_18
REMARK    5  A    between atoms: C_21  and  C_25
REMARK    6  A    between atoms: CA_30  and  C_31
REMARK    7  A    between atoms: CA_30  and  C_33
REMARK    8  A    between atoms: C_33  and  O_34
REMARK                            x       y       z     vdW  Elec       q    Type
REMARK                         _______ _______ _______ _____ _____    ______ ____
ROOT
ATOM      1  N   UNL     1      31.615 -23.960 -15.095  0.00  0.00    -0.262 N 
ATOM      2  N   UNL     1      36.278 -23.939 -14.192  0.00  0.00    -0.258 N 
ATOM      3  N   UNL     1      33.955 -24.044 -14.451  0.00  0.00    -0.311 NA
ATOM      4  N   UNL     1      31.800 -22.965 -17.081  0.00  0.00    -0.240 NA
ATOM      5  N   UNL     1      35.382 -23.057 -16.168  0.00  0.00    -0.311 NA
ATOM      6  C   UNL     1      32.949 -23.735 -15.282  0.00  0.00    +0.220 C 
ATOM      7  C   UNL     1      33.042 -23.117 -16.519  0.00  0.00    +0.167 C 
ATOM      8  C   UNL     1      34.317 -22.774 -16.956  0.00  0.00    +0.215 C 
ATOM      9  C   UNL     1      35.165 -23.671 -14.964  0.00  0.00    +0.202 C 
ATOM     10  C   UNL     1      30.966 -23.480 -16.202  0.00  0.00    +0.222 C 
ATOM     11  H   UNL     1      37.162 -23.680 -14.542  0.00  0.00    +0.160 HD
ATOM     12  N   UNL     1      34.506 -22.143 -18.198  0.00  0.00    -0.302 N 
ATOM     13  H   UNL     1      33.714 -21.950 -18.752  0.00  0.00    +0.150 HD
ENDROOT
BRANCH   1  14
ATOM     14  C   UNL     1      30.996 -24.585 -13.951  0.00  0.00    +0.077 C 
ATOM     15  C   UNL     1      30.839 -23.611 -12.782  0.00  0.00    +0.022 C 
ATOM     16  C   UNL     1      29.667 -25.251 -14.311  0.00  0.00    +0.022 C 
ENDBRANCH   1  14
BRANCH  12  17
ATOM     17  C   UNL     1      35.796 -21.769 -18.697  0.00  0.00    +0.116 C 
BRANCH  17  18
ATOM     18  C   UNL     1      35.666 -20.687 -19.734  0.00  0.00    -0.003 C 
ATOM     19  C   UNL     1      36.792 -19.975 -20.126  0.00  0.00    -0.003 C 
ATOM     20  C   UNL     1      34.422 -20.413 -20.285  0.00  0.00    -0.003 C 
ATOM     21  C   UNL     1      35.426 -18.688 -21.646  0.00  0.00    +0.018 C 
ATOM     22  C   UNL     1      36.671 -18.971 -21.086  0.00  0.00    +0.001 C 
ATOM     23  C   UNL     1      34.301 -19.408 -21.246  0.00  0.00    +0.001 C 
BRANCH  21  25
ATOM     24  N   UNL     1      35.395 -16.387 -22.163  0.00  0.00    -0.244 NA
ATOM     25  C   UNL     1      35.302 -17.646 -22.643  0.00  0.00    +0.081 C 
ATOM     26  C   UNL     1      35.101 -17.960 -23.976  0.00  0.00    +0.019 C 
ATOM     27  C   UNL     1      34.990 -16.910 -24.880  0.00  0.00    +0.003 C 
ATOM     28  C   UNL     1      35.283 -15.392 -23.072  0.00  0.00    +0.099 C 
ATOM     29  C   UNL     1      35.082 -15.598 -24.428  0.00  0.00    +0.021 C 
ENDBRANCH  21  25
ENDBRANCH  17  18
ENDBRANCH  12  17
BRANCH   2  30
ATOM     30  CA  UNL     1      36.216 -24.580 -12.892  0.00  0.00    +0.109 C 
BRANCH  30  31
ATOM     31  C   UNL     1      36.243 -23.519 -11.785  0.00  0.00    +0.023 C 
ATOM     32  C   UNL     1      37.588 -22.812 -11.680  0.00  0.00    +0.002 C 
ENDBRANCH  30  31
BRANCH  30  33
ATOM     33  C   UNL     1      37.402 -25.536 -12.759  0.00  0.00    +0.157 C 
BRANCH  33  34
ATOM     34  O   UNL     1      37.225 -26.349 -11.603  0.00  0.00    -0.380 OA
ATOM     35  H   UNL     1      36.310 -26.667 -11.568  0.00  0.00    +0.211 HD
ENDBRANCH  33  34
ENDBRANCH  30  33
ENDBRANCH   2  30
TORSDOF 8
ENDMDL
MODEL 2
REMARK VINA RESULT:     -10.5      1.501      4.196
REMARK  Name = 10224714
REMARK  8 active torsions:
REMARK  status: ('A' for Active; 'I' for Inactive)
REMARK    1  A    between atoms: N_1  and  C_12
REMARK    2  A    between atoms: N_2  and  CA_30
REMARK    3  A    between atoms: N_15  and  C_17
REMARK    4  A    between atoms: C_17  and  C_18
REMARK    5  A    between atoms: C_21  and  C_25
REMARK    6  A    between atoms: CA_30  and  C_31
REMARK    7  A    between atoms: CA_30  and  C_33
REMARK    8  A    between atoms: C_33  and  O_34
REMARK                            x       y       z     vdW  Elec       q    Type
REMARK                         _______ _______ _______ _____ _____    ______ ____
ROOT
ATOM      1  N   UNL     1      36.545 -23.142 -13.600  0.00  0.00    -0.262 N 
ATOM      2  N   UNL     1      31.992 -23.859 -14.750  0.00  0.00    -0.258 N 
ATOM      3  N   UNL     1      34.184 -23.562 -13.988  0.00  0.00    -0.311 NA
ATOM      4  N   UNL     1      37.165 -22.521 -15.650  0.00  0.00    -0.240 NA
ATOM      5  N   UNL     1      33.581 -23.142 -16.315  0.00  0.00    -0.311 NA
ATOM      6  C   UNL     1      35.419 -23.204 -14.371  0.00  0.00    +0.220 C 
ATOM      7  C   UNL     1      35.825 -22.816 -15.637  0.00  0.00    +0.167 C 
ATOM      8  C   UNL     1      34.851 -22.793 -16.630  0.00  0.00    +0.215 C 
ATOM      9  C   UNL     1      33.299 -23.508 -15.027  0.00  0.00    +0.202 C 
ATOM     10  C   UNL     1      37.567 -22.728 -14.413  0.00  0.00    +0.222 C 
ATOM     11  H   UNL     1      31.336 -23.826 -15.483  0.00  0.00    +0.160 HD
ATOM     12  N   UNL     1      35.173 -22.413 -17.945  0.00  0.00    -0.302 N 
ATOM     13  H   UNL     1      36.105 -22.163 -18.146  0.00  0.00    +0.150 HD
ENDROOT
BRANCH   1  14
ATOM     14  C   UNL     1      36.649 -23.452 -12.195  0.00  0.00    +0.077 C 
ATOM     15  C   UNL     1      36.755 -24.958 -11.947  0.00  0.00    +0.022 C 
ATOM     16  C   UNL     1      37.791 -22.689 -11.523  0.00  0.00    +0.022 C 
ENDBRANCH   1  14
BRANCH  12  17
ATOM     17  C   UNL     1      34.210 -22.371 -19.005  0.00  0.00    +0.116 C 
BRANCH  17  18
ATOM     18  C   UNL     1      34.428 -21.157 -19.867  0.00  0.00    -0.003 C 
ATOM     19  C   UNL     1      33.334 -20.482 -20.390  0.00  0.00    -0.003 C 
ATOM     20  C   UNL     1      35.723 -20.728 -20.129  0.00  0.00    -0.003 C 
ATOM     21  C   UNL     1      34.832 -18.918 -21.459  0.00  0.00    +0.018 C 
ATOM     22  C   UNL     1      33.536 -19.358 -21.190  0.00  0.00    +0.001 C 
ATOM     23  C   UNL     1      35.925 -19.602 -20.929  0.00  0.00    +0.001 C 
BRANCH  21  25
ATOM     24  N   UNL     1      35.144 -16.586 -21.613  0.00  0.00    -0.244 NA
ATOM     25  C   UNL     1      35.041 -17.751 -22.288  0.00  0.00    +0.081 C 
ATOM     26  C   UNL     1      35.123 -17.864 -23.665  0.00  0.00    +0.019 C 
ATOM     27  C   UNL     1      35.325 -16.701 -24.400  0.00  0.00    +0.003 C 
ATOM     28  C   UNL     1      35.340 -15.477 -22.361  0.00  0.00    +0.099 C 
ATOM     29  C   UNL     1      35.437 -15.481 -23.743  0.00  0.00    +0.021 C 
ENDBRANCH  21  25
ENDBRANCH  17  18
ENDBRANCH  12  17
BRANCH   2  30
ATOM     30  CA  UNL     1      31.534 -24.273 -13.437  0.00  0.00    +0.109 C 
BRANCH  30  31
ATOM     31  C   UNL     1      30.324 -25.204 -13.577  0.00  0.00    +0.023 C 
ATOM     32  C   UNL     1      29.573 -25.000 -14.886  0.00  0.00    +0.002 C 
ENDBRANCH  30  31
BRANCH  30  33
ATOM     33  C   UNL     1      31.174 -23.028 -12.627  0.00  0.00    +0.157 C 
BRANCH  33  34
ATOM     34  O   UNL     1      32.347 -22.513 -12.005  0.00  0.00    -0.380 OA
ATOM     35  H   UNL     1      32.609 -23.098 -11.277  0.00  0.00    +0.211 HD
ENDBRANCH  33  34
ENDBRANCH  30  33
ENDBRANCH   2  30
TORSDOF 8
ENDMDL
MODEL 3
REMARK VINA RESULT:     -10.4      1.391      2.055
REMARK  Name = 10224714
REMARK  8 active torsions:
REMARK  status: ('A' for Active; 'I' for Inactive)
REMARK    1  A    between atoms: N_1  and  C_12
REMARK    2  A    between atoms: N_2  and  CA_30
REMARK    3  A    between atoms: N_15  and  C_17
REMARK    4  A    between atoms: C_17  and  C_18
REMARK    5  A    between atoms: C_21  and  C_25
REMARK    6  A    between atoms: CA_30  and  C_31
REMARK    7  A    between atoms: CA_30  and  C_33
REMARK    8  A    between atoms: C_33  and  O_34
REMARK                            x       y       z     vdW  Elec       q    Type
REMARK                         _______ _______ _______ _____ _____    ______ ____
ROOT
ATOM      1  N   UNL     1      33.185 -23.867 -14.879  0.00  0.00    -0.262 N 
ATOM      2  N   UNL     1      37.928 -24.039 -15.072  0.00  0.00    -0.258 N 
ATOM      3  N   UNL     1      35.604 -24.071 -14.803  0.00  0.00    -0.311 NA
ATOM      4  N   UNL     1      32.962 -22.642 -16.728  0.00  0.00    -0.240 NA
ATOM      5  N   UNL     1      36.650 -22.908 -16.677  0.00  0.00    -0.311 NA
ATOM      6  C   UNL     1      34.451 -23.644 -15.340  0.00  0.00    +0.220 C 
ATOM      7  C   UNL     1      34.290 -22.883 -16.486  0.00  0.00    +0.167 C 
ATOM      8  C   UNL     1      35.449 -22.513 -17.163  0.00  0.00    +0.215 C 
ATOM      9  C   UNL     1      36.682 -23.660 -15.533  0.00  0.00    +0.202 C 
ATOM     10  C   UNL     1      32.325 -23.245 -15.745  0.00  0.00    +0.222 C 
ATOM     11  H   UNL     1      38.720 -23.756 -15.584  0.00  0.00    +0.160 HD
ATOM     12  N   UNL     1      35.381 -21.739 -18.334  0.00  0.00    -0.302 N 
ATOM     13  H   UNL     1      34.494 -21.466 -18.666  0.00  0.00    +0.150 HD
ENDROOT
BRANCH   1  14
ATOM     14  C   UNL     1      32.812 -24.615 -13.703  0.00  0.00    +0.077 C 
ATOM     15  C   UNL     1      33.221 -23.897 -12.414  0.00  0.00    +0.022 C 
ATOM     16  C   UNL     1      31.325 -24.974 -13.699  0.00  0.00    +0.022 C 
ENDBRANCH   1  14
BRANCH  12  17
ATOM     17  C   UNL     1      36.540 -21.331 -19.070  0.00  0.00    +0.116 C 
BRANCH  17  18
ATOM     18  C   UNL     1      36.188 -20.245 -20.050  0.00  0.00    -0.003 C 
ATOM     19  C   UNL     1      34.911 -20.202 -20.595  0.00  0.00    -0.003 C 
ATOM     20  C   UNL     1      37.144 -19.301 -20.398  0.00  0.00    -0.003 C 
ATOM     21  C   UNL     1      35.538 -18.242 -21.860  0.00  0.00    +0.018 C 
ATOM     22  C   UNL     1      34.585 -19.197 -21.504  0.00  0.00    +0.001 C 
ATOM     23  C   UNL     1      36.817 -18.294 -21.307  0.00  0.00    +0.001 C 
BRANCH  21  25
ATOM     24  N   UNL     1      34.759 -17.637 -24.002  0.00  0.00    -0.244 NA
ATOM     25  C   UNL     1      35.198 -17.199 -22.802  0.00  0.00    +0.081 C 
ATOM     26  C   UNL     1      35.330 -15.863 -22.461  0.00  0.00    +0.019 C 
ATOM     27  C   UNL     1      34.986 -14.913 -23.415  0.00  0.00    +0.003 C 
ATOM     28  C   UNL     1      34.434 -16.685 -24.904  0.00  0.00    +0.099 C 
ATOM     29  C   UNL     1      34.528 -15.323 -24.663  0.00  0.00    +0.021 C 
ENDBRANCH  21  25
ENDBRANCH  17  18
ENDBRANCH  12  17
BRANCH   2  30
ATOM     30  CA  UNL     1      38.132 -24.832 -13.875  0.00  0.00    +0.109 C 
BRANCH  30  31
ATOM     31  C   UNL     1      39.566 -24.647 -13.365  0.00  0.00    +0.023 C 
ATOM     32  C   UNL     1      40.534 -25.671 -13.944  0.00  0.00    +0.002 C 
ENDBRANCH  30  31
BRANCH  30  33
ATOM     33  C   UNL     1      37.856 -26.299 -14.205  0.00  0.00    +0.157 C 
BRANCH  33  34
ATOM     34  O   UNL     1      36.700 -26.734 -13.495  0.00  0.00    -0.380 OA
ATOM     35  H   UNL     1      36.958 -27.033 -12.609  0.00  0.00    +0.211 HD
ENDBRANCH  33  34
ENDBRANCH  30  33
ENDBRANCH   2  30
TORSDOF 8
ENDMDL
MODEL 4
REMARK VINA RESULT:      -9.1      3.663      8.729
REMARK  Name = 10224714
REMARK  8 active torsions:
REMARK  status: ('A' for Active; 'I' for Inactive)
REMARK    1  A    between atoms: N_1  and  C_12
REMARK    2  A    between atoms: N_2  and  CA_30
REMARK    3  A    between atoms: N_15  and  C_17
REMARK    4  A    between atoms: C_17  and  C_18
REMARK    5  A    between atoms: C_21  and  C_25
REMARK    6  A    between atoms: CA_30  and  C_31
REMARK    7  A    between atoms: CA_30  and  C_33
REMARK    8  A    between atoms: C_33  and  O_34
REMARK                            x       y       z     vdW  Elec       q    Type
REMARK                         _______ _______ _______ _____ _____    ______ ____
ROOT
ATOM      1  N   UNL     1      31.557 -23.922 -14.924  0.00  0.00    -0.262 N 
ATOM      2  N   UNL     1      35.127 -22.418 -17.674  0.00  0.00    -0.258 N 
ATOM      3  N   UNL     1      33.245 -23.144 -16.488  0.00  0.00    -0.311 NA
ATOM      4  N   UNL     1      32.796 -24.092 -13.078  0.00  0.00    -0.240 NA
ATOM      5  N   UNL     1      35.418 -22.912 -15.403  0.00  0.00    -0.311 NA
ATOM      6  C   UNL     1      32.820 -23.542 -15.280  0.00  0.00    +0.220 C 
ATOM      7  C   UNL     1      33.572 -23.656 -14.122  0.00  0.00    +0.167 C 
ATOM      8  C   UNL     1      34.920 -23.323 -14.212  0.00  0.00    +0.215 C 
ATOM      9  C   UNL     1      34.576 -22.840 -16.479  0.00  0.00    +0.202 C 
ATOM     10  C   UNL     1      31.593 -24.243 -13.593  0.00  0.00    +0.222 C 
ATOM     11  H   UNL     1      36.085 -22.191 -17.691  0.00  0.00    +0.160 HD
ATOM     12  N   UNL     1      35.758 -23.409 -13.087  0.00  0.00    -0.302 N 
ATOM     13  H   UNL     1      35.370 -23.710 -12.234  0.00  0.00    +0.150 HD
ENDROOT
BRANCH   1  14
ATOM     14  C   UNL     1      30.397 -23.976 -15.781  0.00  0.00    +0.077 C 
ATOM     15  C   UNL     1      29.303 -24.878 -15.206  0.00  0.00    +0.022 C 
ATOM     16  C   UNL     1      29.863 -22.582 -16.111  0.00  0.00    +0.022 C 
ENDBRANCH   1  14
BRANCH  12  17
ATOM     17  C   UNL     1      37.152 -23.079 -13.124  0.00  0.00    +0.116 C 
BRANCH  17  18
ATOM     18  C   UNL     1      37.946 -24.207 -13.725  0.00  0.00    -0.003 C 
ATOM     19  C   UNL     1      37.757 -25.501 -13.260  0.00  0.00    -0.003 C 
ATOM     20  C   UNL     1      38.858 -23.938 -14.736  0.00  0.00    -0.003 C 
ATOM     21  C   UNL     1      39.412 -26.288 -14.833  0.00  0.00    +0.018 C 
ATOM     22  C   UNL     1      38.493 -26.546 -13.816  0.00  0.00    +0.001 C 
ATOM     23  C   UNL     1      39.594 -24.985 -15.294  0.00  0.00    +0.001 C 
BRANCH  21  25
ATOM     24  N   UNL     1      41.296 -27.702 -14.734  0.00  0.00    -0.244 NA
ATOM     25  C   UNL     1      40.175 -27.373 -15.411  0.00  0.00    +0.081 C 
ATOM     26  C   UNL     1      39.753 -27.998 -16.572  0.00  0.00    +0.019 C 
ATOM     27  C   UNL     1      40.535 -29.034 -17.071  0.00  0.00    +0.003 C 
ATOM     28  C   UNL     1      42.031 -28.713 -15.250  0.00  0.00    +0.099 C 
ATOM     29  C   UNL     1      41.697 -29.404 -16.404  0.00  0.00    +0.021 C 
ENDBRANCH  21  25
ENDBRANCH  17  18
ENDBRANCH  12  17
BRANCH   2  30
ATOM     30  CA  UNL     1      34.369 -22.291 -18.905  0.00  0.00    +0.109 C 
BRANCH  30  31
ATOM     31  C   UNL     1      35.288 -21.810 -20.034  0.00  0.00    +0.023 C 
ATOM     32  C   UNL     1      36.422 -20.925 -19.534  0.00  0.00    +0.002 C 
ENDBRANCH  30  31
BRANCH  30  33
ATOM     33  C   UNL     1      33.223 -21.306 -18.677  0.00  0.00    +0.157 C 
BRANCH  33  34
ATOM     34  O   UNL     1      32.672 -20.925 -19.933  0.00  0.00    -0.380 OA
ATOM     35  H   UNL     1      31.790 -20.543 -19.797  0.00  0.00    +0.211 HD
ENDBRANCH  33  34
ENDBRANCH  30  33
ENDBRANCH   2  30
TORSDOF 8
ENDMDL
