MODEL 1
REMARK VINA RESULT:     -11.6      0.000      0.000
REMARK  Name = 42628063
REMARK  6 active torsions:
REMARK  status: ('A' for Active; 'I' for Inactive)
REMARK    1  A    between atoms: C_1  and  N_3
REMARK    2  A    between atoms: C_1  and  C_21
REMARK    3  A    between atoms: C_4  and  N_10
REMARK    4  A    between atoms: C_11  and  C_15
REMARK    5  A    between atoms: N_20  and  C_24
REMARK    6  A    between atoms: C_27  and  N_31
REMARK                            x       y       z     vdW  Elec       q    Type
REMARK                         _______ _______ _______ _____ _____    ______ ____
ROOT
ATOM      1  C   UNL     1      34.222 -17.152 -24.438  0.00  0.00    +0.010 C 
ENDROOT
BRANCH   1   3
ATOM      2  F   UNL     1      37.403 -18.104 -21.434  0.00  0.00    -0.238 F 
ATOM      3  N   UNL     1      35.113 -17.861 -23.532  0.00  0.00    +0.396 N 
ATOM      4  C   UNL     1      35.470 -19.379 -21.817  0.00  0.00    +0.082 C 
ATOM      5  C   UNL     1      36.045 -18.034 -21.383  0.00  0.00    +0.156 C 
ATOM      6  C   UNL     1      34.475 -19.025 -22.916  0.00  0.00    -0.054 C 
ATOM      7  C   UNL     1      35.554 -17.024 -22.411  0.00  0.00    -0.039 C 
ATOM      8  H   UNL     1      35.898 -18.135 -24.122  0.00  0.00    -0.079 HD
BRANCH   4  10
ATOM      9  O   UNL     1      36.783 -21.083 -19.916  0.00  0.00    -0.270 OA
ATOM     10  N   UNL     1      34.851 -20.098 -20.739  0.00  0.00    -0.302 N 
ATOM     11  C   UNL     1      35.569 -20.905 -19.863  0.00  0.00    +0.252 C 
ATOM     12  H   UNL     1      33.878 -20.017 -20.615  0.00  0.00    +0.150 HD
BRANCH  11  15
ATOM     13 CL   UNL     1      34.101 -23.552 -15.234  0.00  0.00    -0.075 Cl
ATOM     14  S   UNL     1      35.570 -22.154 -17.402  0.00  0.00    -0.071 S 
ATOM     15  C   UNL     1      34.778 -21.601 -18.816  0.00  0.00    +0.084 C 
ATOM     16  C   UNL     1      33.431 -21.887 -18.799  0.00  0.00    +0.012 C 
ATOM     17  C   UNL     1      33.043 -22.571 -17.611  0.00  0.00    +0.019 C 
ATOM     18  C   UNL     1      34.110 -22.779 -16.763  0.00  0.00    +0.087 C 
ENDBRANCH  11  15
ENDBRANCH   4  10
ENDBRANCH   1   3
BRANCH   1  21
ATOM     19  O   UNL     1      35.740 -15.366 -25.009  0.00  0.00    -0.277 OA
ATOM     20  N   UNL     1      33.660 -14.863 -24.043  0.00  0.00    -0.284 N 
ATOM     21  C   UNL     1      34.657 -15.700 -24.540  0.00  0.00    +0.205 C 
ATOM     22  H   UNL     1      32.847 -15.306 -23.709  0.00  0.00    +0.155 HD
BRANCH  20  24
ATOM     23  F   UNL     1      33.067 -13.528 -21.669  0.00  0.00    -0.203 F 
ATOM     24  C   UNL     1      33.680 -13.450 -23.964  0.00  0.00    +0.078 C 
ATOM     25  C   UNL     1      33.378 -12.812 -22.760  0.00  0.00    +0.155 C 
ATOM     26  C   UNL     1      34.001 -12.695 -25.092  0.00  0.00    +0.018 C 
ATOM     27  C   UNL     1      33.721 -10.665 -23.812  0.00  0.00    +0.061 C 
ATOM     28  C   UNL     1      33.399 -11.420 -22.684  0.00  0.00    +0.046 C 
ATOM     29  C   UNL     1      34.022 -11.302 -25.015  0.00  0.00    +0.017 C 
BRANCH  27  31
ATOM     30  O   UNL     1      36.086  -9.014 -24.022  0.00  0.00    -0.269 OA
ATOM     31  N   UNL     1      33.742  -9.217 -23.733  0.00  0.00    -0.233 N 
ATOM     32  C   UNL     1      34.977  -8.522 -23.811  0.00  0.00    +0.257 C 
ATOM     33  C   UNL     1      32.553  -8.496 -23.604  0.00  0.00    +0.072 C 
ATOM     34  C   UNL     1      34.915  -7.034 -23.675  0.00  0.00    +0.059 C 
ATOM     35  C   UNL     1      32.520  -7.163 -23.517  0.00  0.00    +0.017 C 
ATOM     36  C   UNL     1      33.740  -6.413 -23.547  0.00  0.00    +0.006 C 
ENDBRANCH  27  31
ENDBRANCH  20  24
ENDBRANCH   1  21
TORSDOF 6
ENDMDL
MODEL 2
REMARK VINA RESULT:     -11.5      0.845      1.186
REMARK  Name = 42628063
REMARK  6 active torsions:
REMARK  status: ('A' for Active; 'I' for Inactive)
REMARK    1  A    between atoms: C_1  and  N_3
REMARK    2  A    between atoms: C_1  and  C_21
REMARK    3  A    between atoms: C_4  and  N_10
REMARK    4  A    between atoms: C_11  and  C_15
REMARK    5  A    between atoms: N_20  and  C_24
REMARK    6  A    between atoms: C_27  and  N_31
REMARK                            x       y       z     vdW  Elec       q    Type
REMARK                         _______ _______ _______ _____ _____    ______ ____
ROOT
ATOM      1  C   UNL     1      34.325 -17.201 -24.459  0.00  0.00    +0.010 C 
ENDROOT
BRANCH   1   3
ATOM      2  F   UNL     1      37.447 -18.159 -21.397  0.00  0.00    -0.238 F 
ATOM      3  N   UNL     1      35.196 -17.911 -23.535  0.00  0.00    +0.396 N 
ATOM      4  C   UNL     1      35.513 -19.423 -21.807  0.00  0.00    +0.082 C 
ATOM      5  C   UNL     1      36.090 -18.080 -21.369  0.00  0.00    +0.156 C 
ATOM      6  C   UNL     1      34.540 -19.068 -22.925  0.00  0.00    -0.054 C 
ATOM      7  C   UNL     1      35.623 -17.071 -22.411  0.00  0.00    -0.039 C 
ATOM      8  H   UNL     1      35.989 -18.193 -24.110  0.00  0.00    -0.079 HD
BRANCH   4  10
ATOM      9  O   UNL     1      36.778 -21.147 -19.892  0.00  0.00    -0.270 OA
ATOM     10  N   UNL     1      34.871 -20.133 -20.737  0.00  0.00    -0.302 N 
ATOM     11  C   UNL     1      35.567 -20.950 -19.853  0.00  0.00    +0.252 C 
ATOM     12  H   UNL     1      33.898 -20.037 -20.623  0.00  0.00    +0.150 HD
BRANCH  11  15
ATOM     13 CL   UNL     1      34.008 -23.585 -15.246  0.00  0.00    -0.075 Cl
ATOM     14  S   UNL     1      35.523 -22.208 -17.397  0.00  0.00    -0.071 S 
ATOM     15  C   UNL     1      34.754 -21.635 -18.815  0.00  0.00    +0.084 C 
ATOM     16  C   UNL     1      33.401 -21.894 -18.811  0.00  0.00    +0.012 C 
ATOM     17  C   UNL     1      32.990 -22.574 -17.628  0.00  0.00    +0.019 C 
ATOM     18  C   UNL     1      34.045 -22.807 -16.772  0.00  0.00    +0.087 C 
ENDBRANCH  11  15
ENDBRANCH   4  10
ENDBRANCH   1   3
BRANCH   1  21
ATOM     19  O   UNL     1      35.864 -15.418 -24.984  0.00  0.00    -0.277 OA
ATOM     20  N   UNL     1      33.751 -14.910 -24.095  0.00  0.00    -0.284 N 
ATOM     21  C   UNL     1      34.764 -15.749 -24.553  0.00  0.00    +0.205 C 
ATOM     22  H   UNL     1      32.927 -15.350 -23.788  0.00  0.00    +0.155 HD
BRANCH  20  24
ATOM     23  F   UNL     1      33.902 -13.331 -26.388  0.00  0.00    -0.203 F 
ATOM     24  C   UNL     1      33.769 -13.497 -24.021  0.00  0.00    +0.078 C 
ATOM     25  C   UNL     1      33.845 -12.735 -25.188  0.00  0.00    +0.155 C 
ATOM     26  C   UNL     1      33.712 -12.864 -22.779  0.00  0.00    +0.018 C 
ATOM     27  C   UNL     1      33.804 -10.711 -23.871  0.00  0.00    +0.061 C 
ATOM     28  C   UNL     1      33.863 -11.343 -25.113  0.00  0.00    +0.046 C 
ATOM     29  C   UNL     1      33.729 -11.472 -22.704  0.00  0.00    +0.017 C 
BRANCH  27  31
ATOM     30  O   UNL     1      36.153  -9.050 -24.167  0.00  0.00    -0.269 OA
ATOM     31  N   UNL     1      33.823  -9.263 -23.792  0.00  0.00    -0.233 N 
ATOM     32  C   UNL     1      35.051  -8.564 -23.915  0.00  0.00    +0.257 C 
ATOM     33  C   UNL     1      32.636  -8.547 -23.617  0.00  0.00    +0.072 C 
ATOM     34  C   UNL     1      34.988  -7.076 -23.776  0.00  0.00    +0.059 C 
ATOM     35  C   UNL     1      32.601  -7.214 -23.529  0.00  0.00    +0.017 C 
ATOM     36  C   UNL     1      33.816  -6.459 -23.604  0.00  0.00    +0.006 C 
ENDBRANCH  27  31
ENDBRANCH  20  24
ENDBRANCH   1  21
TORSDOF 6
ENDMDL
MODEL 3
REMARK VINA RESULT:     -11.2      5.614     11.842
REMARK  Name = 42628063
REMARK  6 active torsions:
REMARK  status: ('A' for Active; 'I' for Inactive)
REMARK    1  A    between atoms: C_1  and  N_3
REMARK    2  A    between atoms: C_1  and  C_21
REMARK    3  A    between atoms: C_4  and  N_10
REMARK    4  A    between atoms: C_11  and  C_15
REMARK    5  A    between atoms: N_20  and  C_24
REMARK    6  A    between atoms: C_27  and  N_31
REMARK                            x       y       z     vdW  Elec       q    Type
REMARK                         _______ _______ _______ _____ _____    ______ ____
ROOT
ATOM      1  C   UNL     1      33.850 -12.308 -25.042  0.00  0.00    +0.010 C 
ENDROOT
BRANCH   1   3
ATOM      2  F   UNL     1      36.706  -8.993 -24.095  0.00  0.00    -0.238 F 
ATOM      3  N   UNL     1      34.493 -11.161 -24.420  0.00  0.00    +0.396 N 
ATOM      4  C   UNL     1      34.414  -9.000 -23.587  0.00  0.00    +0.082 C 
ATOM      5  C   UNL     1      35.479  -9.045 -24.680  0.00  0.00    +0.156 C 
ATOM      6  C   UNL     1      33.528 -10.205 -23.876  0.00  0.00    -0.054 C 
ATOM      7  C   UNL     1      35.306 -10.392 -25.368  0.00  0.00    -0.039 C 
ATOM      8  H   UNL     1      35.068 -11.569 -23.684  0.00  0.00    -0.079 HD
BRANCH   4  10
ATOM      9  O   UNL     1      33.827  -7.363 -21.303  0.00  0.00    -0.270 OA
ATOM     10  N   UNL     1      33.670  -7.771 -23.581  0.00  0.00    -0.302 N 
ATOM     11  C   UNL     1      33.433  -7.042 -22.420  0.00  0.00    +0.252 C 
ATOM     12  H   UNL     1      33.313  -7.431 -24.432  0.00  0.00    +0.150 HD
BRANCH  11  15
ATOM     13 CL   UNL     1      31.069  -2.505 -24.522  0.00  0.00    -0.075 Cl
ATOM     14  S   UNL     1      32.645  -4.981 -24.079  0.00  0.00    -0.071 S 
ATOM     15  C   UNL     1      32.625  -5.805 -22.578  0.00  0.00    +0.084 C 
ATOM     16  C   UNL     1      31.814  -5.181 -21.656  0.00  0.00    +0.012 C 
ATOM     17  C   UNL     1      31.201  -4.010 -22.188  0.00  0.00    +0.019 C 
ATOM     18  C   UNL     1      31.566  -3.785 -23.497  0.00  0.00    +0.087 C 
ENDBRANCH  11  15
ENDBRANCH   4  10
ENDBRANCH   1   3
BRANCH   1  21
ATOM     19  O   UNL     1      32.732 -13.425 -23.219  0.00  0.00    -0.277 OA
ATOM     20  N   UNL     1      34.696 -14.344 -24.119  0.00  0.00    -0.284 N 
ATOM     21  C   UNL     1      33.670 -13.408 -24.009  0.00  0.00    +0.205 C 
ATOM     22  H   UNL     1      35.367 -14.174 -24.818  0.00  0.00    +0.155 HD
BRANCH  20  24
ATOM     23  F   UNL     1      35.033 -14.217 -21.354  0.00  0.00    -0.203 F 
ATOM     24  C   UNL     1      34.885 -15.511 -23.342  0.00  0.00    +0.078 C 
ATOM     25  C   UNL     1      35.051 -15.414 -21.959  0.00  0.00    +0.155 C 
ATOM     26  C   UNL     1      34.907 -16.762 -23.959  0.00  0.00    +0.018 C 
ATOM     27  C   UNL     1      35.258 -17.816 -21.814  0.00  0.00    +0.061 C 
ATOM     28  C   UNL     1      35.237 -16.565 -21.196  0.00  0.00    +0.046 C 
ATOM     29  C   UNL     1      35.092 -17.914 -23.195  0.00  0.00    +0.017 C 
BRANCH  27  31
ATOM     30  O   UNL     1      37.796 -18.750 -20.789  0.00  0.00    -0.269 OA
ATOM     31  N   UNL     1      35.451 -19.014 -21.020  0.00  0.00    -0.233 N 
ATOM     32  C   UNL     1      36.758 -19.387 -20.610  0.00  0.00    +0.257 C 
ATOM     33  C   UNL     1      34.359 -19.794 -20.635  0.00  0.00    +0.072 C 
ATOM     34  C   UNL     1      36.874 -20.661 -19.834  0.00  0.00    +0.059 C 
ATOM     35  C   UNL     1      34.485 -20.912 -19.913  0.00  0.00    +0.017 C 
ATOM     36  C   UNL     1      35.784 -21.359 -19.508  0.00  0.00    +0.006 C 
ENDBRANCH  27  31
ENDBRANCH  20  24
ENDBRANCH   1  21
TORSDOF 6
ENDMDL
MODEL 4
REMARK VINA RESULT:     -11.1      5.000     11.640
REMARK  Name = 42628063
REMARK  6 active torsions:
REMARK  status: ('A' for Active; 'I' for Inactive)
REMARK    1  A    between atoms: C_1  and  N_3
REMARK    2  A    between atoms: C_1  and  C_21
REMARK    3  A    between atoms: C_4  and  N_10
REMARK    4  A    between atoms: C_11  and  C_15
REMARK    5  A    between atoms: N_20  and  C_24
REMARK    6  A    between atoms: C_27  and  N_31
REMARK                            x       y       z     vdW  Elec       q    Type
REMARK                         _______ _______ _______ _____ _____    ______ ____
ROOT
ATOM      1  C   UNL     1      33.954 -13.194 -25.274  0.00  0.00    +0.010 C 
ENDROOT
BRANCH   1   3
ATOM      2  F   UNL     1      36.721  -9.675 -25.251  0.00  0.00    -0.238 F 
ATOM      3  N   UNL     1      34.694 -12.008 -24.869  0.00  0.00    +0.396 N 
ATOM      4  C   UNL     1      34.765  -9.873 -23.971  0.00  0.00    +0.082 C 
ATOM      5  C   UNL     1      35.374  -9.816 -25.369  0.00  0.00    +0.156 C 
ATOM      6  C   UNL     1      33.920 -11.141 -23.981  0.00  0.00    -0.054 C 
ATOM      7  C   UNL     1      35.063 -11.162 -26.010  0.00  0.00    -0.039 C 
ATOM      8  H   UNL     1      35.519 -12.380 -24.401  0.00  0.00    -0.079 HD
BRANCH   4  10
ATOM      9  O   UNL     1      35.773  -7.294 -23.213  0.00  0.00    -0.270 OA
ATOM     10  N   UNL     1      33.987  -8.708 -23.651  0.00  0.00    -0.302 N 
ATOM     11  C   UNL     1      34.564  -7.494 -23.293  0.00  0.00    +0.252 C 
ATOM     12  H   UNL     1      33.005  -8.771 -23.688  0.00  0.00    +0.150 HD
BRANCH  11  15
ATOM     13 CL   UNL     1      30.534  -4.497 -20.975  0.00  0.00    -0.075 Cl
ATOM     14  S   UNL     1      32.466  -6.623 -21.725  0.00  0.00    -0.071 S 
ATOM     15  C   UNL     1      33.622  -6.392 -22.967  0.00  0.00    +0.084 C 
ATOM     16  C   UNL     1      33.526  -5.143 -23.538  0.00  0.00    +0.012 C 
ATOM     17  C   UNL     1      32.489  -4.363 -22.948  0.00  0.00    +0.019 C 
ATOM     18  C   UNL     1      31.833  -5.047 -21.948  0.00  0.00    +0.087 C 
ENDBRANCH  11  15
ENDBRANCH   4  10
ENDBRANCH   1   3
BRANCH   1  21
ATOM     19  O   UNL     1      33.058 -13.927 -23.157  0.00  0.00    -0.277 OA
ATOM     20  N   UNL     1      34.681 -15.226 -24.248  0.00  0.00    -0.284 N 
ATOM     21  C   UNL     1      33.826 -14.138 -24.090  0.00  0.00    +0.205 C 
ATOM     22  H   UNL     1      35.226 -15.236 -25.067  0.00  0.00    +0.155 HD
BRANCH  20  24
ATOM     23  F   UNL     1      34.233 -17.850 -25.077  0.00  0.00    -0.203 F 
ATOM     24  C   UNL     1      34.856 -16.320 -23.368  0.00  0.00    +0.078 C 
ATOM     25  C   UNL     1      34.624 -17.623 -23.814  0.00  0.00    +0.155 C 
ATOM     26  C   UNL     1      35.261 -16.097 -22.052  0.00  0.00    +0.018 C 
ATOM     27  C   UNL     1      35.203 -18.475 -21.630  0.00  0.00    +0.061 C 
ATOM     28  C   UNL     1      34.797 -18.699 -22.945  0.00  0.00    +0.046 C 
ATOM     29  C   UNL     1      35.435 -17.174 -21.183  0.00  0.00    +0.017 C 
BRANCH  27  31
ATOM     30  O   UNL     1      33.083 -20.156 -20.607  0.00  0.00    -0.269 OA
ATOM     31  N   UNL     1      35.383 -19.594 -20.726  0.00  0.00    -0.233 N 
ATOM     32  C   UNL     1      34.254 -20.319 -20.263  0.00  0.00    +0.257 C 
ATOM     33  C   UNL     1      36.663 -19.981 -20.323  0.00  0.00    +0.072 C 
ATOM     34  C   UNL     1      34.524 -21.429 -19.298  0.00  0.00    +0.059 C 
ATOM     35  C   UNL     1      36.882 -20.999 -19.484  0.00  0.00    +0.017 C 
ATOM     36  C   UNL     1      35.776 -21.738 -18.952  0.00  0.00    +0.006 C 
ENDBRANCH  27  31
ENDBRANCH  20  24
ENDBRANCH   1  21
TORSDOF 6
ENDMDL
MODEL 5
REMARK VINA RESULT:     -10.4      2.058      2.492
REMARK  Name = 42628063
REMARK  6 active torsions:
REMARK  status: ('A' for Active; 'I' for Inactive)
REMARK    1  A    between atoms: C_1  and  N_3
REMARK    2  A    between atoms: C_1  and  C_21
REMARK    3  A    between atoms: C_4  and  N_10
REMARK    4  A    between atoms: C_11  and  C_15
REMARK    5  A    between atoms: N_20  and  C_24
REMARK    6  A    between atoms: C_27  and  N_31
REMARK                            x       y       z     vdW  Elec       q    Type
REMARK                         _______ _______ _______ _____ _____    ______ ____
ROOT
ATOM      1  C   UNL     1      35.409 -15.523 -24.320  0.00  0.00    +0.010 C 
ENDROOT
BRANCH   1   3
ATOM      2  F   UNL     1      33.723 -19.659 -24.623  0.00  0.00    -0.238 F 
ATOM      3  N   UNL     1      34.736 -16.777 -24.017  0.00  0.00    +0.396 N 
ATOM      4  C   UNL     1      34.380 -18.601 -22.634  0.00  0.00    +0.082 C 
ATOM      5  C   UNL     1      34.808 -19.124 -24.002  0.00  0.00    +0.156 C 
ATOM      6  C   UNL     1      34.872 -17.160 -22.611  0.00  0.00    -0.054 C 
ATOM      7  C   UNL     1      35.283 -17.904 -24.780  0.00  0.00    -0.039 C 
ATOM      8  H   UNL     1      33.763 -16.600 -24.263  0.00  0.00    -0.079 HD
BRANCH   4  10
ATOM      9  O   UNL     1      32.898 -20.236 -20.797  0.00  0.00    -0.270 OA
ATOM     10  N   UNL     1      34.916 -19.372 -21.546  0.00  0.00    -0.302 N 
ATOM     11  C   UNL     1      34.118 -20.138 -20.704  0.00  0.00    +0.252 C 
ATOM     12  H   UNL     1      35.888 -19.358 -21.392  0.00  0.00    +0.150 HD
BRANCH  11  15
ATOM     13 CL   UNL     1      35.196 -23.266 -16.271  0.00  0.00    -0.075 Cl
ATOM     14  S   UNL     1      33.908 -21.778 -18.493  0.00  0.00    -0.071 S 
ATOM     15  C   UNL     1      34.822 -20.858 -19.611  0.00  0.00    +0.084 C 
ATOM     16  C   UNL     1      36.172 -20.907 -19.340  0.00  0.00    +0.012 C 
ATOM     17  C   UNL     1      36.460 -21.710 -18.198  0.00  0.00    +0.019 C 
ATOM     18  C   UNL     1      35.318 -22.245 -17.641  0.00  0.00    +0.087 C 
ENDBRANCH  11  15
ENDBRANCH   4  10
ENDBRANCH   1   3
BRANCH   1  21
ATOM     19  O   UNL     1      33.311 -14.488 -24.908  0.00  0.00    -0.277 OA
ATOM     20  N   UNL     1      34.875 -13.300 -23.622  0.00  0.00    -0.284 N 
ATOM     21  C   UNL     1      34.392 -14.394 -24.336  0.00  0.00    +0.205 C 
ATOM     22  H   UNL     1      35.768 -13.402 -23.222  0.00  0.00    +0.155 HD
BRANCH  20  24
ATOM     23  F   UNL     1      32.780 -13.045 -21.801  0.00  0.00    -0.203 F 
ATOM     24  C   UNL     1      34.231 -12.059 -23.405  0.00  0.00    +0.078 C 
ATOM     25  C   UNL     1      33.185 -11.965 -22.485  0.00  0.00    +0.155 C 
ATOM     26  C   UNL     1      34.641 -10.929 -24.111  0.00  0.00    +0.018 C 
ATOM     27  C   UNL     1      32.963  -9.611 -22.978  0.00  0.00    +0.061 C 
ATOM     28  C   UNL     1      32.551 -10.742 -22.272  0.00  0.00    +0.046 C 
ATOM     29  C   UNL     1      34.008  -9.705 -23.897  0.00  0.00    +0.017 C 
BRANCH  27  31
ATOM     30  O   UNL     1      32.992  -8.122 -20.499  0.00  0.00    -0.269 OA
ATOM     31  N   UNL     1      32.304  -8.338 -22.757  0.00  0.00    -0.233 N 
ATOM     32  C   UNL     1      32.360  -7.725 -21.478  0.00  0.00    +0.257 C 
ATOM     33  C   UNL     1      31.631  -7.697 -23.799  0.00  0.00    +0.072 C 
ATOM     34  C   UNL     1      31.615  -6.438 -21.323  0.00  0.00    +0.059 C 
ATOM     35  C   UNL     1      31.000  -6.529 -23.644  0.00  0.00    +0.017 C 
ATOM     36  C   UNL     1      30.988  -5.886 -22.365  0.00  0.00    +0.006 C 
ENDBRANCH  27  31
ENDBRANCH  20  24
ENDBRANCH   1  21
TORSDOF 6
ENDMDL
MODEL 6
REMARK VINA RESULT:     -10.2      2.400      3.441
REMARK  Name = 42628063
REMARK  6 active torsions:
REMARK  status: ('A' for Active; 'I' for Inactive)
REMARK    1  A    between atoms: C_1  and  N_3
REMARK    2  A    between atoms: C_1  and  C_21
REMARK    3  A    between atoms: C_4  and  N_10
REMARK    4  A    between atoms: C_11  and  C_15
REMARK    5  A    between atoms: N_20  and  C_24
REMARK    6  A    between atoms: C_27  and  N_31
REMARK                            x       y       z     vdW  Elec       q    Type
REMARK                         _______ _______ _______ _____ _____    ______ ____
ROOT
ATOM      1  C   UNL     1      34.276 -14.487 -24.836  0.00  0.00    +0.010 C 
ENDROOT
BRANCH   1   3
ATOM      2  F   UNL     1      35.255 -13.919 -20.504  0.00  0.00    -0.238 F 
ATOM      3  N   UNL     1      34.876 -14.615 -23.516  0.00  0.00    +0.396 N 
ATOM      4  C   UNL     1      35.551 -15.908 -21.715  0.00  0.00    +0.082 C 
ATOM      5  C   UNL     1      34.566 -14.862 -21.201  0.00  0.00    +0.156 C 
ATOM      6  C   UNL     1      35.264 -15.992 -23.209  0.00  0.00    -0.054 C 
ATOM      7  C   UNL     1      33.956 -14.224 -22.443  0.00  0.00    -0.039 C 
ATOM      8  H   UNL     1      35.687 -13.999 -23.553  0.00  0.00    -0.079 HD
BRANCH   4  10
ATOM      9  O   UNL     1      37.173 -18.239 -22.133  0.00  0.00    -0.270 OA
ATOM     10  N   UNL     1      35.407 -17.180 -21.065  0.00  0.00    -0.302 N 
ATOM     11  C   UNL     1      36.243 -18.259 -21.331  0.00  0.00    +0.252 C 
ATOM     12  H   UNL     1      34.687 -17.294 -20.403  0.00  0.00    +0.150 HD
BRANCH  11  15
ATOM     13 CL   UNL     1      33.612 -22.574 -19.083  0.00  0.00    -0.075 Cl
ATOM     14  S   UNL     1      34.332 -20.077 -20.519  0.00  0.00    -0.071 S 
ATOM     15  C   UNL     1      35.947 -19.515 -20.593  0.00  0.00    +0.084 C 
ATOM     16  C   UNL     1      36.817 -20.347 -19.923  0.00  0.00    +0.012 C 
ATOM     17  C   UNL     1      36.148 -21.461 -19.339  0.00  0.00    +0.019 C 
ATOM     18  C   UNL     1      34.792 -21.438 -19.587  0.00  0.00    +0.087 C 
ENDBRANCH  11  15
ENDBRANCH   4  10
ENDBRANCH   1   3
BRANCH   1  21
ATOM     19  O   UNL     1      33.310 -12.669 -26.094  0.00  0.00    -0.277 OA
ATOM     20  N   UNL     1      34.050 -12.301 -23.897  0.00  0.00    -0.284 N 
ATOM     21  C   UNL     1      33.816 -13.054 -25.045  0.00  0.00    +0.205 C 
ATOM     22  H   UNL     1      34.462 -12.777 -23.141  0.00  0.00    +0.155 HD
BRANCH  20  24
ATOM     23  F   UNL     1      35.640 -10.296 -25.004  0.00  0.00    -0.203 F 
ATOM     24  C   UNL     1      33.763 -10.931 -23.691  0.00  0.00    +0.078 C 
ATOM     25  C   UNL     1      34.579  -9.951 -24.259  0.00  0.00    +0.155 C 
ATOM     26  C   UNL     1      32.663 -10.559 -22.918  0.00  0.00    +0.018 C 
ATOM     27  C   UNL     1      33.194  -8.230 -23.283  0.00  0.00    +0.061 C 
ATOM     28  C   UNL     1      34.294  -8.602 -24.055  0.00  0.00    +0.046 C 
ATOM     29  C   UNL     1      32.378  -9.209 -22.715  0.00  0.00    +0.017 C 
BRANCH  27  31
ATOM     30  O   UNL     1      33.405  -6.841 -20.755  0.00  0.00    -0.269 OA
ATOM     31  N   UNL     1      32.898  -6.827 -23.071  0.00  0.00    -0.233 N 
ATOM     32  C   UNL     1      33.003  -6.271 -21.769  0.00  0.00    +0.257 C 
ATOM     33  C   UNL     1      32.531  -6.009 -24.142  0.00  0.00    +0.072 C 
ATOM     34  C   UNL     1      32.634  -4.828 -21.629  0.00  0.00    +0.059 C 
ATOM     35  C   UNL     1      32.238  -4.713 -23.997  0.00  0.00    +0.017 C 
ATOM     36  C   UNL     1      32.286  -4.109 -22.699  0.00  0.00    +0.006 C 
ENDBRANCH  27  31
ENDBRANCH  20  24
ENDBRANCH   1  21
TORSDOF 6
ENDMDL
MODEL 7
REMARK VINA RESULT:      -9.7      5.561      9.245
REMARK  Name = 42628063
REMARK  6 active torsions:
REMARK  status: ('A' for Active; 'I' for Inactive)
REMARK    1  A    between atoms: C_1  and  N_3
REMARK    2  A    between atoms: C_1  and  C_21
REMARK    3  A    between atoms: C_4  and  N_10
REMARK    4  A    between atoms: C_11  and  C_15
REMARK    5  A    between atoms: N_20  and  C_24
REMARK    6  A    between atoms: C_27  and  N_31
REMARK                            x       y       z     vdW  Elec       q    Type
REMARK                         _______ _______ _______ _____ _____    ______ ____
ROOT
ATOM      1  C   UNL     1      37.666 -22.935 -15.680  0.00  0.00    +0.010 C 
ENDROOT
BRANCH   1   3
ATOM      2  F   UNL     1      35.065 -24.486 -12.383  0.00  0.00    -0.238 F 
ATOM      3  N   UNL     1      36.645 -23.656 -14.935  0.00  0.00    +0.396 N 
ATOM      4  C   UNL     1      34.446 -24.325 -14.641  0.00  0.00    +0.082 C 
ATOM      5  C   UNL     1      34.885 -23.582 -13.382  0.00  0.00    +0.156 C 
ATOM      6  C   UNL     1      35.422 -23.857 -15.713  0.00  0.00    -0.054 C 
ATOM      7  C   UNL     1      36.222 -22.939 -13.728  0.00  0.00    -0.039 C 
ATOM      8  H   UNL     1      37.090 -24.544 -14.703  0.00  0.00    -0.079 HD
BRANCH   4  10
ATOM      9  O   UNL     1      32.102 -25.419 -13.395  0.00  0.00    -0.270 OA
ATOM     10  N   UNL     1      33.081 -24.060 -15.001  0.00  0.00    -0.302 N 
ATOM     11  C   UNL     1      32.003 -24.638 -14.338  0.00  0.00    +0.252 C 
ATOM     12  H   UNL     1      32.900 -23.444 -15.747  0.00  0.00    +0.150 HD
BRANCH  11  15
ATOM     13 CL   UNL     1      27.822 -22.038 -16.856  0.00  0.00    -0.075 Cl
ATOM     14  S   UNL     1      30.463 -22.856 -15.775  0.00  0.00    -0.071 S 
ATOM     15  C   UNL     1      30.654 -24.282 -14.848  0.00  0.00    +0.084 C 
ATOM     16  C   UNL     1      29.464 -24.957 -14.685  0.00  0.00    +0.012 C 
ATOM     17  C   UNL     1      28.380 -24.293 -15.329  0.00  0.00    +0.019 C 
ATOM     18  C   UNL     1      28.784 -23.137 -15.961  0.00  0.00    +0.087 C 
ENDBRANCH  11  15
ENDBRANCH   4  10
ENDBRANCH   1   3
BRANCH   1  21
ATOM     19  O   UNL     1      36.425 -20.882 -15.944  0.00  0.00    -0.277 OA
ATOM     20  N   UNL     1      37.204 -22.025 -17.841  0.00  0.00    -0.284 N 
ATOM     21  C   UNL     1      37.015 -21.816 -16.477  0.00  0.00    +0.205 C 
ATOM     22  H   UNL     1      37.710 -22.831 -18.092  0.00  0.00    +0.155 HD
BRANCH  20  24
ATOM     23  F   UNL     1      34.638 -22.297 -18.897  0.00  0.00    -0.203 F 
ATOM     24  C   UNL     1      36.753 -21.213 -18.908  0.00  0.00    +0.078 C 
ATOM     25  C   UNL     1      35.462 -21.374 -19.415  0.00  0.00    +0.155 C 
ATOM     26  C   UNL     1      37.600 -20.249 -19.455  0.00  0.00    +0.018 C 
ATOM     27  C   UNL     1      35.867 -19.608 -21.012  0.00  0.00    +0.061 C 
ATOM     28  C   UNL     1      35.020 -20.572 -20.466  0.00  0.00    +0.046 C 
ATOM     29  C   UNL     1      37.157 -19.447 -20.507  0.00  0.00    +0.017 C 
BRANCH  27  31
ATOM     30  O   UNL     1      35.651 -16.725 -20.939  0.00  0.00    -0.269 OA
ATOM     31  N   UNL     1      35.407 -18.774 -22.105  0.00  0.00    -0.233 N 
ATOM     32  C   UNL     1      35.308 -17.369 -21.930  0.00  0.00    +0.257 C 
ATOM     33  C   UNL     1      35.081 -19.340 -23.340  0.00  0.00    +0.072 C 
ATOM     34  C   UNL     1      34.781 -16.589 -23.092  0.00  0.00    +0.059 C 
ATOM     35  C   UNL     1      34.643 -18.616 -24.375  0.00  0.00    +0.017 C 
ATOM     36  C   UNL     1      34.483 -17.199 -24.242  0.00  0.00    +0.006 C 
ENDBRANCH  27  31
ENDBRANCH  20  24
ENDBRANCH   1  21
TORSDOF 6
ENDMDL
MODEL 8
REMARK VINA RESULT:      -9.6      8.684     15.581
REMARK  Name = 42628063
REMARK  6 active torsions:
REMARK  status: ('A' for Active; 'I' for Inactive)
REMARK    1  A    between atoms: C_1  and  N_3
REMARK    2  A    between atoms: C_1  and  C_21
REMARK    3  A    between atoms: C_4  and  N_10
REMARK    4  A    between atoms: C_11  and  C_15
REMARK    5  A    between atoms: N_20  and  C_24
REMARK    6  A    between atoms: C_27  and  N_31
REMARK                            x       y       z     vdW  Elec       q    Type
REMARK                         _______ _______ _______ _____ _____    ______ ____
ROOT
ATOM      1  C   UNL     1      35.386 -23.821 -12.587  0.00  0.00    +0.010 C 
ENDROOT
BRANCH   1   3
ATOM      2  F   UNL     1      31.833 -24.375 -15.255  0.00  0.00    -0.238 F 
ATOM      3  N   UNL     1      34.539 -24.028 -13.753  0.00  0.00    +0.396 N 
ATOM      4  C   UNL     1      33.904 -23.491 -15.915  0.00  0.00    +0.082 C 
ATOM      5  C   UNL     1      32.682 -23.340 -15.015  0.00  0.00    +0.156 C 
ATOM      6  C   UNL     1      35.088 -23.410 -14.960  0.00  0.00    -0.054 C 
ATOM      7  C   UNL     1      33.206 -23.440 -13.588  0.00  0.00    -0.039 C 
ATOM      8  H   UNL     1      34.489 -25.043 -13.844  0.00  0.00    -0.079 HD
BRANCH   4  10
ATOM      9  O   UNL     1      33.887 -23.941 -18.751  0.00  0.00    -0.270 OA
ATOM     10  N   UNL     1      33.970 -22.489 -16.943  0.00  0.00    -0.302 N 
ATOM     11  C   UNL     1      33.955 -22.801 -18.298  0.00  0.00    +0.252 C 
ATOM     12  H   UNL     1      34.027 -21.543 -16.678  0.00  0.00    +0.150 HD
BRANCH  11  15
ATOM     13 CL   UNL     1      35.935 -18.849 -21.623  0.00  0.00    -0.075 Cl
ATOM     14  S   UNL     1      35.602 -21.126 -19.748  0.00  0.00    -0.071 S 
ATOM     15  C   UNL     1      34.055 -21.652 -19.236  0.00  0.00    +0.084 C 
ATOM     16  C   UNL     1      33.043 -20.902 -19.792  0.00  0.00    +0.012 C 
ATOM     17  C   UNL     1      33.543 -19.880 -20.649  0.00  0.00    +0.019 C 
ATOM     18  C   UNL     1      34.920 -19.889 -20.716  0.00  0.00    +0.087 C 
ENDBRANCH  11  15
ENDBRANCH   4  10
ENDBRANCH   1   3
BRANCH   1  21
ATOM     19  O   UNL     1      36.732 -25.552 -11.581  0.00  0.00    -0.277 OA
ATOM     20  N   UNL     1      37.126 -24.915 -13.807  0.00  0.00    -0.284 N 
ATOM     21  C   UNL     1      36.487 -24.868 -12.570  0.00  0.00    +0.205 C 
ATOM     22  H   UNL     1      36.792 -24.294 -14.492  0.00  0.00    +0.155 HD
BRANCH  20  24
ATOM     23  F   UNL     1      36.806 -26.893 -15.746  0.00  0.00    -0.203 F 
ATOM     24  C   UNL     1      38.198 -25.755 -14.192  0.00  0.00    +0.078 C 
ATOM     25  C   UNL     1      38.005 -26.735 -15.166  0.00  0.00    +0.155 C 
ATOM     26  C   UNL     1      39.450 -25.601 -13.597  0.00  0.00    +0.018 C 
ATOM     27  C   UNL     1      40.315 -27.406 -14.949  0.00  0.00    +0.061 C 
ATOM     28  C   UNL     1      39.063 -27.561 -15.544  0.00  0.00    +0.046 C 
ATOM     29  C   UNL     1      40.508 -26.427 -13.975  0.00  0.00    +0.017 C 
BRANCH  27  31
ATOM     30  O   UNL     1      42.452 -28.287 -13.211  0.00  0.00    -0.269 OA
ATOM     31  N   UNL     1      41.415 -28.265 -15.343  0.00  0.00    -0.233 N 
ATOM     32  C   UNL     1      42.427 -28.594 -14.403  0.00  0.00    +0.257 C 
ATOM     33  C   UNL     1      41.478 -28.790 -16.635  0.00  0.00    +0.072 C 
ATOM     34  C   UNL     1      43.549 -29.446 -14.903  0.00  0.00    +0.059 C 
ATOM     35  C   UNL     1      42.476 -29.578 -17.049  0.00  0.00    +0.017 C 
ATOM     36  C   UNL     1      43.546 -29.908 -16.156  0.00  0.00    +0.006 C 
ENDBRANCH  27  31
ENDBRANCH  20  24
ENDBRANCH   1  21
TORSDOF 6
ENDMDL
MODEL 9
REMARK VINA RESULT:      -9.4      7.402     13.379
REMARK  Name = 42628063
REMARK  6 active torsions:
REMARK  status: ('A' for Active; 'I' for Inactive)
REMARK    1  A    between atoms: C_1  and  N_3
REMARK    2  A    between atoms: C_1  and  C_21
REMARK    3  A    between atoms: C_4  and  N_10
REMARK    4  A    between atoms: C_11  and  C_15
REMARK    5  A    between atoms: N_20  and  C_24
REMARK    6  A    between atoms: C_27  and  N_31
REMARK                            x       y       z     vdW  Elec       q    Type
REMARK                         _______ _______ _______ _____ _____    ______ ____
ROOT
ATOM      1  C   UNL     1      31.549  -6.208 -21.365  0.00  0.00    +0.010 C 
ENDROOT
BRANCH   1   3
ATOM      2  F   UNL     1      30.908  -3.175 -24.595  0.00  0.00    -0.238 F 
ATOM      3  N   UNL     1      31.522  -5.531 -22.653  0.00  0.00    +0.396 N 
ATOM      4  C   UNL     1      32.577  -4.825 -24.592  0.00  0.00    +0.082 C 
ATOM      5  C   UNL     1      31.996  -3.596 -23.897  0.00  0.00    +0.156 C 
ATOM      6  C   UNL     1      32.675  -5.870 -23.487  0.00  0.00    -0.054 C 
ATOM      7  C   UNL     1      31.558  -4.071 -22.518  0.00  0.00    -0.039 C 
ATOM      8  H   UNL     1      30.650  -5.843 -23.078  0.00  0.00    -0.079 HD
BRANCH   4  10
ATOM      9  O   UNL     1      33.022  -3.708 -27.199  0.00  0.00    -0.270 OA
ATOM     10  N   UNL     1      33.848  -4.571 -25.210  0.00  0.00    -0.302 N 
ATOM     11  C   UNL     1      33.968  -4.024 -26.484  0.00  0.00    +0.252 C 
ATOM     12  H   UNL     1      34.668  -4.792 -24.713  0.00  0.00    +0.150 HD
BRANCH  11  15
ATOM     13 CL   UNL     1      38.643  -1.786 -28.414  0.00  0.00    -0.075 Cl
ATOM     14  S   UNL     1      35.897  -2.274 -27.397  0.00  0.00    -0.071 S 
ATOM     15  C   UNL     1      35.354  -3.846 -26.991  0.00  0.00    +0.084 C 
ATOM     16  C   UNL     1      36.326  -4.800 -27.197  0.00  0.00    +0.012 C 
ATOM     17  C   UNL     1      37.534  -4.232 -27.696  0.00  0.00    +0.019 C 
ATOM     18  C   UNL     1      37.439  -2.866 -27.851  0.00  0.00    +0.087 C 
ENDBRANCH  11  15
ENDBRANCH   4  10
ENDBRANCH   1   3
BRANCH   1  21
ATOM     19  O   UNL     1      33.602  -7.417 -20.984  0.00  0.00    -0.277 OA
ATOM     20  N   UNL     1      31.823  -8.465 -22.101  0.00  0.00    -0.284 N 
ATOM     21  C   UNL     1      32.466  -7.417 -21.448  0.00  0.00    +0.205 C 
ATOM     22  H   UNL     1      30.904  -8.290 -22.406  0.00  0.00    +0.155 HD
BRANCH  20  24
ATOM     23  F   UNL     1      31.002 -10.703 -20.655  0.00  0.00    -0.203 F 
ATOM     24  C   UNL     1      32.337  -9.755 -22.377  0.00  0.00    +0.078 C 
ATOM     25  C   UNL     1      31.906 -10.855 -21.634  0.00  0.00    +0.155 C 
ATOM     26  C   UNL     1      33.277  -9.926 -23.393  0.00  0.00    +0.018 C 
ATOM     27  C   UNL     1      33.353 -12.295 -22.924  0.00  0.00    +0.061 C 
ATOM     28  C   UNL     1      32.413 -12.124 -21.908  0.00  0.00    +0.046 C 
ATOM     29  C   UNL     1      33.785 -11.196 -23.667  0.00  0.00    +0.017 C 
BRANCH  27  31
ATOM     30  O   UNL     1      34.780 -13.965 -21.044  0.00  0.00    -0.269 OA
ATOM     31  N   UNL     1      33.882 -13.615 -23.209  0.00  0.00    -0.233 N 
ATOM     32  C   UNL     1      34.601 -14.320 -22.209  0.00  0.00    +0.257 C 
ATOM     33  C   UNL     1      33.670 -14.210 -24.455  0.00  0.00    +0.072 C 
ATOM     34  C   UNL     1      35.151 -15.654 -22.600  0.00  0.00    +0.059 C 
ATOM     35  C   UNL     1      34.145 -15.419 -24.770  0.00  0.00    +0.017 C 
ATOM     36  C   UNL     1      34.914 -16.158 -23.814  0.00  0.00    +0.006 C 
ENDBRANCH  27  31
ENDBRANCH  20  24
ENDBRANCH   1  21
TORSDOF 6
ENDMDL
