MODEL 1
REMARK VINA RESULT:     -11.8      0.000      0.000
REMARK  Name = 9889200
REMARK  5 active torsions:
REMARK  status: ('A' for Active; 'I' for Inactive)
REMARK    1  A    between atoms: C_1  and  C_21
REMARK    2  A    between atoms: C_4  and  O_7
REMARK    3  A    between atoms: O_7  and  C_8
REMARK    4  A    between atoms: C_8  and  C_12
REMARK    5  A    between atoms: C_21  and  C_26
REMARK                            x       y       z     vdW  Elec       q    Type
REMARK                         _______ _______ _______ _____ _____    ______ ____
ROOT
ATOM      1  C   UNL     1      34.310 -20.156 -20.577  0.00  0.00    -0.021 C 
ATOM      2  C   UNL     1      35.643 -20.432 -20.276  0.00  0.00    -0.001 C 
ATOM      3  C   UNL     1      33.289 -20.775 -19.856  0.00  0.00    -0.001 C 
ATOM      4  C   UNL     1      34.933 -21.939 -18.542  0.00  0.00    +0.139 C 
ATOM      5  C   UNL     1      35.956 -21.328 -19.254  0.00  0.00    +0.037 C 
ATOM      6  C   UNL     1      33.602 -21.670 -18.833  0.00  0.00    +0.037 C 
ENDROOT
BRANCH   4   7
ATOM      7  O   UNL     1      35.242 -22.820 -17.534  0.00  0.00    -0.466 OA
BRANCH   7   8
ATOM      8  C   UNL     1      34.369 -22.865 -16.426  0.00  0.00    +0.279 C 
BRANCH   8  12
ATOM      9  O   UNL     1      34.400 -24.474 -11.870  0.00  0.00    -0.274 OA
ATOM     10  N   UNL     1      34.363 -23.687 -14.074  0.00  0.00    -0.232 N 
ATOM     11  N   UNL     1      36.323 -23.832 -15.413  0.00  0.00    -0.391 NA
ATOM     12  C   UNL     1      35.079 -23.499 -15.254  0.00  0.00    +0.210 C 
ATOM     13  C   UNL     1      36.374 -24.657 -13.108  0.00  0.00    +0.151 C 
ATOM     14  C   UNL     1      36.997 -24.421 -14.336  0.00  0.00    +0.123 C 
ATOM     15  C   UNL     1      34.957 -24.271 -12.945  0.00  0.00    +0.241 C 
ATOM     16  C   UNL     1      32.961 -23.282 -13.976  0.00  0.00    +0.122 C 
ATOM     17  C   UNL     1      37.076 -25.248 -12.051  0.00  0.00    -0.010 C 
ATOM     18  C   UNL     1      38.339 -24.786 -14.494  0.00  0.00    +0.028 C 
ATOM     19  C   UNL     1      38.412 -25.606 -12.224  0.00  0.00    -0.004 C 
ATOM     20  C   UNL     1      39.043 -25.375 -13.444  0.00  0.00    +0.002 C 
ENDBRANCH   8  12
ENDBRANCH   7   8
ENDBRANCH   4   7
BRANCH   1  21
ATOM     21  C   UNL     1      33.975 -19.200 -21.671  0.00  0.00    +0.047 C 
BRANCH  21  26
ATOM     22  S   UNL     1      35.447 -16.863 -21.696  0.00  0.00    -0.048 S 
ATOM     23  O   UNL     1      34.900 -19.434 -24.522  0.00  0.00    -0.274 OA
ATOM     24  O   UNL     1      35.604 -14.979 -23.523  0.00  0.00    -0.263 OA
ATOM     25  N   UNL     1      35.258 -17.168 -24.225  0.00  0.00    -0.246 N 
ATOM     26  C   UNL     1      35.221 -18.568 -22.288  0.00  0.00    +0.137 C 
ATOM     27  C   UNL     1      35.104 -18.469 -23.793  0.00  0.00    +0.239 C 
ATOM     28  C   UNL     1      35.452 -16.172 -23.304  0.00  0.00    +0.279 C 
ATOM     29  H   UNL     1      35.231 -16.958 -25.187  0.00  0.00    +0.158 HD
ENDBRANCH  21  26
ENDBRANCH   1  21
TORSDOF 5
ENDMDL
MODEL 2
REMARK VINA RESULT:     -11.7      1.690      2.105
REMARK  Name = 9889200
REMARK  5 active torsions:
REMARK  status: ('A' for Active; 'I' for Inactive)
REMARK    1  A    between atoms: C_1  and  C_21
REMARK    2  A    between atoms: C_4  and  O_7
REMARK    3  A    between atoms: O_7  and  C_8
REMARK    4  A    between atoms: C_8  and  C_12
REMARK    5  A    between atoms: C_21  and  C_26
REMARK                            x       y       z     vdW  Elec       q    Type
REMARK                         _______ _______ _______ _____ _____    ______ ____
ROOT
ATOM      1  C   UNL     1      35.422 -20.093 -20.471  0.00  0.00    -0.021 C 
ATOM      2  C   UNL     1      36.252 -20.981 -19.788  0.00  0.00    -0.001 C 
ATOM      3  C   UNL     1      34.036 -20.228 -20.386  0.00  0.00    -0.001 C 
ATOM      4  C   UNL     1      34.318 -22.130 -18.942  0.00  0.00    +0.139 C 
ATOM      5  C   UNL     1      35.698 -22.005 -19.020  0.00  0.00    +0.037 C 
ATOM      6  C   UNL     1      33.481 -21.251 -19.617  0.00  0.00    +0.037 C 
ENDROOT
BRANCH   4   7
ATOM      7  O   UNL     1      33.771 -23.138 -18.183  0.00  0.00    -0.466 OA
BRANCH   7   8
ATOM      8  C   UNL     1      32.874 -22.762 -17.160  0.00  0.00    +0.279 C 
BRANCH   8  12
ATOM      9  O   UNL     1      32.389 -24.758 -12.787  0.00  0.00    -0.274 OA
ATOM     10  N   UNL     1      32.601 -23.795 -14.910  0.00  0.00    -0.232 N 
ATOM     11  N   UNL     1      34.694 -22.897 -15.595  0.00  0.00    -0.391 NA
ATOM     12  C   UNL     1      33.445 -23.164 -15.821  0.00  0.00    +0.210 C 
ATOM     13  C   UNL     1      34.484 -23.901 -13.371  0.00  0.00    +0.151 C 
ATOM     14  C   UNL     1      35.240 -23.263 -14.358  0.00  0.00    +0.123 C 
ATOM     15  C   UNL     1      33.062 -24.197 -13.647  0.00  0.00    +0.241 C 
ATOM     16  C   UNL     1      31.202 -24.060 -15.242  0.00  0.00    +0.122 C 
ATOM     17  C   UNL     1      35.059 -24.254 -12.146  0.00  0.00    -0.010 C 
ATOM     18  C   UNL     1      36.586 -22.981 -14.101  0.00  0.00    +0.028 C 
ATOM     19  C   UNL     1      36.402 -23.967 -11.904  0.00  0.00    -0.004 C 
ATOM     20  C   UNL     1      37.165 -23.331 -12.881  0.00  0.00    +0.002 C 
ENDBRANCH   8  12
ENDBRANCH   7   8
ENDBRANCH   4   7
BRANCH   1  21
ATOM     21  C   UNL     1      36.015 -19.000 -21.293  0.00  0.00    +0.047 C 
BRANCH  21  26
ATOM     22  S   UNL     1      35.002 -18.416 -23.795  0.00  0.00    -0.048 S 
ATOM     23  O   UNL     1      35.251 -16.158 -20.675  0.00  0.00    -0.274 OA
ATOM     24  O   UNL     1      35.313 -16.277 -25.292  0.00  0.00    -0.263 OA
ATOM     25  N   UNL     1      35.296 -16.012 -22.983  0.00  0.00    -0.246 N 
ATOM     26  C   UNL     1      34.949 -18.161 -21.995  0.00  0.00    +0.137 C 
ATOM     27  C   UNL     1      35.181 -16.681 -21.782  0.00  0.00    +0.239 C 
ATOM     28  C   UNL     1      35.228 -16.718 -24.155  0.00  0.00    +0.279 C 
ATOM     29  H   UNL     1      35.424 -15.036 -22.996  0.00  0.00    +0.158 HD
ENDBRANCH  21  26
ENDBRANCH   1  21
TORSDOF 5
ENDMDL
MODEL 3
REMARK VINA RESULT:     -11.7      2.033      4.112
REMARK  Name = 9889200
REMARK  5 active torsions:
REMARK  status: ('A' for Active; 'I' for Inactive)
REMARK    1  A    between atoms: C_1  and  C_21
REMARK    2  A    between atoms: C_4  and  O_7
REMARK    3  A    between atoms: O_7  and  C_8
REMARK    4  A    between atoms: C_8  and  C_12
REMARK    5  A    between atoms: C_21  and  C_26
REMARK                            x       y       z     vdW  Elec       q    Type
REMARK                         _______ _______ _______ _____ _____    ______ ____
ROOT
ATOM      1  C   UNL     1      35.866 -19.860 -20.564  0.00  0.00    -0.021 C 
ATOM      2  C   UNL     1      36.816 -20.530 -19.795  0.00  0.00    -0.001 C 
ATOM      3  C   UNL     1      34.515 -20.187 -20.446  0.00  0.00    -0.001 C 
ATOM      4  C   UNL     1      35.070 -21.849 -18.798  0.00  0.00    +0.139 C 
ATOM      5  C   UNL     1      36.416 -21.531 -18.908  0.00  0.00    +0.037 C 
ATOM      6  C   UNL     1      34.115 -21.186 -19.558  0.00  0.00    +0.037 C 
ENDROOT
BRANCH   4   7
ATOM      7  O   UNL     1      34.676 -22.832 -17.922  0.00  0.00    -0.466 OA
BRANCH   7   8
ATOM      8  C   UNL     1      34.830 -22.570 -16.545  0.00  0.00    +0.279 C 
BRANCH   8  12
ATOM      9  O   UNL     1      32.977 -24.799 -12.679  0.00  0.00    -0.274 OA
ATOM     10  N   UNL     1      33.896 -23.721 -14.542  0.00  0.00    -0.232 N 
ATOM     11  N   UNL     1      32.489 -23.082 -16.350  0.00  0.00    -0.391 NA
ATOM     12  C   UNL     1      33.658 -23.149 -15.790  0.00  0.00    +0.210 C 
ATOM     13  C   UNL     1      31.516 -24.210 -14.406  0.00  0.00    +0.151 C 
ATOM     14  C   UNL     1      31.391 -23.615 -15.664  0.00  0.00    +0.123 C 
ATOM     15  C   UNL     1      32.855 -24.278 -13.783  0.00  0.00    +0.241 C 
ATOM     16  C   UNL     1      35.246 -23.757 -13.980  0.00  0.00    +0.122 C 
ATOM     17  C   UNL     1      30.399 -24.733 -13.747  0.00  0.00    -0.010 C 
ATOM     18  C   UNL     1      30.125 -23.549 -16.257  0.00  0.00    +0.028 C 
ATOM     19  C   UNL     1      29.144 -24.659 -14.349  0.00  0.00    -0.004 C 
ATOM     20  C   UNL     1      29.007 -24.068 -15.604  0.00  0.00    +0.002 C 
ENDBRANCH   8  12
ENDBRANCH   7   8
ENDBRANCH   4   7
BRANCH   1  21
ATOM     21  C   UNL     1      36.294 -18.792 -21.513  0.00  0.00    +0.047 C 
BRANCH  21  26
ATOM     22  S   UNL     1      35.104 -18.169 -23.926  0.00  0.00    -0.048 S 
ATOM     23  O   UNL     1      35.236 -16.109 -20.665  0.00  0.00    -0.274 OA
ATOM     24  O   UNL     1      35.096 -15.914 -25.278  0.00  0.00    -0.263 OA
ATOM     25  N   UNL     1      35.156 -15.806 -22.957  0.00  0.00    -0.246 N 
ATOM     26  C   UNL     1      35.106 -18.041 -22.112  0.00  0.00    +0.137 C 
ATOM     27  C   UNL     1      35.175 -16.562 -21.803  0.00  0.00    +0.239 C 
ATOM     28  C   UNL     1      35.116 -16.436 -24.173  0.00  0.00    +0.279 C 
ATOM     29  H   UNL     1      35.170 -14.823 -22.906  0.00  0.00    +0.158 HD
ENDBRANCH  21  26
ENDBRANCH   1  21
TORSDOF 5
ENDMDL
MODEL 4
REMARK VINA RESULT:     -11.6      1.177      1.518
REMARK  Name = 9889200
REMARK  5 active torsions:
REMARK  status: ('A' for Active; 'I' for Inactive)
REMARK    1  A    between atoms: C_1  and  C_21
REMARK    2  A    between atoms: C_4  and  O_7
REMARK    3  A    between atoms: O_7  and  C_8
REMARK    4  A    between atoms: C_8  and  C_12
REMARK    5  A    between atoms: C_21  and  C_26
REMARK                            x       y       z     vdW  Elec       q    Type
REMARK                         _______ _______ _______ _____ _____    ______ ____
ROOT
ATOM      1  C   UNL     1      35.685 -20.161 -20.278  0.00  0.00    -0.021 C 
ATOM      2  C   UNL     1      36.575 -20.848 -19.453  0.00  0.00    -0.001 C 
ATOM      3  C   UNL     1      34.324 -20.464 -20.243  0.00  0.00    -0.001 C 
ATOM      4  C   UNL     1      34.748 -22.135 -18.566  0.00  0.00    +0.139 C 
ATOM      5  C   UNL     1      36.104 -21.841 -18.593  0.00  0.00    +0.037 C 
ATOM      6  C   UNL     1      33.853 -21.455 -19.382  0.00  0.00    +0.037 C 
ENDROOT
BRANCH   4   7
ATOM      7  O   UNL     1      34.284 -23.111 -17.717  0.00  0.00    -0.466 OA
BRANCH   7   8
ATOM      8  C   UNL     1      33.799 -22.695 -16.459  0.00  0.00    +0.279 C 
BRANCH   8  12
ATOM      9  O   UNL     1      34.288 -24.446 -11.982  0.00  0.00    -0.274 OA
ATOM     10  N   UNL     1      34.028 -23.592 -14.146  0.00  0.00    -0.232 N 
ATOM     11  N   UNL     1      35.884 -23.560 -15.632  0.00  0.00    -0.391 NA
ATOM     12  C   UNL     1      34.638 -23.317 -15.368  0.00  0.00    +0.210 C 
ATOM     13  C   UNL     1      36.168 -24.455 -13.370  0.00  0.00    +0.151 C 
ATOM     14  C   UNL     1      36.677 -24.137 -14.632  0.00  0.00    +0.123 C 
ATOM     15  C   UNL     1      34.745 -24.171 -13.087  0.00  0.00    +0.241 C 
ATOM     16  C   UNL     1      32.615 -23.287 -13.927  0.00  0.00    +0.122 C 
ATOM     17  C   UNL     1      36.986 -25.030 -12.393  0.00  0.00    -0.010 C 
ATOM     18  C   UNL     1      38.023 -24.404 -14.904  0.00  0.00    +0.028 C 
ATOM     19  C   UNL     1      38.325 -25.291 -12.678  0.00  0.00    -0.004 C 
ATOM     20  C   UNL     1      38.844 -24.979 -13.933  0.00  0.00    +0.002 C 
ENDBRANCH   8  12
ENDBRANCH   7   8
ENDBRANCH   4   7
BRANCH   1  21
ATOM     21  C   UNL     1      36.189 -19.101 -21.198  0.00  0.00    +0.047 C 
BRANCH  21  26
ATOM     22  S   UNL     1      35.047 -18.687 -23.678  0.00  0.00    -0.048 S 
ATOM     23  O   UNL     1      35.307 -16.274 -20.678  0.00  0.00    -0.274 OA
ATOM     24  O   UNL     1      35.188 -16.609 -25.283  0.00  0.00    -0.263 OA
ATOM     25  N   UNL     1      35.251 -16.236 -22.990  0.00  0.00    -0.246 N 
ATOM     26  C   UNL     1      35.054 -18.350 -21.891  0.00  0.00    +0.137 C 
ATOM     27  C   UNL     1      35.218 -16.852 -21.756  0.00  0.00    +0.239 C 
ATOM     28  C   UNL     1      35.172 -16.999 -24.125  0.00  0.00    +0.279 C 
ATOM     29  H   UNL     1      35.328 -15.256 -23.053  0.00  0.00    +0.158 HD
ENDBRANCH  21  26
ENDBRANCH   1  21
TORSDOF 5
ENDMDL
MODEL 5
REMARK VINA RESULT:     -11.3      3.885     10.585
REMARK  Name = 9889200
REMARK  5 active torsions:
REMARK  status: ('A' for Active; 'I' for Inactive)
REMARK    1  A    between atoms: C_1  and  C_21
REMARK    2  A    between atoms: C_4  and  O_7
REMARK    3  A    between atoms: O_7  and  C_8
REMARK    4  A    between atoms: C_8  and  C_12
REMARK    5  A    between atoms: C_21  and  C_26
REMARK                            x       y       z     vdW  Elec       q    Type
REMARK                         _______ _______ _______ _____ _____    ______ ____
ROOT
ATOM      1  C   UNL     1      33.974 -22.200 -18.400  0.00  0.00    -0.021 C 
ATOM      2  C   UNL     1      35.361 -22.075 -18.334  0.00  0.00    -0.001 C 
ATOM      3  C   UNL     1      33.237 -21.361 -19.236  0.00  0.00    -0.001 C 
ATOM      4  C   UNL     1      35.269 -20.279 -19.930  0.00  0.00    +0.139 C 
ATOM      5  C   UNL     1      36.012 -21.109 -19.102  0.00  0.00    +0.037 C 
ATOM      6  C   UNL     1      33.887 -20.396 -20.004  0.00  0.00    +0.037 C 
ENDROOT
BRANCH   4   7
ATOM      7  O   UNL     1      35.911 -19.329 -20.688  0.00  0.00    -0.466 OA
BRANCH   7   8
ATOM      8  C   UNL     1      35.677 -19.347 -22.079  0.00  0.00    +0.279 C 
BRANCH   8  12
ATOM      9  O   UNL     1      34.182 -16.306 -25.523  0.00  0.00    -0.274 OA
ATOM     10  N   UNL     1      34.907 -17.797 -23.871  0.00  0.00    -0.232 N 
ATOM     11  N   UNL     1      35.300 -17.010 -21.661  0.00  0.00    -0.391 NA
ATOM     12  C   UNL     1      35.277 -17.966 -22.538  0.00  0.00    +0.210 C 
ATOM     13  C   UNL     1      34.544 -15.441 -23.382  0.00  0.00    +0.151 C 
ATOM     14  C   UNL     1      34.932 -15.722 -22.070  0.00  0.00    +0.123 C 
ATOM     15  C   UNL     1      34.522 -16.542 -24.368  0.00  0.00    +0.241 C 
ATOM     16  C   UNL     1      34.907 -18.928 -24.798  0.00  0.00    +0.122 C 
ATOM     17  C   UNL     1      34.181 -14.143 -23.758  0.00  0.00    -0.010 C 
ATOM     18  C   UNL     1      34.954 -14.682 -21.134  0.00  0.00    +0.028 C 
ATOM     19  C   UNL     1      34.207 -13.117 -22.815  0.00  0.00    -0.004 C 
ATOM     20  C   UNL     1      34.593 -13.386 -21.503  0.00  0.00    +0.002 C 
ENDBRANCH   8  12
ENDBRANCH   7   8
ENDBRANCH   4   7
BRANCH   1  21
ATOM     21  C   UNL     1      33.278 -23.231 -17.578  0.00  0.00    +0.047 C 
BRANCH  21  26
ATOM     22  S   UNL     1      33.509 -23.597 -14.851  0.00  0.00    -0.048 S 
ATOM     23  O   UNL     1      30.486 -22.345 -16.898  0.00  0.00    -0.274 OA
ATOM     24  O   UNL     1      31.828 -24.667 -13.137  0.00  0.00    -0.263 OA
ATOM     25  N   UNL     1      30.958 -23.524 -14.964  0.00  0.00    -0.246 N 
ATOM     26  C   UNL     1      32.790 -22.673 -16.243  0.00  0.00    +0.137 C 
ATOM     27  C   UNL     1      31.291 -22.814 -16.099  0.00  0.00    +0.239 C 
ATOM     28  C   UNL     1      31.955 -24.021 -14.166  0.00  0.00    +0.279 C 
ATOM     29  H   UNL     1      30.014 -23.671 -14.730  0.00  0.00    +0.158 HD
ENDBRANCH  21  26
ENDBRANCH   1  21
TORSDOF 5
ENDMDL
MODEL 6
REMARK VINA RESULT:     -11.2      4.726     12.069
REMARK  Name = 9889200
REMARK  5 active torsions:
REMARK  status: ('A' for Active; 'I' for Inactive)
REMARK    1  A    between atoms: C_1  and  C_21
REMARK    2  A    between atoms: C_4  and  O_7
REMARK    3  A    between atoms: O_7  and  C_8
REMARK    4  A    between atoms: C_8  and  C_12
REMARK    5  A    between atoms: C_21  and  C_26
REMARK                            x       y       z     vdW  Elec       q    Type
REMARK                         _______ _______ _______ _____ _____    ______ ____
ROOT
ATOM      1  C   UNL     1      35.138 -18.464 -22.265  0.00  0.00    -0.021 C 
ATOM      2  C   UNL     1      34.989 -18.163 -23.618  0.00  0.00    -0.001 C 
ATOM      3  C   UNL     1      35.331 -17.439 -21.339  0.00  0.00    -0.001 C 
ATOM      4  C   UNL     1      35.227 -15.823 -23.117  0.00  0.00    +0.139 C 
ATOM      5  C   UNL     1      35.034 -16.835 -24.046  0.00  0.00    +0.037 C 
ATOM      6  C   UNL     1      35.376 -16.113 -21.766  0.00  0.00    +0.037 C 
ENDROOT
BRANCH   4   7
ATOM      7  O   UNL     1      35.270 -14.516 -23.538  0.00  0.00    -0.466 OA
BRANCH   7   8
ATOM      8  C   UNL     1      34.137 -14.019 -24.218  0.00  0.00    +0.279 C 
BRANCH   8  12
ATOM      9  O   UNL     1      33.347  -9.255 -24.063  0.00  0.00    -0.274 OA
ATOM     10  N   UNL     1      33.740 -11.561 -24.159  0.00  0.00    -0.232 N 
ATOM     11  N   UNL     1      33.112 -12.942 -22.328  0.00  0.00    -0.391 NA
ATOM     12  C   UNL     1      33.627 -12.787 -23.509  0.00  0.00    +0.210 C 
ATOM     13  C   UNL     1      32.697 -10.531 -22.216  0.00  0.00    +0.151 C 
ATOM     14  C   UNL     1      32.635 -11.810 -21.656  0.00  0.00    +0.123 C 
ATOM     15  C   UNL     1      33.288 -10.374 -23.562  0.00  0.00    +0.241 C 
ATOM     16  C   UNL     1      34.335 -11.470 -25.492  0.00  0.00    +0.122 C 
ATOM     17  C   UNL     1      32.211  -9.421 -21.518  0.00  0.00    -0.010 C 
ATOM     18  C   UNL     1      32.077 -11.964 -20.382  0.00  0.00    +0.028 C 
ATOM     19  C   UNL     1      31.657  -9.589 -20.250  0.00  0.00    -0.004 C 
ATOM     20  C   UNL     1      31.590 -10.859 -19.682  0.00  0.00    +0.002 C 
ENDBRANCH   8  12
ENDBRANCH   7   8
ENDBRANCH   4   7
BRANCH   1  21
ATOM     21  C   UNL     1      35.091 -19.883 -21.808  0.00  0.00    +0.047 C 
BRANCH  21  26
ATOM     22  S   UNL     1      35.542 -21.266 -19.461  0.00  0.00    -0.048 S 
ATOM     23  O   UNL     1      32.232 -19.879 -20.879  0.00  0.00    -0.274 OA
ATOM     24  O   UNL     1      34.179 -23.227 -18.361  0.00  0.00    -0.263 OA
ATOM     25  N   UNL     1      33.016 -21.627 -19.583  0.00  0.00    -0.246 N 
ATOM     26  C   UNL     1      34.591 -20.011 -20.370  0.00  0.00    +0.137 C 
ATOM     27  C   UNL     1      33.151 -20.472 -20.324  0.00  0.00    +0.239 C 
ATOM     28  C   UNL     1      34.130 -22.210 -19.037  0.00  0.00    +0.279 C 
ATOM     29  H   UNL     1      32.127 -22.028 -19.446  0.00  0.00    +0.158 HD
ENDBRANCH  21  26
ENDBRANCH   1  21
TORSDOF 5
ENDMDL
MODEL 7
REMARK VINA RESULT:     -10.8      2.541     10.639
REMARK  Name = 9889200
REMARK  5 active torsions:
REMARK  status: ('A' for Active; 'I' for Inactive)
REMARK    1  A    between atoms: C_1  and  C_21
REMARK    2  A    between atoms: C_4  and  O_7
REMARK    3  A    between atoms: O_7  and  C_8
REMARK    4  A    between atoms: C_8  and  C_12
REMARK    5  A    between atoms: C_21  and  C_26
REMARK                            x       y       z     vdW  Elec       q    Type
REMARK                         _______ _______ _______ _____ _____    ______ ____
ROOT
ATOM      1  C   UNL     1      34.655 -22.398 -17.729  0.00  0.00    -0.021 C 
ATOM      2  C   UNL     1      35.832 -21.864 -18.254  0.00  0.00    -0.001 C 
ATOM      3  C   UNL     1      33.425 -22.066 -18.295  0.00  0.00    -0.001 C 
ATOM      4  C   UNL     1      34.548 -20.673 -19.901  0.00  0.00    +0.139 C 
ATOM      5  C   UNL     1      35.778 -20.996 -19.346  0.00  0.00    +0.037 C 
ATOM      6  C   UNL     1      33.371 -21.200 -19.387  0.00  0.00    +0.037 C 
ENDROOT
BRANCH   4   7
ATOM      7  O   UNL     1      34.495 -19.820 -20.978  0.00  0.00    -0.466 OA
BRANCH   7   8
ATOM      8  C   UNL     1      35.693 -19.174 -21.349  0.00  0.00    +0.279 C 
BRANCH   8  12
ATOM      9  O   UNL     1      34.726 -16.752 -25.417  0.00  0.00    -0.274 OA
ATOM     10  N   UNL     1      35.198 -17.945 -23.459  0.00  0.00    -0.232 N 
ATOM     11  N   UNL     1      35.261 -16.809 -21.370  0.00  0.00    -0.391 NA
ATOM     12  C   UNL     1      35.366 -17.892 -22.077  0.00  0.00    +0.210 C 
ATOM     13  C   UNL     1      34.768 -15.550 -23.412  0.00  0.00    +0.151 C 
ATOM     14  C   UNL     1      34.959 -15.611 -22.029  0.00  0.00    +0.123 C 
ATOM     15  C   UNL     1      34.892 -16.794 -24.201  0.00  0.00    +0.241 C 
ATOM     16  C   UNL     1      35.334 -19.208 -24.183  0.00  0.00    +0.122 C 
ATOM     17  C   UNL     1      34.466 -14.337 -24.040  0.00  0.00    -0.010 C 
ATOM     18  C   UNL     1      34.843 -14.435 -21.279  0.00  0.00    +0.028 C 
ATOM     19  C   UNL     1      34.353 -13.174 -23.280  0.00  0.00    -0.004 C 
ATOM     20  C   UNL     1      34.541 -13.223 -21.900  0.00  0.00    +0.002 C 
ENDBRANCH   8  12
ENDBRANCH   7   8
ENDBRANCH   4   7
BRANCH   1  21
ATOM     21  C   UNL     1      34.713 -23.323 -16.561  0.00  0.00    +0.047 C 
BRANCH  21  26
ATOM     22  S   UNL     1      37.053 -22.648 -15.259  0.00  0.00    -0.048 S 
ATOM     23  O   UNL     1      33.612 -23.570 -13.774  0.00  0.00    -0.274 OA
ATOM     24  O   UNL     1      38.186 -23.723 -13.144  0.00  0.00    -0.263 OA
ATOM     25  N   UNL     1      35.865 -23.731 -13.274  0.00  0.00    -0.246 N 
ATOM     26  C   UNL     1      35.235 -22.634 -15.302  0.00  0.00    +0.137 C 
ATOM     27  C   UNL     1      34.788 -23.356 -14.050  0.00  0.00    +0.239 C 
ATOM     28  C   UNL     1      37.135 -23.458 -13.709  0.00  0.00    +0.279 C 
ATOM     29  H   UNL     1      35.722 -24.188 -12.414  0.00  0.00    +0.158 HD
ENDBRANCH  21  26
ENDBRANCH   1  21
TORSDOF 5
ENDMDL
MODEL 8
REMARK VINA RESULT:     -10.8      2.346      3.717
REMARK  Name = 9889200
REMARK  5 active torsions:
REMARK  status: ('A' for Active; 'I' for Inactive)
REMARK    1  A    between atoms: C_1  and  C_21
REMARK    2  A    between atoms: C_4  and  O_7
REMARK    3  A    between atoms: O_7  and  C_8
REMARK    4  A    between atoms: C_8  and  C_12
REMARK    5  A    between atoms: C_21  and  C_26
REMARK                            x       y       z     vdW  Elec       q    Type
REMARK                         _______ _______ _______ _____ _____    ______ ____
ROOT
ATOM      1  C   UNL     1      36.061 -18.443 -21.602  0.00  0.00    -0.021 C 
ATOM      2  C   UNL     1      37.178 -18.926 -20.921  0.00  0.00    -0.001 C 
ATOM      3  C   UNL     1      34.823 -19.065 -21.442  0.00  0.00    -0.001 C 
ATOM      4  C   UNL     1      35.820 -20.644 -19.926  0.00  0.00    +0.139 C 
ATOM      5  C   UNL     1      37.057 -20.033 -20.079  0.00  0.00    +0.037 C 
ATOM      6  C   UNL     1      34.701 -20.170 -20.600  0.00  0.00    +0.037 C 
ENDROOT
BRANCH   4   7
ATOM      7  O   UNL     1      35.700 -21.732 -19.095  0.00  0.00    -0.466 OA
BRANCH   7   8
ATOM      8  C   UNL     1      36.423 -21.702 -17.884  0.00  0.00    +0.279 C 
BRANCH   8  12
ATOM      9  O   UNL     1      36.099 -23.856 -13.571  0.00  0.00    -0.274 OA
ATOM     10  N   UNL     1      36.279 -22.811 -15.658  0.00  0.00    -0.232 N 
ATOM     11  N   UNL     1      34.338 -22.508 -16.998  0.00  0.00    -0.391 NA
ATOM     12  C   UNL     1      35.614 -22.374 -16.801  0.00  0.00    +0.210 C 
ATOM     13  C   UNL     1      34.137 -23.603 -14.817  0.00  0.00    +0.151 C 
ATOM     14  C   UNL     1      33.572 -23.129 -16.004  0.00  0.00    +0.123 C 
ATOM     15  C   UNL     1      35.592 -23.442 -14.610  0.00  0.00    +0.241 C 
ATOM     16  C   UNL     1      37.722 -22.622 -15.512  0.00  0.00    +0.122 C 
ATOM     17  C   UNL     1      33.344 -24.219 -13.843  0.00  0.00    -0.010 C 
ATOM     18  C   UNL     1      32.196 -23.279 -16.204  0.00  0.00    +0.028 C 
ATOM     19  C   UNL     1      31.974 -24.362 -14.056  0.00  0.00    -0.004 C 
ATOM     20  C   UNL     1      31.400 -23.892 -15.236  0.00  0.00    +0.002 C 
ENDBRANCH   8  12
ENDBRANCH   7   8
ENDBRANCH   4   7
BRANCH   1  21
ATOM     21  C   UNL     1      36.191 -17.262 -22.503  0.00  0.00    +0.047 C 
BRANCH  21  26
ATOM     22  S   UNL     1      34.534 -16.654 -24.626  0.00  0.00    -0.048 S 
ATOM     23  O   UNL     1      34.993 -14.792 -21.277  0.00  0.00    -0.274 OA
ATOM     24  O   UNL     1      34.027 -14.342 -25.771  0.00  0.00    -0.263 OA
ATOM     25  N   UNL     1      34.479 -14.366 -23.491  0.00  0.00    -0.246 N 
ATOM     26  C   UNL     1      34.838 -16.636 -22.833  0.00  0.00    +0.137 C 
ATOM     27  C   UNL     1      34.787 -15.181 -22.422  0.00  0.00    +0.239 C 
ATOM     28  C   UNL     1      34.300 -14.922 -24.731  0.00  0.00    +0.279 C 
ATOM     29  H   UNL     1      34.387 -13.394 -23.364  0.00  0.00    +0.158 HD
ENDBRANCH  21  26
ENDBRANCH   1  21
TORSDOF 5
ENDMDL
MODEL 9
REMARK VINA RESULT:     -10.6      2.377      4.339
REMARK  Name = 9889200
REMARK  5 active torsions:
REMARK  status: ('A' for Active; 'I' for Inactive)
REMARK    1  A    between atoms: C_1  and  C_21
REMARK    2  A    between atoms: C_4  and  O_7
REMARK    3  A    between atoms: O_7  and  C_8
REMARK    4  A    between atoms: C_8  and  C_12
REMARK    5  A    between atoms: C_21  and  C_26
REMARK                            x       y       z     vdW  Elec       q    Type
REMARK                         _______ _______ _______ _____ _____    ______ ____
ROOT
ATOM      1  C   UNL     1      34.820 -19.148 -21.882  0.00  0.00    -0.021 C 
ATOM      2  C   UNL     1      33.674 -19.666 -21.281  0.00  0.00    -0.001 C 
ATOM      3  C   UNL     1      36.078 -19.441 -21.356  0.00  0.00    -0.001 C 
ATOM      4  C   UNL     1      35.041 -20.764 -19.635  0.00  0.00    +0.139 C 
ATOM      5  C   UNL     1      33.785 -20.478 -20.151  0.00  0.00    +0.037 C 
ATOM      6  C   UNL     1      36.189 -20.253 -20.227  0.00  0.00    +0.037 C 
ENDROOT
BRANCH   4   7
ATOM      7  O   UNL     1      35.151 -21.565 -18.524  0.00  0.00    -0.466 OA
BRANCH   7   8
ATOM      8  C   UNL     1      34.439 -22.784 -18.534  0.00  0.00    +0.279 C 
BRANCH   8  12
ATOM      9  O   UNL     1      33.818 -23.445 -13.788  0.00  0.00    -0.274 OA
ATOM     10  N   UNL     1      34.142 -23.129 -16.085  0.00  0.00    -0.232 N 
ATOM     11  N   UNL     1      32.279 -22.656 -17.486  0.00  0.00    -0.391 NA
ATOM     12  C   UNL     1      33.550 -22.855 -17.316  0.00  0.00    +0.210 C 
ATOM     13  C   UNL     1      31.928 -22.986 -15.085  0.00  0.00    +0.151 C 
ATOM     14  C   UNL     1      31.440 -22.719 -16.366  0.00  0.00    +0.123 C 
ATOM     15  C   UNL     1      33.379 -23.210 -14.910  0.00  0.00    +0.241 C 
ATOM     16  C   UNL     1      35.585 -23.342 -15.978  0.00  0.00    +0.122 C 
ATOM     17  C   UNL     1      31.063 -23.041 -13.987  0.00  0.00    -0.010 C 
ATOM     18  C   UNL     1      30.067 -22.507 -16.536  0.00  0.00    +0.028 C 
ATOM     19  C   UNL     1      29.698 -22.827 -14.171  0.00  0.00    -0.004 C 
ATOM     20  C   UNL     1      29.200 -22.560 -15.445  0.00  0.00    +0.002 C 
ENDBRANCH   8  12
ENDBRANCH   7   8
ENDBRANCH   4   7
BRANCH   1  21
ATOM     21  C   UNL     1      34.701 -18.279 -23.088  0.00  0.00    +0.047 C 
BRANCH  21  26
ATOM     22  S   UNL     1      35.145 -16.107 -21.441  0.00  0.00    -0.048 S 
ATOM     23  O   UNL     1      35.367 -16.339 -25.287  0.00  0.00    -0.274 OA
ATOM     24  O   UNL     1      34.385 -13.603 -21.697  0.00  0.00    -0.263 OA
ATOM     25  N   UNL     1      34.848 -14.816 -23.625  0.00  0.00    -0.246 N 
ATOM     26  C   UNL     1      35.541 -17.008 -22.970  0.00  0.00    +0.137 C 
ATOM     27  C   UNL     1      35.251 -16.047 -24.101  0.00  0.00    +0.239 C 
ATOM     28  C   UNL     1      34.729 -14.625 -22.273  0.00  0.00    +0.279 C 
ATOM     29  H   UNL     1      34.650 -14.083 -24.251  0.00  0.00    +0.158 HD
ENDBRANCH  21  26
ENDBRANCH   1  21
TORSDOF 5
ENDMDL
