MODEL 1
REMARK VINA RESULT:     -11.4      0.000      0.000
REMARK  Name = 100472
REMARK  3 active torsions:
REMARK  status: ('A' for Active; 'I' for Inactive)
REMARK    1  A    between atoms: C_1  and  C_13
REMARK    2  A    between atoms: C_2  and  C_7
REMARK    3  A    between atoms: C_13  and  C_16
REMARK                            x       y       z     vdW  Elec       q    Type
REMARK                         _______ _______ _______ _____ _____    ______ ____
ROOT
ATOM      1  C   UNL     1      35.196 -19.903 -21.036  0.00  0.00    -0.013 C 
ATOM      2  C   UNL     1      34.326 -21.406 -18.852  0.00  0.00    -0.000 C 
ATOM      3  C   UNL     1      36.125 -20.535 -20.209  0.00  0.00    -0.004 C 
ATOM      4  C   UNL     1      33.832 -20.023 -20.771  0.00  0.00    -0.004 C 
ATOM      5  C   UNL     1      35.690 -21.286 -19.117  0.00  0.00    -0.000 C 
ATOM      6  C   UNL     1      33.397 -20.774 -19.679  0.00  0.00    -0.000 C 
ENDROOT
BRANCH   2   7
ATOM      7  C   UNL     1      33.874 -22.184 -17.719  0.00  0.00    -0.000 C 
ATOM      8  C   UNL     1      34.803 -22.760 -16.853  0.00  0.00    -0.000 C 
ATOM      9  C   UNL     1      32.509 -22.358 -17.493  0.00  0.00    -0.000 C 
ATOM     10  C   UNL     1      34.368 -23.510 -15.761  0.00  0.00    +0.000 C 
ATOM     11  C   UNL     1      32.072 -23.107 -16.400  0.00  0.00    +0.000 C 
ATOM     12  C   UNL     1      33.003 -23.683 -15.534  0.00  0.00    +0.000 C 
ENDBRANCH   2   7
BRANCH   1  13
ATOM     13  C   UNL     1      35.662 -19.101 -22.204  0.00  0.00    +0.112 C 
BRANCH  13  16
ATOM     14  O   UNL     1      35.575 -17.017 -20.994  0.00  0.00    -0.274 OA
ATOM     15  N   UNL     1      35.010 -17.047 -23.274  0.00  0.00    -0.269 N 
ATOM     16  C   UNL     1      35.416 -17.601 -22.062  0.00  0.00    +0.232 C 
ATOM     17  H   UNL     1      34.935 -17.669 -24.033  0.00  0.00    +0.156 HD
ATOM     18  N   UNL     1      34.317 -15.370 -24.790  0.00  0.00    -0.229 NA
ATOM     19  C   UNL     1      34.691 -15.694 -23.540  0.00  0.00    +0.134 C 
ATOM     20  C   UNL     1      34.793 -14.811 -22.486  0.00  0.00    +0.034 C 
ATOM     21  C   UNL     1      34.482 -13.480 -22.737  0.00  0.00    +0.004 C 
ATOM     22  C   UNL     1      34.091 -13.091 -24.014  0.00  0.00    +0.021 C 
ATOM     23  C   UNL     1      34.025 -14.066 -24.996  0.00  0.00    +0.100 C 
ENDBRANCH  13  16
ENDBRANCH   1  13
TORSDOF 3
ENDMDL
MODEL 2
REMARK VINA RESULT:     -11.4      0.033      1.031
REMARK  Name = 100472
REMARK  3 active torsions:
REMARK  status: ('A' for Active; 'I' for Inactive)
REMARK    1  A    between atoms: C_1  and  C_13
REMARK    2  A    between atoms: C_2  and  C_7
REMARK    3  A    between atoms: C_13  and  C_16
REMARK                            x       y       z     vdW  Elec       q    Type
REMARK                         _______ _______ _______ _____ _____    ______ ____
ROOT
ATOM      1  C   UNL     1      35.188 -19.886 -21.037  0.00  0.00    -0.013 C 
ATOM      2  C   UNL     1      34.299 -21.390 -18.862  0.00  0.00    -0.000 C 
ATOM      3  C   UNL     1      36.110 -20.524 -20.207  0.00  0.00    -0.004 C 
ATOM      4  C   UNL     1      33.822 -19.999 -20.779  0.00  0.00    -0.004 C 
ATOM      5  C   UNL     1      35.665 -21.277 -19.120  0.00  0.00    -0.000 C 
ATOM      6  C   UNL     1      33.377 -20.752 -19.692  0.00  0.00    -0.000 C 
ENDROOT
BRANCH   2   7
ATOM      7  C   UNL     1      33.838 -22.170 -17.734  0.00  0.00    -0.000 C 
ATOM      8  C   UNL     1      32.471 -22.327 -17.506  0.00  0.00    -0.000 C 
ATOM      9  C   UNL     1      34.761 -22.765 -16.874  0.00  0.00    -0.000 C 
ATOM     10  C   UNL     1      32.026 -23.079 -16.419  0.00  0.00    +0.000 C 
ATOM     11  C   UNL     1      34.317 -23.517 -15.786  0.00  0.00    +0.000 C 
ATOM     12  C   UNL     1      32.949 -23.674 -15.560  0.00  0.00    +0.000 C 
ENDBRANCH   2   7
BRANCH   1  13
ATOM     13  C   UNL     1      35.663 -19.081 -22.200  0.00  0.00    +0.112 C 
BRANCH  13  16
ATOM     14  O   UNL     1      35.569 -16.998 -20.991  0.00  0.00    -0.274 OA
ATOM     15  N   UNL     1      35.013 -17.028 -23.272  0.00  0.00    -0.269 N 
ATOM     16  C   UNL     1      35.415 -17.582 -22.059  0.00  0.00    +0.232 C 
ATOM     17  H   UNL     1      34.942 -17.650 -24.032  0.00  0.00    +0.156 HD
ATOM     18  N   UNL     1      34.324 -15.352 -24.791  0.00  0.00    -0.229 NA
ATOM     19  C   UNL     1      34.693 -15.676 -23.539  0.00  0.00    +0.134 C 
ATOM     20  C   UNL     1      34.790 -14.793 -22.485  0.00  0.00    +0.034 C 
ATOM     21  C   UNL     1      34.479 -13.462 -22.738  0.00  0.00    +0.004 C 
ATOM     22  C   UNL     1      34.092 -13.074 -24.016  0.00  0.00    +0.021 C 
ATOM     23  C   UNL     1      34.031 -14.049 -24.999  0.00  0.00    +0.100 C 
ENDBRANCH  13  16
ENDBRANCH   1  13
TORSDOF 3
ENDMDL
MODEL 3
REMARK VINA RESULT:     -11.1      3.870      9.230
REMARK  Name = 100472
REMARK  3 active torsions:
REMARK  status: ('A' for Active; 'I' for Inactive)
REMARK    1  A    between atoms: C_1  and  C_13
REMARK    2  A    between atoms: C_2  and  C_7
REMARK    3  A    between atoms: C_13  and  C_16
REMARK                            x       y       z     vdW  Elec       q    Type
REMARK                         _______ _______ _______ _____ _____    ______ ____
ROOT
ATOM      1  C   UNL     1      34.807 -21.447 -19.013  0.00  0.00    -0.013 C 
ATOM      2  C   UNL     1      34.939 -19.598 -21.098  0.00  0.00    -0.000 C 
ATOM      3  C   UNL     1      36.046 -20.986 -19.460  0.00  0.00    -0.004 C 
ATOM      4  C   UNL     1      33.635 -20.983 -19.609  0.00  0.00    -0.004 C 
ATOM      5  C   UNL     1      36.112 -20.061 -20.502  0.00  0.00    -0.000 C 
ATOM      6  C   UNL     1      33.701 -20.059 -20.651  0.00  0.00    -0.000 C 
ENDROOT
BRANCH   2   7
ATOM      7  C   UNL     1      35.007 -18.639 -22.180  0.00  0.00    -0.000 C 
ATOM      8  C   UNL     1      35.496 -17.354 -21.944  0.00  0.00    -0.000 C 
ATOM      9  C   UNL     1      34.584 -19.001 -23.459  0.00  0.00    -0.000 C 
ATOM     10  C   UNL     1      35.562 -16.431 -22.987  0.00  0.00    +0.000 C 
ATOM     11  C   UNL     1      34.650 -18.077 -24.503  0.00  0.00    +0.000 C 
ATOM     12  C   UNL     1      35.140 -16.792 -24.266  0.00  0.00    +0.000 C 
ENDBRANCH   2   7
BRANCH   1  13
ATOM     13  C   UNL     1      34.737 -22.435 -17.898  0.00  0.00    +0.112 C 
BRANCH  13  16
ATOM     14  O   UNL     1      32.332 -22.305 -17.992  0.00  0.00    -0.274 OA
ATOM     15  N   UNL     1      33.356 -23.352 -16.156  0.00  0.00    -0.269 N 
ATOM     16  C   UNL     1      33.325 -22.678 -17.374  0.00  0.00    +0.232 C 
ATOM     17  H   UNL     1      34.248 -23.575 -15.804  0.00  0.00    +0.156 HD
ATOM     18  N   UNL     1      32.508 -24.400 -14.212  0.00  0.00    -0.229 NA
ATOM     19  C   UNL     1      32.253 -23.755 -15.364  0.00  0.00    +0.134 C 
ATOM     20  C   UNL     1      30.997 -23.452 -15.845  0.00  0.00    +0.034 C 
ATOM     21  C   UNL     1      29.908 -23.843 -15.075  0.00  0.00    +0.004 C 
ATOM     22  C   UNL     1      30.117 -24.514 -13.874  0.00  0.00    +0.021 C 
ATOM     23  C   UNL     1      31.424 -24.766 -13.491  0.00  0.00    +0.100 C 
ENDBRANCH  13  16
ENDBRANCH   1  13
TORSDOF 3
ENDMDL
MODEL 4
REMARK VINA RESULT:     -10.9      4.588      9.793
REMARK  Name = 100472
REMARK  3 active torsions:
REMARK  status: ('A' for Active; 'I' for Inactive)
REMARK    1  A    between atoms: C_1  and  C_13
REMARK    2  A    between atoms: C_2  and  C_7
REMARK    3  A    between atoms: C_13  and  C_16
REMARK                            x       y       z     vdW  Elec       q    Type
REMARK                         _______ _______ _______ _____ _____    ______ ____
ROOT
ATOM      1  C   UNL     1      34.274 -22.299 -17.903  0.00  0.00    -0.013 C 
ATOM      2  C   UNL     1      34.990 -20.583 -19.984  0.00  0.00    -0.000 C 
ATOM      3  C   UNL     1      33.287 -21.725 -18.706  0.00  0.00    -0.004 C 
ATOM      4  C   UNL     1      35.619 -22.014 -18.142  0.00  0.00    -0.004 C 
ATOM      5  C   UNL     1      33.645 -20.867 -19.746  0.00  0.00    -0.000 C 
ATOM      6  C   UNL     1      35.977 -21.157 -19.182  0.00  0.00    -0.000 C 
ENDROOT
BRANCH   2   7
ATOM      7  C   UNL     1      35.361 -19.692 -21.062  0.00  0.00    -0.000 C 
ATOM      8  C   UNL     1      34.450 -19.411 -22.080  0.00  0.00    -0.000 C 
ATOM      9  C   UNL     1      36.631 -19.115 -21.083  0.00  0.00    -0.000 C 
ATOM     10  C   UNL     1      34.808 -18.553 -23.119  0.00  0.00    +0.000 C 
ATOM     11  C   UNL     1      36.989 -18.256 -22.122  0.00  0.00    +0.000 C 
ATOM     12  C   UNL     1      36.077 -17.975 -23.140  0.00  0.00    +0.000 C 
ENDBRANCH   2   7
BRANCH   1  13
ATOM     13  C   UNL     1      33.892 -23.216 -16.792  0.00  0.00    +0.112 C 
BRANCH  13  16
ATOM     14  O   UNL     1      35.070 -22.202 -14.950  0.00  0.00    -0.274 OA
ATOM     15  N   UNL     1      35.452 -24.464 -15.451  0.00  0.00    -0.269 N 
ATOM     16  C   UNL     1      34.869 -23.211 -15.619  0.00  0.00    +0.232 C 
ATOM     17  H   UNL     1      35.171 -25.163 -16.085  0.00  0.00    +0.156 HD
ATOM     18  N   UNL     1      36.838 -26.123 -14.491  0.00  0.00    -0.229 NA
ATOM     19  C   UNL     1      36.401 -24.851 -14.476  0.00  0.00    +0.134 C 
ATOM     20  C   UNL     1      36.803 -23.883 -13.580  0.00  0.00    +0.034 C 
ATOM     21  C   UNL     1      37.735 -24.253 -12.617  0.00  0.00    +0.004 C 
ATOM     22  C   UNL     1      38.218 -25.556 -12.589  0.00  0.00    +0.021 C 
ATOM     23  C   UNL     1      37.742 -26.445 -13.539  0.00  0.00    +0.100 C 
ENDBRANCH  13  16
ENDBRANCH   1  13
TORSDOF 3
ENDMDL
MODEL 5
REMARK VINA RESULT:     -10.8      4.299      8.683
REMARK  Name = 100472
REMARK  3 active torsions:
REMARK  status: ('A' for Active; 'I' for Inactive)
REMARK    1  A    between atoms: C_1  and  C_13
REMARK    2  A    between atoms: C_2  and  C_7
REMARK    3  A    between atoms: C_13  and  C_16
REMARK                            x       y       z     vdW  Elec       q    Type
REMARK                         _______ _______ _______ _____ _____    ______ ____
ROOT
ATOM      1  C   UNL     1      34.261 -22.392 -17.918  0.00  0.00    -0.013 C 
ATOM      2  C   UNL     1      34.977 -20.618 -19.948  0.00  0.00    -0.000 C 
ATOM      3  C   UNL     1      33.280 -21.851 -18.750  0.00  0.00    -0.004 C 
ATOM      4  C   UNL     1      35.599 -22.046 -18.101  0.00  0.00    -0.004 C 
ATOM      5  C   UNL     1      33.638 -20.964 -19.765  0.00  0.00    -0.000 C 
ATOM      6  C   UNL     1      35.958 -21.159 -19.116  0.00  0.00    -0.000 C 
ENDROOT
BRANCH   2   7
ATOM      7  C   UNL     1      35.349 -19.697 -21.001  0.00  0.00    -0.000 C 
ATOM      8  C   UNL     1      34.449 -19.408 -22.026  0.00  0.00    -0.000 C 
ATOM      9  C   UNL     1      36.609 -19.099 -20.990  0.00  0.00    -0.000 C 
ATOM     10  C   UNL     1      34.807 -18.521 -23.040  0.00  0.00    +0.000 C 
ATOM     11  C   UNL     1      36.968 -18.210 -22.004  0.00  0.00    +0.000 C 
ATOM     12  C   UNL     1      36.066 -17.922 -23.029  0.00  0.00    +0.000 C 
ENDBRANCH   2   7
BRANCH   1  13
ATOM     13  C   UNL     1      33.877 -23.341 -16.833  0.00  0.00    +0.112 C 
BRANCH  13  16
ATOM     14  O   UNL     1      32.755 -22.405 -14.916  0.00  0.00    -0.274 OA
ATOM     15  N   UNL     1      31.481 -23.152 -16.741  0.00  0.00    -0.269 N 
ATOM     16  C   UNL     1      32.653 -22.904 -16.032  0.00  0.00    +0.232 C 
ATOM     17  H   UNL     1      31.588 -23.562 -17.630  0.00  0.00    +0.156 HD
ATOM     18  N   UNL     1      29.157 -23.206 -17.178  0.00  0.00    -0.229 NA
ATOM     19  C   UNL     1      30.152 -22.885 -16.333  0.00  0.00    +0.134 C 
ATOM     20  C   UNL     1      29.986 -22.310 -15.091  0.00  0.00    +0.034 C 
ATOM     21  C   UNL     1      28.685 -22.043 -14.681  0.00  0.00    +0.004 C 
ATOM     22  C   UNL     1      27.620 -22.355 -15.518  0.00  0.00    +0.021 C 
ATOM     23  C   UNL     1      27.906 -22.930 -16.745  0.00  0.00    +0.100 C 
ENDBRANCH  13  16
ENDBRANCH   1  13
TORSDOF 3
ENDMDL
MODEL 6
REMARK VINA RESULT:     -10.7      2.226      4.065
REMARK  Name = 100472
REMARK  3 active torsions:
REMARK  status: ('A' for Active; 'I' for Inactive)
REMARK    1  A    between atoms: C_1  and  C_13
REMARK    2  A    between atoms: C_2  and  C_7
REMARK    3  A    between atoms: C_13  and  C_16
REMARK                            x       y       z     vdW  Elec       q    Type
REMARK                         _______ _______ _______ _____ _____    ______ ____
ROOT
ATOM      1  C   UNL     1      35.158 -16.867 -23.432  0.00  0.00    -0.013 C 
ATOM      2  C   UNL     1      34.963 -18.926 -21.559  0.00  0.00    -0.000 C 
ATOM      3  C   UNL     1      35.697 -16.703 -22.156  0.00  0.00    -0.004 C 
ATOM      4  C   UNL     1      34.521 -18.061 -23.771  0.00  0.00    -0.004 C 
ATOM      5  C   UNL     1      35.600 -17.732 -21.220  0.00  0.00    -0.000 C 
ATOM      6  C   UNL     1      34.424 -19.090 -22.835  0.00  0.00    -0.000 C 
ENDROOT
BRANCH   2   7
ATOM      7  C   UNL     1      34.862 -19.994 -20.588  0.00  0.00    -0.000 C 
ATOM      8  C   UNL     1      33.609 -20.440 -20.171  0.00  0.00    -0.000 C 
ATOM      9  C   UNL     1      36.018 -20.576 -20.069  0.00  0.00    -0.000 C 
ATOM     10  C   UNL     1      33.511 -21.470 -19.235  0.00  0.00    +0.000 C 
ATOM     11  C   UNL     1      35.921 -21.606 -19.133  0.00  0.00    +0.000 C 
ATOM     12  C   UNL     1      34.667 -22.053 -18.717  0.00  0.00    +0.000 C 
ENDBRANCH   2   7
BRANCH   1  13
ATOM     13  C   UNL     1      35.262 -15.767 -24.434  0.00  0.00    +0.112 C 
BRANCH  13  16
ATOM     14  O   UNL     1      34.142 -13.688 -24.919  0.00  0.00    -0.274 OA
ATOM     15  N   UNL     1      34.142 -14.507 -22.717  0.00  0.00    -0.269 N 
ATOM     16  C   UNL     1      34.451 -14.524 -24.075  0.00  0.00    +0.232 C 
ATOM     17  H   UNL     1      34.474 -15.266 -22.185  0.00  0.00    +0.156 HD
ATOM     18  N   UNL     1      33.222 -13.702 -20.693  0.00  0.00    -0.229 NA
ATOM     19  C   UNL     1      33.407 -13.524 -22.013  0.00  0.00    +0.134 C 
ATOM     20  C   UNL     1      32.933 -12.456 -22.745  0.00  0.00    +0.034 C 
ATOM     21  C   UNL     1      32.209 -11.486 -22.062  0.00  0.00    +0.004 C 
ATOM     22  C   UNL     1      31.989 -11.623 -20.696  0.00  0.00    +0.021 C 
ATOM     23  C   UNL     1      32.512 -12.739 -20.064  0.00  0.00    +0.100 C 
ENDBRANCH  13  16
ENDBRANCH   1  13
TORSDOF 3
ENDMDL
MODEL 7
REMARK VINA RESULT:     -10.7      2.247      8.908
REMARK  Name = 100472
REMARK  3 active torsions:
REMARK  status: ('A' for Active; 'I' for Inactive)
REMARK    1  A    between atoms: C_1  and  C_13
REMARK    2  A    between atoms: C_2  and  C_7
REMARK    3  A    between atoms: C_13  and  C_16
REMARK                            x       y       z     vdW  Elec       q    Type
REMARK                         _______ _______ _______ _____ _____    ______ ____
ROOT
ATOM      1  C   UNL     1      34.811 -16.113 -23.928  0.00  0.00    -0.013 C 
ATOM      2  C   UNL     1      33.809 -13.600 -23.242  0.00  0.00    -0.000 C 
ATOM      3  C   UNL     1      33.988 -15.423 -24.818  0.00  0.00    -0.004 C 
ATOM      4  C   UNL     1      35.132 -15.546 -22.694  0.00  0.00    -0.004 C 
ATOM      5  C   UNL     1      33.488 -14.167 -24.476  0.00  0.00    -0.000 C 
ATOM      6  C   UNL     1      34.632 -14.290 -22.351  0.00  0.00    -0.000 C 
ENDROOT
BRANCH   2   7
ATOM      7  C   UNL     1      33.290 -12.298 -22.886  0.00  0.00    -0.000 C 
ATOM      8  C   UNL     1      32.385 -12.171 -21.832  0.00  0.00    -0.000 C 
ATOM      9  C   UNL     1      33.694 -11.168 -23.598  0.00  0.00    -0.000 C 
ATOM     10  C   UNL     1      31.885 -10.916 -21.489  0.00  0.00    +0.000 C 
ATOM     11  C   UNL     1      33.194  -9.912 -23.254  0.00  0.00    +0.000 C 
ATOM     12  C   UNL     1      32.289  -9.786 -22.199  0.00  0.00    +0.000 C 
ENDBRANCH   2   7
BRANCH   1  13
ATOM     13  C   UNL     1      35.346 -17.456 -24.294  0.00  0.00    +0.112 C 
BRANCH  13  16
ATOM     14  O   UNL     1      36.930 -18.468 -22.785  0.00  0.00    -0.274 OA
ATOM     15  N   UNL     1      34.634 -18.837 -22.458  0.00  0.00    -0.269 N 
ATOM     16  C   UNL     1      35.753 -18.309 -23.096  0.00  0.00    +0.232 C 
ATOM     17  H   UNL     1      33.760 -18.603 -22.847  0.00  0.00    +0.156 HD
ATOM     18  N   UNL     1      33.406 -20.073 -20.858  0.00  0.00    -0.229 NA
ATOM     19  C   UNL     1      34.605 -19.672 -21.315  0.00  0.00    +0.134 C 
ATOM     20  C   UNL     1      35.821 -20.006 -20.758  0.00  0.00    +0.034 C 
ATOM     21  C   UNL     1      35.804 -20.825 -19.635  0.00  0.00    +0.004 C 
ATOM     22  C   UNL     1      34.589 -21.267 -19.122  0.00  0.00    +0.021 C 
ATOM     23  C   UNL     1      33.429 -20.866 -19.764  0.00  0.00    +0.100 C 
ENDBRANCH  13  16
ENDBRANCH   1  13
TORSDOF 3
ENDMDL
MODEL 8
REMARK VINA RESULT:     -10.6      4.078      9.408
REMARK  Name = 100472
REMARK  3 active torsions:
REMARK  status: ('A' for Active; 'I' for Inactive)
REMARK    1  A    between atoms: C_1  and  C_13
REMARK    2  A    between atoms: C_2  and  C_7
REMARK    3  A    between atoms: C_13  and  C_16
REMARK                            x       y       z     vdW  Elec       q    Type
REMARK                         _______ _______ _______ _____ _____    ______ ____
ROOT
ATOM      1  C   UNL     1      34.150 -21.768 -18.865  0.00  0.00    -0.013 C 
ATOM      2  C   UNL     1      34.622 -19.865 -20.851  0.00  0.00    -0.000 C 
ATOM      3  C   UNL     1      33.079 -21.105 -19.465  0.00  0.00    -0.004 C 
ATOM      4  C   UNL     1      35.457 -21.479 -19.258  0.00  0.00    -0.004 C 
ATOM      5  C   UNL     1      33.315 -20.154 -20.458  0.00  0.00    -0.000 C 
ATOM      6  C   UNL     1      35.693 -20.528 -20.250  0.00  0.00    -0.000 C 
ENDROOT
BRANCH   2   7
ATOM      7  C   UNL     1      34.868 -18.878 -21.880  0.00  0.00    -0.000 C 
ATOM      8  C   UNL     1      34.514 -19.146 -23.202  0.00  0.00    -0.000 C 
ATOM      9  C   UNL     1      35.458 -17.659 -21.549  0.00  0.00    -0.000 C 
ATOM     10  C   UNL     1      34.750 -18.194 -24.194  0.00  0.00    +0.000 C 
ATOM     11  C   UNL     1      35.694 -16.706 -22.540  0.00  0.00    +0.000 C 
ATOM     12  C   UNL     1      35.339 -16.974 -23.863  0.00  0.00    +0.000 C 
ENDBRANCH   2   7
BRANCH   1  13
ATOM     13  C   UNL     1      33.898 -22.785 -17.804  0.00  0.00    +0.112 C 
BRANCH  13  16
ATOM     14  O   UNL     1      36.092 -22.410 -16.881  0.00  0.00    -0.274 OA
ATOM     15  N   UNL     1      34.398 -23.271 -15.502  0.00  0.00    -0.269 N 
ATOM     16  C   UNL     1      34.942 -22.792 -16.691  0.00  0.00    +0.232 C 
ATOM     17  H   UNL     1      33.450 -23.535 -15.532  0.00  0.00    +0.156 HD
ATOM     18  N   UNL     1      34.334 -23.911 -13.226  0.00  0.00    -0.229 NA
ATOM     19  C   UNL     1      35.050 -23.425 -14.255  0.00  0.00    +0.134 C 
ATOM     20  C   UNL     1      36.378 -23.058 -14.197  0.00  0.00    +0.034 C 
ATOM     21  C   UNL     1      37.027 -23.204 -12.977  0.00  0.00    +0.004 C 
ATOM     22  C   UNL     1      36.332 -23.702 -11.880  0.00  0.00    +0.021 C 
ATOM     23  C   UNL     1      34.999 -24.037 -12.056  0.00  0.00    +0.100 C 
ENDBRANCH  13  16
ENDBRANCH   1  13
TORSDOF 3
ENDMDL
MODEL 9
REMARK VINA RESULT:     -10.5      2.224      9.029
REMARK  Name = 100472
REMARK  3 active torsions:
REMARK  status: ('A' for Active; 'I' for Inactive)
REMARK    1  A    between atoms: C_1  and  C_13
REMARK    2  A    between atoms: C_2  and  C_7
REMARK    3  A    between atoms: C_13  and  C_16
REMARK                            x       y       z     vdW  Elec       q    Type
REMARK                         _______ _______ _______ _____ _____    ______ ____
ROOT
ATOM      1  C   UNL     1      35.221 -16.582 -23.242  0.00  0.00    -0.013 C 
ATOM      2  C   UNL     1      34.257 -13.966 -23.129  0.00  0.00    -0.000 C 
ATOM      3  C   UNL     1      35.236 -15.884 -22.034  0.00  0.00    -0.004 C 
ATOM      4  C   UNL     1      34.724 -15.971 -24.393  0.00  0.00    -0.004 C 
ATOM      5  C   UNL     1      34.754 -14.577 -21.977  0.00  0.00    -0.000 C 
ATOM      6  C   UNL     1      34.241 -14.664 -24.337  0.00  0.00    -0.000 C 
ENDROOT
BRANCH   2   7
ATOM      7  C   UNL     1      33.757 -12.609 -23.070  0.00  0.00    -0.000 C 
ATOM      8  C   UNL     1      34.258 -11.643 -23.942  0.00  0.00    -0.000 C 
ATOM      9  C   UNL     1      32.773 -12.269 -22.142  0.00  0.00    -0.000 C 
ATOM     10  C   UNL     1      33.776 -10.335 -23.886  0.00  0.00    +0.000 C 
ATOM     11  C   UNL     1      32.290 -10.961 -22.086  0.00  0.00    +0.000 C 
ATOM     12  C   UNL     1      32.792  -9.995 -22.959  0.00  0.00    +0.000 C 
ENDBRANCH   2   7
BRANCH   1  13
ATOM     13  C   UNL     1      35.737 -17.980 -23.302  0.00  0.00    +0.112 C 
BRANCH  13  16
ATOM     14  O   UNL     1      33.864 -19.252 -22.476  0.00  0.00    -0.274 OA
ATOM     15  N   UNL     1      35.919 -19.368 -21.346  0.00  0.00    -0.269 N 
ATOM     16  C   UNL     1      35.042 -18.939 -22.339  0.00  0.00    +0.232 C 
ATOM     17  H   UNL     1      36.836 -19.011 -21.391  0.00  0.00    +0.156 HD
ATOM     18  N   UNL     1      36.645 -20.541 -19.425  0.00  0.00    -0.229 NA
ATOM     19  C   UNL     1      35.646 -20.257 -20.279  0.00  0.00    +0.134 C 
ATOM     20  C   UNL     1      34.367 -20.767 -20.205  0.00  0.00    +0.034 C 
ATOM     21  C   UNL     1      34.089 -21.642 -19.162  0.00  0.00    +0.004 C 
ATOM     22  C   UNL     1      35.087 -21.968 -18.250  0.00  0.00    +0.021 C 
ATOM     23  C   UNL     1      36.337 -21.397 -18.424  0.00  0.00    +0.100 C 
ENDBRANCH  13  16
ENDBRANCH   1  13
TORSDOF 3
ENDMDL
