MODEL 1
REMARK VINA RESULT:     -11.7      0.000      0.000
REMARK  Name = 10200651
REMARK  5 active torsions:
REMARK  status: ('A' for Active; 'I' for Inactive)
REMARK    1  A    between atoms: C_1  and  C_7
REMARK    2  A    between atoms: C_4  and  C_22
REMARK    3  A    between atoms: C_10  and  C_17
REMARK    4  A    between atoms: N_21  and  C_24
REMARK    5  A    between atoms: C_27  and  C_31
REMARK                            x       y       z     vdW  Elec       q    Type
REMARK                         _______ _______ _______ _____ _____    ______ ____
ROOT
ATOM      1  C   UNL     1      35.120 -19.228 -21.496  0.00  0.00    -0.000 C 
ATOM      2  C   UNL     1      33.939 -19.778 -20.997  0.00  0.00    +0.000 C 
ATOM      3  C   UNL     1      36.347 -19.595 -20.946  0.00  0.00    +0.000 C 
ATOM      4  C   UNL     1      35.213 -21.042 -19.422  0.00  0.00    +0.054 C 
ATOM      5  C   UNL     1      33.986 -20.695 -19.948  0.00  0.00    +0.005 C 
ATOM      6  C   UNL     1      36.395 -20.513 -19.897  0.00  0.00    +0.005 C 
ENDROOT
BRANCH   1   7
ATOM      7  C   UNL     1      35.071 -18.276 -22.585  0.00  0.00    -0.004 C 
ATOM      8  C   UNL     1      35.180 -18.691 -23.913  0.00  0.00    -0.022 C 
ATOM      9  C   UNL     1      34.911 -16.920 -22.293  0.00  0.00    +0.004 C 
ATOM     10  C   UNL     1      34.862 -15.982 -23.325  0.00  0.00    +0.055 C 
ATOM     11  C   UNL     1      35.130 -17.754 -24.945  0.00  0.00    -0.004 C 
ATOM     12  C   UNL     1      34.971 -16.400 -24.651  0.00  0.00    +0.004 C 
ATOM     13  C   UNL     1      35.352 -20.133 -24.267  0.00  0.00    +0.031 C 
BRANCH  10  17
ATOM     14  O   UNL     1      34.522 -13.765 -24.092  0.00  0.00    -0.420 OA
ATOM     15  N   UNL     1      34.692 -13.963 -21.870  0.00  0.00    -0.107 NA
ATOM     16  N   UNL     1      34.499 -12.627 -22.166  0.00  0.00    -0.111 NA
ATOM     17  C   UNL     1      34.698 -14.582 -23.021  0.00  0.00    +0.250 A 
ATOM     18  C   UNL     1      34.407 -12.558 -23.473  0.00  0.00    +0.227 A 
ATOM     19  C   UNL     1      34.200 -11.390 -24.336  0.00  0.00    +0.097 C 
ENDBRANCH  10  17
ENDBRANCH   1   7
BRANCH   4  22
ATOM     20  O   UNL     1      34.541 -23.007 -18.376  0.00  0.00    -0.270 OA
ATOM     21  N   UNL     1      36.164 -21.711 -17.275  0.00  0.00    -0.280 N 
ATOM     22  C   UNL     1      35.263 -22.019 -18.303  0.00  0.00    +0.249 C 
ATOM     23  H   UNL     1      36.666 -20.870 -17.379  0.00  0.00    +0.155 HD
BRANCH  21  24
ATOM     24  C   UNL     1      36.439 -22.449 -16.123  0.00  0.00    +0.051 C 
ATOM     25  C   UNL     1      35.404 -22.811 -15.263  0.00  0.00    +0.025 C 
ATOM     26  C   UNL     1      37.750 -22.825 -15.833  0.00  0.00    +0.015 C 
ATOM     27  C   UNL     1      35.679 -23.549 -14.111  0.00  0.00    +0.070 C 
ATOM     28  C   UNL     1      38.027 -23.562 -14.682  0.00  0.00    +0.002 C 
ATOM     29  C   UNL     1      36.991 -23.924 -13.821  0.00  0.00    +0.010 C 
BRANCH  27  31
ATOM     30  N   UNL     1      33.755 -24.222 -12.512  0.00  0.00    -0.191 NA
ATOM     31  C   UNL     1      34.618 -23.920 -13.229  0.00  0.00    +0.100 C 
ENDBRANCH  27  31
ENDBRANCH  21  24
ENDBRANCH   4  22
TORSDOF 5
ENDMDL
MODEL 2
REMARK VINA RESULT:     -11.5      1.163      1.629
REMARK  Name = 10200651
REMARK  5 active torsions:
REMARK  status: ('A' for Active; 'I' for Inactive)
REMARK    1  A    between atoms: C_1  and  C_7
REMARK    2  A    between atoms: C_4  and  C_22
REMARK    3  A    between atoms: C_10  and  C_17
REMARK    4  A    between atoms: N_21  and  C_24
REMARK    5  A    between atoms: C_27  and  C_31
REMARK                            x       y       z     vdW  Elec       q    Type
REMARK                         _______ _______ _______ _____ _____    ______ ____
ROOT
ATOM      1  C   UNL     1      34.862 -19.412 -21.438  0.00  0.00    -0.000 C 
ATOM      2  C   UNL     1      33.614 -19.815 -20.961  0.00  0.00    +0.000 C 
ATOM      3  C   UNL     1      36.025 -19.952 -20.892  0.00  0.00    +0.000 C 
ATOM      4  C   UNL     1      34.697 -21.277 -19.415  0.00  0.00    +0.054 C 
ATOM      5  C   UNL     1      33.531 -20.758 -19.938  0.00  0.00    +0.005 C 
ATOM      6  C   UNL     1      35.942 -20.895 -19.868  0.00  0.00    +0.005 C 
ENDROOT
BRANCH   1   7
ATOM      7  C   UNL     1      34.948 -18.432 -22.500  0.00  0.00    -0.004 C 
ATOM      8  C   UNL     1      35.168 -18.820 -23.823  0.00  0.00    -0.022 C 
ATOM      9  C   UNL     1      34.807 -17.079 -22.187  0.00  0.00    +0.004 C 
ATOM     10  C   UNL     1      34.887 -16.116 -23.193  0.00  0.00    +0.055 C 
ATOM     11  C   UNL     1      35.249 -17.856 -24.829  0.00  0.00    -0.004 C 
ATOM     12  C   UNL     1      35.107 -16.505 -24.515  0.00  0.00    +0.004 C 
ATOM     13  C   UNL     1      35.325 -20.257 -24.198  0.00  0.00    +0.031 C 
BRANCH  10  17
ATOM     14  O   UNL     1      34.530 -13.888 -23.922  0.00  0.00    -0.420 OA
ATOM     15  N   UNL     1      34.783 -14.112 -21.711  0.00  0.00    -0.107 NA
ATOM     16  N   UNL     1      34.586 -12.772 -21.985  0.00  0.00    -0.111 NA
ATOM     17  C   UNL     1      34.742 -14.718 -22.868  0.00  0.00    +0.250 A 
ATOM     18  C   UNL     1      34.444 -12.688 -23.286  0.00  0.00    +0.227 A 
ATOM     19  C   UNL     1      34.210 -11.509 -24.128  0.00  0.00    +0.097 C 
ENDBRANCH  10  17
ENDBRANCH   1   7
BRANCH   4  22
ATOM     20  O   UNL     1      33.916 -23.275 -18.517  0.00  0.00    -0.270 OA
ATOM     21  N   UNL     1      35.358 -21.991 -17.175  0.00  0.00    -0.280 N 
ATOM     22  C   UNL     1      34.608 -22.282 -18.323  0.00  0.00    +0.249 C 
ATOM     23  H   UNL     1      35.859 -21.143 -17.190  0.00  0.00    +0.155 HD
BRANCH  21  24
ATOM     24  C   UNL     1      35.484 -22.756 -16.015  0.00  0.00    +0.051 C 
ATOM     25  C   UNL     1      36.745 -23.166 -15.583  0.00  0.00    +0.025 C 
ATOM     26  C   UNL     1      34.349 -23.110 -15.286  0.00  0.00    +0.015 C 
ATOM     27  C   UNL     1      36.872 -23.930 -14.423  0.00  0.00    +0.070 C 
ATOM     28  C   UNL     1      34.474 -23.874 -14.126  0.00  0.00    +0.002 C 
ATOM     29  C   UNL     1      35.736 -24.284 -13.695  0.00  0.00    +0.010 C 
BRANCH  27  31
ATOM     30  N   UNL     1      39.214 -24.693 -13.622  0.00  0.00    -0.191 NA
ATOM     31  C   UNL     1      38.163 -24.351 -13.981  0.00  0.00    +0.100 C 
ENDBRANCH  27  31
ENDBRANCH  21  24
ENDBRANCH   4  22
TORSDOF 5
ENDMDL
MODEL 3
REMARK VINA RESULT:     -11.2      1.755      2.146
REMARK  Name = 10200651
REMARK  5 active torsions:
REMARK  status: ('A' for Active; 'I' for Inactive)
REMARK    1  A    between atoms: C_1  and  C_7
REMARK    2  A    between atoms: C_4  and  C_22
REMARK    3  A    between atoms: C_10  and  C_17
REMARK    4  A    between atoms: N_21  and  C_24
REMARK    5  A    between atoms: C_27  and  C_31
REMARK                            x       y       z     vdW  Elec       q    Type
REMARK                         _______ _______ _______ _____ _____    ______ ____
ROOT
ATOM      1  C   UNL     1      34.972 -19.265 -21.463  0.00  0.00    -0.000 C 
ATOM      2  C   UNL     1      33.762 -19.757 -20.974  0.00  0.00    +0.000 C 
ATOM      3  C   UNL     1      36.175 -19.666 -20.883  0.00  0.00    +0.000 C 
ATOM      4  C   UNL     1      34.959 -21.031 -19.347  0.00  0.00    +0.054 C 
ATOM      5  C   UNL     1      33.755 -20.650 -19.903  0.00  0.00    +0.005 C 
ATOM      6  C   UNL     1      36.168 -20.559 -19.812  0.00  0.00    +0.005 C 
ENDROOT
BRANCH   1   7
ATOM      7  C   UNL     1      34.979 -18.338 -22.575  0.00  0.00    -0.004 C 
ATOM      8  C   UNL     1      35.118 -18.787 -23.889  0.00  0.00    -0.022 C 
ATOM      9  C   UNL     1      34.844 -16.971 -22.318  0.00  0.00    +0.004 C 
ATOM     10  C   UNL     1      34.849 -16.058 -23.372  0.00  0.00    +0.055 C 
ATOM     11  C   UNL     1      35.123 -17.873 -24.943  0.00  0.00    -0.004 C 
ATOM     12  C   UNL     1      34.987 -16.509 -24.685  0.00  0.00    +0.004 C 
ATOM     13  C   UNL     1      35.264 -20.240 -24.205  0.00  0.00    +0.031 C 
BRANCH  10  17
ATOM     14  O   UNL     1      34.503 -13.861 -24.193  0.00  0.00    -0.420 OA
ATOM     15  N   UNL     1      34.755 -13.994 -21.975  0.00  0.00    -0.107 NA
ATOM     16  N   UNL     1      34.564 -12.665 -22.304  0.00  0.00    -0.111 NA
ATOM     17  C   UNL     1      34.711 -14.647 -23.106  0.00  0.00    +0.250 A 
ATOM     18  C   UNL     1      34.423 -12.635 -23.608  0.00  0.00    +0.227 A 
ATOM     19  C   UNL     1      34.194 -11.491 -24.499  0.00  0.00    +0.097 C 
ENDBRANCH  10  17
ENDBRANCH   1   7
BRANCH   4  22
ATOM     20  O   UNL     1      36.015 -22.504 -17.889  0.00  0.00    -0.270 OA
ATOM     21  N   UNL     1      33.708 -22.169 -17.586  0.00  0.00    -0.280 N 
ATOM     22  C   UNL     1      34.951 -21.983 -18.205  0.00  0.00    +0.249 C 
ATOM     23  H   UNL     1      32.953 -21.667 -17.973  0.00  0.00    +0.155 HD
BRANCH  21  24
ATOM     24  C   UNL     1      33.407 -22.974 -16.487  0.00  0.00    +0.051 C 
ATOM     25  C   UNL     1      32.085 -23.329 -16.223  0.00  0.00    +0.025 C 
ATOM     26  C   UNL     1      34.429 -23.425 -15.652  0.00  0.00    +0.015 C 
ATOM     27  C   UNL     1      31.784 -24.135 -15.124  0.00  0.00    +0.070 C 
ATOM     28  C   UNL     1      34.130 -24.229 -14.553  0.00  0.00    +0.002 C 
ATOM     29  C   UNL     1      32.807 -24.584 -14.289  0.00  0.00    +0.010 C 
BRANCH  27  31
ATOM     30  N   UNL     1      29.327 -24.794 -14.633  0.00  0.00    -0.191 NA
ATOM     31  C   UNL     1      30.429 -24.498 -14.853  0.00  0.00    +0.100 C 
ENDBRANCH  27  31
ENDBRANCH  21  24
ENDBRANCH   4  22
TORSDOF 5
ENDMDL
MODEL 4
REMARK VINA RESULT:     -11.2      2.214     10.688
REMARK  Name = 10200651
REMARK  5 active torsions:
REMARK  status: ('A' for Active; 'I' for Inactive)
REMARK    1  A    between atoms: C_1  and  C_7
REMARK    2  A    between atoms: C_4  and  C_22
REMARK    3  A    between atoms: C_10  and  C_17
REMARK    4  A    between atoms: N_21  and  C_24
REMARK    5  A    between atoms: C_27  and  C_31
REMARK                            x       y       z     vdW  Elec       q    Type
REMARK                         _______ _______ _______ _____ _____    ______ ____
ROOT
ATOM      1  C   UNL     1      35.929 -22.097 -17.126  0.00  0.00    -0.000 C 
ATOM      2  C   UNL     1      37.057 -21.285 -17.243  0.00  0.00    +0.000 C 
ATOM      3  C   UNL     1      34.976 -22.119 -18.144  0.00  0.00    +0.000 C 
ATOM      4  C   UNL     1      36.275 -20.535 -19.371  0.00  0.00    +0.054 C 
ATOM      5  C   UNL     1      37.233 -20.495 -18.379  0.00  0.00    +0.005 C 
ATOM      6  C   UNL     1      35.152 -21.329 -19.280  0.00  0.00    +0.005 C 
ENDROOT
BRANCH   1   7
ATOM      7  C   UNL     1      35.747 -22.916 -15.947  0.00  0.00    -0.004 C 
ATOM      8  C   UNL     1      36.842 -23.402 -15.230  0.00  0.00    -0.022 C 
ATOM      9  C   UNL     1      34.451 -23.222 -15.527  0.00  0.00    +0.004 C 
ATOM     10  C   UNL     1      34.250 -24.011 -14.395  0.00  0.00    +0.055 C 
ATOM     11  C   UNL     1      36.641 -24.192 -14.097  0.00  0.00    -0.004 C 
ATOM     12  C   UNL     1      35.345 -24.495 -13.679  0.00  0.00    +0.004 C 
ATOM     13  C   UNL     1      38.244 -23.098 -15.647  0.00  0.00    +0.031 C 
BRANCH  10  17
ATOM     14  O   UNL     1      31.971 -24.367 -14.943  0.00  0.00    -0.420 OA
ATOM     15  N   UNL     1      32.447 -24.579 -12.767  0.00  0.00    -0.107 NA
ATOM     16  N   UNL     1      31.094 -24.812 -12.933  0.00  0.00    -0.111 NA
ATOM     17  C   UNL     1      32.910 -24.326 -13.963  0.00  0.00    +0.250 A 
ATOM     18  C   UNL     1      30.861 -24.676 -14.217  0.00  0.00    +0.227 A 
ATOM     19  C   UNL     1      29.602 -24.810 -14.959  0.00  0.00    +0.097 C 
ENDBRANCH  10  17
ENDBRANCH   1   7
BRANCH   4  22
ATOM     20  O   UNL     1      37.611 -19.460 -20.943  0.00  0.00    -0.270 OA
ATOM     21  N   UNL     1      35.282 -19.263 -21.203  0.00  0.00    -0.280 N 
ATOM     22  C   UNL     1      36.462 -19.692 -20.581  0.00  0.00    +0.249 C 
ATOM     23  H   UNL     1      34.441 -19.543 -20.773  0.00  0.00    +0.155 HD
BRANCH  21  24
ATOM     24  C   UNL     1      35.151 -18.490 -22.357  0.00  0.00    +0.051 C 
ATOM     25  C   UNL     1      35.138 -17.098 -22.267  0.00  0.00    +0.025 C 
ATOM     26  C   UNL     1      35.033 -19.109 -23.602  0.00  0.00    +0.015 C 
ATOM     27  C   UNL     1      35.007 -16.325 -23.421  0.00  0.00    +0.070 C 
ATOM     28  C   UNL     1      34.902 -18.337 -24.756  0.00  0.00    +0.002 C 
ATOM     29  C   UNL     1      34.889 -16.945 -24.665  0.00  0.00    +0.010 C 
BRANCH  27  31
ATOM     30  N   UNL     1      34.982 -13.740 -23.255  0.00  0.00    -0.191 NA
ATOM     31  C   UNL     1      34.993 -14.900 -23.329  0.00  0.00    +0.100 C 
ENDBRANCH  27  31
ENDBRANCH  21  24
ENDBRANCH   4  22
TORSDOF 5
ENDMDL
MODEL 5
REMARK VINA RESULT:     -10.9      2.356     11.070
REMARK  Name = 10200651
REMARK  5 active torsions:
REMARK  status: ('A' for Active; 'I' for Inactive)
REMARK    1  A    between atoms: C_1  and  C_7
REMARK    2  A    between atoms: C_4  and  C_22
REMARK    3  A    between atoms: C_10  and  C_17
REMARK    4  A    between atoms: N_21  and  C_24
REMARK    5  A    between atoms: C_27  and  C_31
REMARK                            x       y       z     vdW  Elec       q    Type
REMARK                         _______ _______ _______ _____ _____    ______ ____
ROOT
ATOM      1  C   UNL     1      35.150 -22.332 -17.214  0.00  0.00    -0.000 C 
ATOM      2  C   UNL     1      36.421 -21.771 -17.335  0.00  0.00    +0.000 C 
ATOM      3  C   UNL     1      34.194 -22.116 -18.205  0.00  0.00    +0.000 C 
ATOM      4  C   UNL     1      35.773 -20.795 -19.416  0.00  0.00    +0.054 C 
ATOM      5  C   UNL     1      36.737 -20.993 -18.449  0.00  0.00    +0.005 C 
ATOM      6  C   UNL     1      34.509 -21.339 -19.319  0.00  0.00    +0.005 C 
ENDROOT
BRANCH   1   7
ATOM      7  C   UNL     1      34.823 -23.139 -16.057  0.00  0.00    -0.004 C 
ATOM      8  C   UNL     1      33.497 -23.366 -15.687  0.00  0.00    -0.022 C 
ATOM      9  C   UNL     1      35.859 -23.695 -15.304  0.00  0.00    +0.004 C 
ATOM     10  C   UNL     1      35.570 -24.475 -14.184  0.00  0.00    +0.055 C 
ATOM     11  C   UNL     1      33.207 -24.146 -14.568  0.00  0.00    -0.004 C 
ATOM     12  C   UNL     1      34.243 -24.701 -13.817  0.00  0.00    +0.004 C 
ATOM     13  C   UNL     1      32.360 -22.789 -16.467  0.00  0.00    +0.031 C 
BRANCH  10  17
ATOM     14  O   UNL     1      37.847 -25.115 -14.028  0.00  0.00    -0.420 OA
ATOM     15  N   UNL     1      36.640 -25.522 -12.189  0.00  0.00    -0.107 NA
ATOM     16  N   UNL     1      37.935 -25.944 -11.952  0.00  0.00    -0.111 NA
ATOM     17  C   UNL     1      36.641 -25.048 -13.407  0.00  0.00    +0.250 A 
ATOM     18  C   UNL     1      38.603 -25.688 -13.052  0.00  0.00    +0.227 A 
ATOM     19  C   UNL     1      40.017 -25.928 -13.366  0.00  0.00    +0.097 C 
ENDBRANCH  10  17
ENDBRANCH   1   7
BRANCH   4  22
ATOM     20  O   UNL     1      37.291 -19.859 -20.908  0.00  0.00    -0.270 OA
ATOM     21  N   UNL     1      35.014 -19.402 -21.272  0.00  0.00    -0.280 N 
ATOM     22  C   UNL     1      36.109 -19.966 -20.603  0.00  0.00    +0.249 C 
ATOM     23  H   UNL     1      34.128 -19.591 -20.885  0.00  0.00    +0.155 HD
BRANCH  21  24
ATOM     24  C   UNL     1      35.024 -18.607 -22.418  0.00  0.00    +0.051 C 
ATOM     25  C   UNL     1      35.027 -17.217 -22.304  0.00  0.00    +0.025 C 
ATOM     26  C   UNL     1      35.032 -19.202 -23.679  0.00  0.00    +0.015 C 
ATOM     27  C   UNL     1      35.036 -16.422 -23.451  0.00  0.00    +0.070 C 
ATOM     28  C   UNL     1      35.041 -18.409 -24.826  0.00  0.00    +0.002 C 
ATOM     29  C   UNL     1      35.043 -17.019 -24.711  0.00  0.00    +0.010 C 
BRANCH  27  31
ATOM     30  N   UNL     1      35.041 -13.841 -23.238  0.00  0.00    -0.191 NA
ATOM     31  C   UNL     1      35.039 -14.998 -23.334  0.00  0.00    +0.100 C 
ENDBRANCH  27  31
ENDBRANCH  21  24
ENDBRANCH   4  22
TORSDOF 5
ENDMDL
MODEL 6
REMARK VINA RESULT:     -10.7      2.717      3.517
REMARK  Name = 10200651
REMARK  5 active torsions:
REMARK  status: ('A' for Active; 'I' for Inactive)
REMARK    1  A    between atoms: C_1  and  C_7
REMARK    2  A    between atoms: C_4  and  C_22
REMARK    3  A    between atoms: C_10  and  C_17
REMARK    4  A    between atoms: N_21  and  C_24
REMARK    5  A    between atoms: C_27  and  C_31
REMARK                            x       y       z     vdW  Elec       q    Type
REMARK                         _______ _______ _______ _____ _____    ______ ____
ROOT
ATOM      1  C   UNL     1      34.958 -20.077 -20.575  0.00  0.00    -0.000 C 
ATOM      2  C   UNL     1      33.599 -20.163 -20.272  0.00  0.00    +0.000 C 
ATOM      3  C   UNL     1      35.860 -20.970 -19.998  0.00  0.00    +0.000 C 
ATOM      4  C   UNL     1      34.056 -22.013 -18.832  0.00  0.00    +0.054 C 
ATOM      5  C   UNL     1      33.143 -21.142 -19.390  0.00  0.00    +0.005 C 
ATOM      6  C   UNL     1      35.404 -21.949 -19.116  0.00  0.00    +0.005 C 
ENDROOT
BRANCH   1   7
ATOM      7  C   UNL     1      35.432 -19.061 -21.490  0.00  0.00    -0.004 C 
ATOM      8  C   UNL     1      36.734 -18.565 -21.407  0.00  0.00    -0.022 C 
ATOM      9  C   UNL     1      34.565 -18.573 -22.470  0.00  0.00    +0.004 C 
ATOM     10  C   UNL     1      34.997 -17.592 -23.363  0.00  0.00    +0.055 C 
ATOM     11  C   UNL     1      37.167 -17.584 -22.300  0.00  0.00    -0.004 C 
ATOM     12  C   UNL     1      36.299 -17.099 -23.278  0.00  0.00    +0.004 C 
ATOM     13  C   UNL     1      37.692 -19.060 -20.373  0.00  0.00    +0.031 C 
BRANCH  10  17
ATOM     14  O   UNL     1      34.172 -15.755 -24.613  0.00  0.00    -0.420 OA
ATOM     15  N   UNL     1      33.217 -17.717 -25.105  0.00  0.00    -0.107 NA
ATOM     16  N   UNL     1      32.639 -16.748 -25.905  0.00  0.00    -0.111 NA
ATOM     17  C   UNL     1      34.100 -17.090 -24.374  0.00  0.00    +0.250 A 
ATOM     18  C   UNL     1      33.226 -15.620 -25.582  0.00  0.00    +0.227 A 
ATOM     19  C   UNL     1      33.010 -14.268 -26.111  0.00  0.00    +0.097 C 
ENDBRANCH  10  17
ENDBRANCH   1   7
BRANCH   4  22
ATOM     20  O   UNL     1      33.523 -24.213 -18.297  0.00  0.00    -0.270 OA
ATOM     21  N   UNL     1      33.228 -22.600 -16.612  0.00  0.00    -0.280 N 
ATOM     22  C   UNL     1      33.569 -23.056 -17.892  0.00  0.00    +0.249 C 
ATOM     23  H   UNL     1      33.326 -21.631 -16.458  0.00  0.00    +0.155 HD
BRANCH  21  24
ATOM     24  C   UNL     1      32.771 -23.348 -15.526  0.00  0.00    +0.051 C 
ATOM     25  C   UNL     1      31.459 -23.820 -15.508  0.00  0.00    +0.025 C 
ATOM     26  C   UNL     1      33.626 -23.623 -14.459  0.00  0.00    +0.015 C 
ATOM     27  C   UNL     1      31.001 -24.568 -14.422  0.00  0.00    +0.070 C 
ATOM     28  C   UNL     1      33.169 -24.370 -13.373  0.00  0.00    +0.002 C 
ATOM     29  C   UNL     1      31.857 -24.842 -13.355  0.00  0.00    +0.010 C 
BRANCH  27  31
ATOM     30  N   UNL     1      28.564 -25.445 -14.387  0.00  0.00    -0.191 NA
ATOM     31  C   UNL     1      29.658 -25.052 -14.403  0.00  0.00    +0.100 C 
ENDBRANCH  27  31
ENDBRANCH  21  24
ENDBRANCH   4  22
TORSDOF 5
ENDMDL
MODEL 7
REMARK VINA RESULT:     -10.7      2.803     11.107
REMARK  Name = 10200651
REMARK  5 active torsions:
REMARK  status: ('A' for Active; 'I' for Inactive)
REMARK    1  A    between atoms: C_1  and  C_7
REMARK    2  A    between atoms: C_4  and  C_22
REMARK    3  A    between atoms: C_10  and  C_17
REMARK    4  A    between atoms: N_21  and  C_24
REMARK    5  A    between atoms: C_27  and  C_31
REMARK                            x       y       z     vdW  Elec       q    Type
REMARK                         _______ _______ _______ _____ _____    ______ ____
ROOT
ATOM      1  C   UNL     1      35.717 -22.572 -16.713  0.00  0.00    -0.000 C 
ATOM      2  C   UNL     1      34.401 -22.689 -17.160  0.00  0.00    +0.000 C 
ATOM      3  C   UNL     1      36.623 -21.774 -17.411  0.00  0.00    +0.000 C 
ATOM      4  C   UNL     1      34.907 -21.225 -18.978  0.00  0.00    +0.054 C 
ATOM      5  C   UNL     1      33.991 -22.007 -18.306  0.00  0.00    +0.005 C 
ATOM      6  C   UNL     1      36.213 -21.093 -18.557  0.00  0.00    +0.005 C 
ENDROOT
BRANCH   1   7
ATOM      7  C   UNL     1      36.142 -23.279 -15.524  0.00  0.00    -0.004 C 
ATOM      8  C   UNL     1      35.327 -23.344 -14.392  0.00  0.00    -0.022 C 
ATOM      9  C   UNL     1      37.391 -23.904 -15.517  0.00  0.00    +0.004 C 
ATOM     10  C   UNL     1      37.823 -24.591 -14.383  0.00  0.00    +0.055 C 
ATOM     11  C   UNL     1      35.760 -24.031 -13.258  0.00  0.00    -0.004 C 
ATOM     12  C   UNL     1      37.007 -24.655 -13.253  0.00  0.00    +0.004 C 
ATOM     13  C   UNL     1      33.985 -22.688 -14.360  0.00  0.00    +0.031 C 
BRANCH  10  17
ATOM     14  O   UNL     1      39.218 -26.348 -15.150  0.00  0.00    -0.420 OA
ATOM     15  N   UNL     1      40.211 -24.922 -13.741  0.00  0.00    -0.107 NA
ATOM     16  N   UNL     1      41.137 -25.883 -14.099  0.00  0.00    -0.111 NA
ATOM     17  C   UNL     1      39.113 -25.236 -14.377  0.00  0.00    +0.250 A 
ATOM     18  C   UNL     1      40.514 -26.695 -14.921  0.00  0.00    +0.227 A 
ATOM     19  C   UNL     1      41.010 -27.892 -15.609  0.00  0.00    +0.097 C 
ENDBRANCH  10  17
ENDBRANCH   1   7
BRANCH   4  22
ATOM     20  O   UNL     1      33.298 -20.615 -20.543  0.00  0.00    -0.270 OA
ATOM     21  N   UNL     1      35.458 -19.729 -20.827  0.00  0.00    -0.280 N 
ATOM     22  C   UNL     1      34.470 -20.499 -20.199  0.00  0.00    +0.249 C 
ATOM     23  H   UNL     1      36.351 -19.752 -20.413  0.00  0.00    +0.155 HD
BRANCH  21  24
ATOM     24  C   UNL     1      35.332 -18.930 -21.964  0.00  0.00    +0.051 C 
ATOM     25  C   UNL     1      35.298 -17.542 -21.842  0.00  0.00    +0.025 C 
ATOM     26  C   UNL     1      35.240 -19.521 -23.224  0.00  0.00    +0.015 C 
ATOM     27  C   UNL     1      35.172 -16.743 -22.979  0.00  0.00    +0.070 C 
ATOM     28  C   UNL     1      35.113 -18.724 -24.362  0.00  0.00    +0.002 C 
ATOM     29  C   UNL     1      35.079 -17.335 -24.238  0.00  0.00    +0.010 C 
BRANCH  27  31
ATOM     30  N   UNL     1      35.108 -14.164 -22.752  0.00  0.00    -0.191 NA
ATOM     31  C   UNL     1      35.137 -15.321 -22.854  0.00  0.00    +0.100 C 
ENDBRANCH  27  31
ENDBRANCH  21  24
ENDBRANCH   4  22
TORSDOF 5
ENDMDL
MODEL 8
REMARK VINA RESULT:     -10.6      2.594     10.818
REMARK  Name = 10200651
REMARK  5 active torsions:
REMARK  status: ('A' for Active; 'I' for Inactive)
REMARK    1  A    between atoms: C_1  and  C_7
REMARK    2  A    between atoms: C_4  and  C_22
REMARK    3  A    between atoms: C_10  and  C_17
REMARK    4  A    between atoms: N_21  and  C_24
REMARK    5  A    between atoms: C_27  and  C_31
REMARK                            x       y       z     vdW  Elec       q    Type
REMARK                         _______ _______ _______ _____ _____    ______ ____
ROOT
ATOM      1  C   UNL     1      35.141 -19.155 -21.217  0.00  0.00    -0.000 C 
ATOM      2  C   UNL     1      35.486 -17.833 -20.935  0.00  0.00    +0.000 C 
ATOM      3  C   UNL     1      34.692 -19.503 -22.491  0.00  0.00    +0.000 C 
ATOM      4  C   UNL     1      34.937 -17.230 -23.180  0.00  0.00    +0.054 C 
ATOM      5  C   UNL     1      35.383 -16.859 -21.928  0.00  0.00    +0.005 C 
ATOM      6  C   UNL     1      34.589 -18.529 -23.484  0.00  0.00    +0.005 C 
ENDROOT
BRANCH   1   7
ATOM      7  C   UNL     1      35.248 -20.165 -20.186  0.00  0.00    -0.004 C 
ATOM      8  C   UNL     1      36.483 -20.714 -19.838  0.00  0.00    -0.022 C 
ATOM      9  C   UNL     1      34.090 -20.593 -19.534  0.00  0.00    +0.004 C 
ATOM     10  C   UNL     1      34.167 -21.567 -18.538  0.00  0.00    +0.055 C 
ATOM     11  C   UNL     1      36.560 -21.687 -18.842  0.00  0.00    -0.004 C 
ATOM     12  C   UNL     1      35.403 -22.113 -18.191  0.00  0.00    +0.004 C 
ATOM     13  C   UNL     1      37.745 -20.283 -20.513  0.00  0.00    +0.031 C 
BRANCH  10  17
ATOM     14  O   UNL     1      33.162 -22.834 -16.804  0.00  0.00    -0.420 OA
ATOM     15  N   UNL     1      31.715 -21.741 -18.114  0.00  0.00    -0.107 NA
ATOM     16  N   UNL     1      30.990 -22.430 -17.159  0.00  0.00    -0.111 NA
ATOM     17  C   UNL     1      32.970 -22.008 -17.865  0.00  0.00    +0.250 A 
ATOM     18  C   UNL     1      31.875 -23.054 -16.418  0.00  0.00    +0.227 A 
ATOM     19  C   UNL     1      31.674 -23.931 -15.259  0.00  0.00    +0.097 C 
ENDBRANCH  10  17
ENDBRANCH   1   7
BRANCH   4  22
ATOM     20  O   UNL     1      35.162 -16.499 -25.377  0.00  0.00    -0.270 OA
ATOM     21  N   UNL     1      34.319 -14.955 -23.816  0.00  0.00    -0.280 N 
ATOM     22  C   UNL     1      34.826 -16.192 -24.238  0.00  0.00    +0.249 C 
ATOM     23  H   UNL     1      34.100 -14.883 -22.859  0.00  0.00    +0.155 HD
BRANCH  21  24
ATOM     24  C   UNL     1      34.084 -13.815 -24.586  0.00  0.00    +0.051 C 
ATOM     25  C   UNL     1      34.394 -12.554 -24.077  0.00  0.00    +0.025 C 
ATOM     26  C   UNL     1      33.539 -13.937 -25.864  0.00  0.00    +0.015 C 
ATOM     27  C   UNL     1      34.158 -11.414 -24.847  0.00  0.00    +0.070 C 
ATOM     28  C   UNL     1      33.303 -12.798 -26.634  0.00  0.00    +0.002 C 
ATOM     29  C   UNL     1      33.613 -11.537 -26.125  0.00  0.00    +0.010 C 
BRANCH  27  31
ATOM     30  N   UNL     1      34.733  -9.071 -23.903  0.00  0.00    -0.191 NA
ATOM     31  C   UNL     1      34.475 -10.122 -24.326  0.00  0.00    +0.100 C 
ENDBRANCH  27  31
ENDBRANCH  21  24
ENDBRANCH   4  22
TORSDOF 5
ENDMDL
MODEL 9
REMARK VINA RESULT:     -10.5      5.334     10.372
REMARK  Name = 10200651
REMARK  5 active torsions:
REMARK  status: ('A' for Active; 'I' for Inactive)
REMARK    1  A    between atoms: C_1  and  C_7
REMARK    2  A    between atoms: C_4  and  C_22
REMARK    3  A    between atoms: C_10  and  C_17
REMARK    4  A    between atoms: N_21  and  C_24
REMARK    5  A    between atoms: C_27  and  C_31
REMARK                            x       y       z     vdW  Elec       q    Type
REMARK                         _______ _______ _______ _____ _____    ______ ____
ROOT
ATOM      1  C   UNL     1      32.823  -9.691 -22.431  0.00  0.00    -0.000 C 
ATOM      2  C   UNL     1      32.289 -10.842 -21.850  0.00  0.00    +0.000 C 
ATOM      3  C   UNL     1      33.713  -9.797 -23.498  0.00  0.00    +0.000 C 
ATOM      4  C   UNL     1      33.529 -12.175 -23.396  0.00  0.00    +0.054 C 
ATOM      5  C   UNL     1      32.646 -12.099 -22.338  0.00  0.00    +0.005 C 
ATOM      6  C   UNL     1      34.070 -11.053 -23.986  0.00  0.00    +0.005 C 
ENDROOT
BRANCH   1   7
ATOM      7  C   UNL     1      32.452  -8.387 -21.923  0.00  0.00    -0.004 C 
ATOM      8  C   UNL     1      32.281  -8.166 -20.556  0.00  0.00    -0.022 C 
ATOM      9  C   UNL     1      32.265  -7.337 -22.825  0.00  0.00    +0.004 C 
ATOM     10  C   UNL     1      31.906  -6.072 -22.361  0.00  0.00    +0.055 C 
ATOM     11  C   UNL     1      31.922  -6.901 -20.092  0.00  0.00    -0.004 C 
ATOM     12  C   UNL     1      31.736  -5.854 -20.993  0.00  0.00    +0.004 C 
ATOM     13  C   UNL     1      32.472  -9.264 -19.559  0.00  0.00    +0.031 C 
BRANCH  10  17
ATOM     14  O   UNL     1      32.510  -5.010 -24.392  0.00  0.00    -0.420 OA
ATOM     15  N   UNL     1      30.886  -3.978 -23.252  0.00  0.00    -0.107 NA
ATOM     16  N   UNL     1      31.129  -3.250 -24.402  0.00  0.00    -0.111 NA
ATOM     17  C   UNL     1      31.712  -4.989 -23.293  0.00  0.00    +0.250 A 
ATOM     18  C   UNL     1      32.084  -3.888 -25.036  0.00  0.00    +0.227 A 
ATOM     19  C   UNL     1      32.738  -3.568 -26.310  0.00  0.00    +0.097 C 
ENDBRANCH  10  17
ENDBRANCH   1   7
BRANCH   4  22
ATOM     20  O   UNL     1      33.803 -13.711 -25.121  0.00  0.00    -0.270 OA
ATOM     21  N   UNL     1      34.379 -14.421 -22.955  0.00  0.00    -0.280 N 
ATOM     22  C   UNL     1      33.909 -13.515 -23.915  0.00  0.00    +0.249 C 
ATOM     23  H   UNL     1      34.397 -14.094 -22.026  0.00  0.00    +0.155 HD
BRANCH  21  24
ATOM     24  C   UNL     1      34.827 -15.728 -23.153  0.00  0.00    +0.051 C 
ATOM     25  C   UNL     1      35.578 -16.365 -22.166  0.00  0.00    +0.025 C 
ATOM     26  C   UNL     1      34.522 -16.397 -24.338  0.00  0.00    +0.015 C 
ATOM     27  C   UNL     1      36.026 -17.671 -22.364  0.00  0.00    +0.070 C 
ATOM     28  C   UNL     1      34.969 -17.703 -24.537  0.00  0.00    +0.002 C 
ATOM     29  C   UNL     1      35.721 -18.340 -23.550  0.00  0.00    +0.010 C 
BRANCH  27  31
ATOM     30  N   UNL     1      37.422 -18.856 -20.532  0.00  0.00    -0.191 NA
ATOM     31  C   UNL     1      36.796 -18.324 -21.354  0.00  0.00    +0.100 C 
ENDBRANCH  27  31
ENDBRANCH  21  24
ENDBRANCH   4  22
TORSDOF 5
ENDMDL
