MODEL 1
REMARK VINA RESULT:     -12.1      0.000      0.000
REMARK  Name = 15985904
REMARK  7 active torsions:
REMARK  status: ('A' for Active; 'I' for Inactive)
REMARK    1  A    between atoms: N_1  and  S_6
REMARK    2  A    between atoms: C_4  and  C_21
REMARK    3  A    between atoms: S_6  and  C_9
REMARK    4  A    between atoms: C_10  and  C_17
REMARK    5  A    between atoms: C_22  and  C_25
REMARK    6  A    between atoms: N_24  and  C_27
REMARK    7  A    between atoms: C_28  and  N_33
REMARK                            x       y       z     vdW  Elec       q    Type
REMARK                         _______ _______ _______ _____ _____    ______ ____
ROOT
ATOM      1  N   UNL     1      35.317 -16.953 -22.335  0.00  0.00    -0.167 N 
ATOM      2  C   UNL     1      35.175 -15.965 -23.218  0.00  0.00    +0.089 C 
ATOM      3  C   UNL     1      35.149 -16.583 -21.066  0.00  0.00    +0.089 C 
ATOM      4  C   UNL     1      34.888 -14.843 -22.472  0.00  0.00    +0.018 C 
ATOM      5  C   UNL     1      34.871 -15.234 -21.110  0.00  0.00    +0.019 C 
ENDROOT
BRANCH   1   6
ATOM      6  S   UNL     1      35.689 -18.577 -22.796  0.00  0.00    +0.080 S 
ATOM      7  O   UNL     1      37.135 -18.556 -22.918  0.00  0.00    -0.149 OA
ATOM      8  O   UNL     1      34.818 -18.880 -23.917  0.00  0.00    -0.149 OA
BRANCH   6   9
ATOM      9  C   UNL     1      35.206 -19.572 -21.445  0.00  0.00    +0.126 C 
ATOM     10  C   UNL     1      34.435 -21.162 -19.286  0.00  0.00    +0.003 C 
ATOM     11  C   UNL     1      36.174 -20.169 -20.638  0.00  0.00    +0.020 C 
ATOM     12  C   UNL     1      33.852 -19.769 -21.172  0.00  0.00    +0.020 C 
ATOM     13  C   UNL     1      35.789 -20.964 -19.559  0.00  0.00    +0.001 C 
ATOM     14  C   UNL     1      33.467 -20.564 -20.093  0.00  0.00    +0.001 C 
BRANCH  10  17
ATOM     15  N   UNL     1      34.144 -23.204 -16.376  0.00  0.00    -0.208 N 
ATOM     16  N   UNL     1      32.831 -23.184 -16.663  0.00  0.00    -0.176 NA
ATOM     17  C   UNL     1      34.038 -21.980 -18.175  0.00  0.00    +0.037 C 
ATOM     18  C   UNL     1      34.912 -22.496 -17.253  0.00  0.00    +0.086 C 
ATOM     19  C   UNL     1      32.775 -22.433 -17.765  0.00  0.00    +0.119 C 
ATOM     20  C   UNL     1      34.614 -23.933 -15.222  0.00  0.00    +0.140 C 
ENDBRANCH  10  17
ENDBRANCH   6   9
ENDBRANCH   1   6
BRANCH   4  21
ATOM     21  C   UNL     1      34.657 -13.556 -23.000  0.00  0.00    +0.006 C 
ATOM     22  C   UNL     1      34.379 -13.207 -24.288  0.00  0.00    +0.058 C 
BRANCH  22  25
ATOM     23  O   UNL     1      33.723 -11.483 -25.789  0.00  0.00    -0.270 OA
ATOM     24  N   UNL     1      34.507 -10.919 -23.650  0.00  0.00    -0.279 N 
ATOM     25  C   UNL     1      34.158 -11.780 -24.682  0.00  0.00    +0.250 C 
ATOM     26  H   UNL     1      34.842 -11.341 -22.824  0.00  0.00    +0.155 HD
BRANCH  24  27
ATOM     27  C   UNL     1      34.438  -9.505 -23.649  0.00  0.00    +0.064 C 
ATOM     28  C   UNL     1      33.343  -8.858 -23.098  0.00  0.00    +0.055 C 
ATOM     29  C   UNL     1      35.487  -8.795 -24.211  0.00  0.00    +0.016 C 
ATOM     30  C   UNL     1      33.297  -7.464 -23.109  0.00  0.00    +0.015 C 
ATOM     31  C   UNL     1      35.440  -7.401 -24.222  0.00  0.00    +0.001 C 
ATOM     32  C   UNL     1      34.345  -6.735 -23.672  0.00  0.00    +0.001 C 
BRANCH  28  33
ATOM     33  N   UNL     1      32.271  -9.574 -22.521  0.00  0.00    -0.356 N 
ATOM     34  H   UNL     1      31.414  -9.122 -22.348  0.00  0.00    +0.142 HD
ATOM     35  H   UNL     1      32.380 -10.525 -22.293  0.00  0.00    +0.142 HD
ENDBRANCH  28  33
ENDBRANCH  24  27
ENDBRANCH  22  25
ENDBRANCH   4  21
TORSDOF 7
ENDMDL
MODEL 2
REMARK VINA RESULT:     -11.4      2.719     12.098
REMARK  Name = 15985904
REMARK  7 active torsions:
REMARK  status: ('A' for Active; 'I' for Inactive)
REMARK    1  A    between atoms: N_1  and  S_6
REMARK    2  A    between atoms: C_4  and  C_21
REMARK    3  A    between atoms: S_6  and  C_9
REMARK    4  A    between atoms: C_10  and  C_17
REMARK    5  A    between atoms: C_22  and  C_25
REMARK    6  A    between atoms: N_24  and  C_27
REMARK    7  A    between atoms: C_28  and  N_33
REMARK                            x       y       z     vdW  Elec       q    Type
REMARK                         _______ _______ _______ _____ _____    ______ ____
ROOT
ATOM      1  N   UNL     1      35.389 -19.530 -21.226  0.00  0.00    -0.167 N 
ATOM      2  C   UNL     1      35.907 -20.278 -20.252  0.00  0.00    +0.089 C 
ATOM      3  C   UNL     1      34.058 -19.559 -21.291  0.00  0.00    +0.089 C 
ATOM      4  C   UNL     1      34.829 -20.852 -19.616  0.00  0.00    +0.018 C 
ATOM      5  C   UNL     1      33.658 -20.397 -20.274  0.00  0.00    +0.019 C 
ENDROOT
BRANCH   1   6
ATOM      6  S   UNL     1      36.361 -18.601 -22.314  0.00  0.00    +0.080 S 
ATOM      7  O   UNL     1      36.188 -19.296 -23.577  0.00  0.00    -0.149 OA
ATOM      8  O   UNL     1      37.655 -18.465 -21.671  0.00  0.00    -0.149 OA
BRANCH   6   9
ATOM      9  C   UNL     1      35.615 -17.024 -22.380  0.00  0.00    +0.126 C 
ATOM     10  C   UNL     1      34.421 -14.505 -22.486  0.00  0.00    +0.003 C 
ATOM     11  C   UNL     1      35.347 -16.329 -21.201  0.00  0.00    +0.020 C 
ATOM     12  C   UNL     1      35.286 -16.459 -23.612  0.00  0.00    +0.020 C 
ATOM     13  C   UNL     1      34.750 -15.070 -21.254  0.00  0.00    +0.001 C 
ATOM     14  C   UNL     1      34.689 -15.200 -23.665  0.00  0.00    +0.001 C 
BRANCH  10  17
ATOM     15  N   UNL     1      32.510 -11.521 -22.072  0.00  0.00    -0.208 N 
ATOM     16  N   UNL     1      33.240 -11.076 -23.109  0.00  0.00    -0.176 NA
ATOM     17  C   UNL     1      33.807 -13.208 -22.541  0.00  0.00    +0.037 C 
ATOM     18  C   UNL     1      32.812 -12.796 -21.692  0.00  0.00    +0.086 C 
ATOM     19  C   UNL     1      34.032 -12.114 -23.389  0.00  0.00    +0.119 C 
ATOM     20  C   UNL     1      31.517 -10.661 -21.473  0.00  0.00    +0.140 C 
ENDBRANCH  10  17
ENDBRANCH   6   9
ENDBRANCH   1   6
BRANCH   4  21
ATOM     21  C   UNL     1      34.910 -21.729 -18.514  0.00  0.00    +0.006 C 
ATOM     22  C   UNL     1      35.882 -21.800 -17.560  0.00  0.00    +0.058 C 
BRANCH  22  25
ATOM     23  O   UNL     1      34.934 -23.653 -16.411  0.00  0.00    -0.270 OA
ATOM     24  N   UNL     1      36.841 -22.600 -15.535  0.00  0.00    -0.279 N 
ATOM     25  C   UNL     1      35.813 -22.799 -16.447  0.00  0.00    +0.250 C 
ATOM     26  H   UNL     1      37.459 -21.857 -15.730  0.00  0.00    +0.155 HD
BRANCH  24  27
ATOM     27  C   UNL     1      37.101 -23.343 -14.358  0.00  0.00    +0.064 C 
ATOM     28  C   UNL     1      38.192 -24.195 -14.294  0.00  0.00    +0.055 C 
ATOM     29  C   UNL     1      36.241 -23.192 -13.282  0.00  0.00    +0.016 C 
ATOM     30  C   UNL     1      38.427 -24.917 -13.124  0.00  0.00    +0.015 C 
ATOM     31  C   UNL     1      36.477 -23.913 -12.112  0.00  0.00    +0.001 C 
ATOM     32  C   UNL     1      37.570 -24.776 -12.033  0.00  0.00    +0.001 C 
BRANCH  28  33
ATOM     33  N   UNL     1      39.074 -24.353 -15.386  0.00  0.00    -0.356 N 
ATOM     34  H   UNL     1      38.719 -24.385 -16.304  0.00  0.00    +0.142 HD
ATOM     35  H   UNL     1      40.043 -24.429 -15.229  0.00  0.00    +0.142 HD
ENDBRANCH  28  33
ENDBRANCH  24  27
ENDBRANCH  22  25
ENDBRANCH   4  21
TORSDOF 7
ENDMDL
MODEL 3
REMARK VINA RESULT:     -11.3      2.395     11.971
REMARK  Name = 15985904
REMARK  7 active torsions:
REMARK  status: ('A' for Active; 'I' for Inactive)
REMARK    1  A    between atoms: N_1  and  S_6
REMARK    2  A    between atoms: C_4  and  C_21
REMARK    3  A    between atoms: S_6  and  C_9
REMARK    4  A    between atoms: C_10  and  C_17
REMARK    5  A    between atoms: C_22  and  C_25
REMARK    6  A    between atoms: N_24  and  C_27
REMARK    7  A    between atoms: C_28  and  N_33
REMARK                            x       y       z     vdW  Elec       q    Type
REMARK                         _______ _______ _______ _____ _____    ______ ____
ROOT
ATOM      1  N   UNL     1      35.202 -19.199 -21.560  0.00  0.00    -0.167 N 
ATOM      2  C   UNL     1      35.555 -19.997 -20.552  0.00  0.00    +0.089 C 
ATOM      3  C   UNL     1      33.897 -19.205 -21.832  0.00  0.00    +0.089 C 
ATOM      4  C   UNL     1      34.386 -20.581 -20.118  0.00  0.00    +0.018 C 
ATOM      5  C   UNL     1      33.336 -20.081 -20.928  0.00  0.00    +0.019 C 
ENDROOT
BRANCH   1   6
ATOM      6  S   UNL     1      36.338 -18.239 -22.440  0.00  0.00    +0.080 S 
ATOM      7  O   UNL     1      36.362 -18.878 -23.743  0.00  0.00    -0.149 OA
ATOM      8  O   UNL     1      37.516 -18.147 -21.597  0.00  0.00    -0.149 OA
BRANCH   6   9
ATOM      9  C   UNL     1      35.623 -16.651 -22.554  0.00  0.00    +0.126 C 
ATOM     10  C   UNL     1      34.477 -14.114 -22.738  0.00  0.00    +0.003 C 
ATOM     11  C   UNL     1      35.259 -15.964 -21.396  0.00  0.00    +0.020 C 
ATOM     12  C   UNL     1      35.413 -16.068 -23.805  0.00  0.00    +0.020 C 
ATOM     13  C   UNL     1      34.686 -14.696 -21.488  0.00  0.00    +0.001 C 
ATOM     14  C   UNL     1      34.841 -14.800 -23.896  0.00  0.00    +0.001 C 
BRANCH  10  17
ATOM     15  N   UNL     1      32.613 -11.088 -22.425  0.00  0.00    -0.208 N 
ATOM     16  N   UNL     1      33.371 -10.678 -23.456  0.00  0.00    -0.176 NA
ATOM     17  C   UNL     1      33.887 -12.808 -22.832  0.00  0.00    +0.037 C 
ATOM     18  C   UNL     1      32.884 -12.359 -22.012  0.00  0.00    +0.086 C 
ATOM     19  C   UNL     1      34.149 -11.736 -23.699  0.00  0.00    +0.119 C 
ATOM     20  C   UNL     1      31.625 -10.198 -21.865  0.00  0.00    +0.140 C 
ENDBRANCH  10  17
ENDBRANCH   6   9
ENDBRANCH   1   6
BRANCH   4  21
ATOM     21  C   UNL     1      34.287 -21.505 -19.057  0.00  0.00    +0.006 C 
ATOM     22  C   UNL     1      33.164 -21.959 -18.432  0.00  0.00    +0.058 C 
BRANCH  22  25
ATOM     23  O   UNL     1      34.183 -23.725 -17.207  0.00  0.00    -0.270 OA
ATOM     24  N   UNL     1      32.132 -22.845 -16.479  0.00  0.00    -0.279 N 
ATOM     25  C   UNL     1      33.238 -22.951 -17.312  0.00  0.00    +0.250 C 
ATOM     26  H   UNL     1      31.467 -22.159 -16.722  0.00  0.00    +0.155 HD
BRANCH  24  27
ATOM     27  C   UNL     1      31.852 -23.611 -15.321  0.00  0.00    +0.064 C 
ATOM     28  C   UNL     1      32.719 -23.589 -14.241  0.00  0.00    +0.055 C 
ATOM     29  C   UNL     1      30.696 -24.374 -15.303  0.00  0.00    +0.016 C 
ATOM     30  C   UNL     1      32.421 -24.352 -13.112  0.00  0.00    +0.015 C 
ATOM     31  C   UNL     1      30.398 -25.137 -14.174  0.00  0.00    +0.001 C 
ATOM     32  C   UNL     1      31.261 -25.127 -13.078  0.00  0.00    +0.001 C 
BRANCH  28  33
ATOM     33  N   UNL     1      33.898 -22.812 -14.251  0.00  0.00    -0.356 N 
ATOM     34  H   UNL     1      33.878 -21.893 -14.604  0.00  0.00    +0.142 HD
ATOM     35  H   UNL     1      34.739 -23.188 -13.906  0.00  0.00    +0.142 HD
ENDBRANCH  28  33
ENDBRANCH  24  27
ENDBRANCH  22  25
ENDBRANCH   4  21
TORSDOF 7
ENDMDL
MODEL 4
REMARK VINA RESULT:     -11.2      5.353      8.630
REMARK  Name = 15985904
REMARK  7 active torsions:
REMARK  status: ('A' for Active; 'I' for Inactive)
REMARK    1  A    between atoms: N_1  and  S_6
REMARK    2  A    between atoms: C_4  and  C_21
REMARK    3  A    between atoms: S_6  and  C_9
REMARK    4  A    between atoms: C_10  and  C_17
REMARK    5  A    between atoms: C_22  and  C_25
REMARK    6  A    between atoms: N_24  and  C_27
REMARK    7  A    between atoms: C_28  and  N_33
REMARK                            x       y       z     vdW  Elec       q    Type
REMARK                         _______ _______ _______ _____ _____    ______ ____
ROOT
ATOM      1  N   UNL     1      36.353 -23.123 -15.561  0.00  0.00    -0.167 N 
ATOM      2  C   UNL     1      36.032 -22.550 -16.722  0.00  0.00    +0.089 C 
ATOM      3  C   UNL     1      37.477 -22.660 -15.014  0.00  0.00    +0.089 C 
ATOM      4  C   UNL     1      37.027 -21.629 -16.965  0.00  0.00    +0.018 C 
ATOM      5  C   UNL     1      37.941 -21.698 -15.884  0.00  0.00    +0.019 C 
ENDROOT
BRANCH   1   6
ATOM      6  S   UNL     1      35.394 -24.361 -14.829  0.00  0.00    +0.080 S 
ATOM      7  O   UNL     1      35.767 -24.273 -13.429  0.00  0.00    -0.149 OA
ATOM      8  O   UNL     1      35.618 -25.556 -15.621  0.00  0.00    -0.149 OA
BRANCH   6   9
ATOM      9  C   UNL     1      33.736 -23.862 -15.049  0.00  0.00    +0.126 C 
ATOM     10  C   UNL     1      31.085 -23.066 -15.400  0.00  0.00    +0.003 C 
ATOM     11  C   UNL     1      32.835 -23.948 -13.987  0.00  0.00    +0.020 C 
ATOM     12  C   UNL     1      33.311 -23.377 -16.286  0.00  0.00    +0.020 C 
ATOM     13  C   UNL     1      31.510 -23.551 -14.163  0.00  0.00    +0.001 C 
ATOM     14  C   UNL     1      31.986 -22.979 -16.462  0.00  0.00    +0.001 C 
BRANCH  10  17
ATOM     15  N   UNL     1      27.828 -22.160 -16.539  0.00  0.00    -0.208 N 
ATOM     16  N   UNL     1      27.581 -21.954 -15.234  0.00  0.00    -0.176 NA
ATOM     17  C   UNL     1      29.721 -22.657 -15.581  0.00  0.00    +0.037 C 
ATOM     18  C   UNL     1      29.098 -22.583 -16.800  0.00  0.00    +0.086 C 
ATOM     19  C   UNL     1      28.744 -22.260 -14.654  0.00  0.00    +0.119 C 
ATOM     20  C   UNL     1      26.785 -21.930 -17.510  0.00  0.00    +0.140 C 
ENDBRANCH  10  17
ENDBRANCH   6   9
ENDBRANCH   1   6
BRANCH   4  21
ATOM     21  C   UNL     1      37.092 -20.785 -18.093  0.00  0.00    +0.006 C 
ATOM     22  C   UNL     1      36.414 -20.895 -19.272  0.00  0.00    +0.058 C 
BRANCH  22  25
ATOM     23  O   UNL     1      37.673 -19.328 -20.543  0.00  0.00    -0.270 OA
ATOM     24  N   UNL     1      35.439 -19.760 -21.121  0.00  0.00    -0.279 N 
ATOM     25  C   UNL     1      36.602 -19.903 -20.377  0.00  0.00    +0.250 C 
ATOM     26  H   UNL     1      34.670 -20.308 -20.838  0.00  0.00    +0.155 HD
BRANCH  24  27
ATOM     27  C   UNL     1      35.232 -18.917 -22.240  0.00  0.00    +0.064 C 
ATOM     28  C   UNL     1      35.286 -17.539 -22.098  0.00  0.00    +0.055 C 
ATOM     29  C   UNL     1      34.977 -19.505 -23.468  0.00  0.00    +0.016 C 
ATOM     30  C   UNL     1      35.079 -16.729 -23.214  0.00  0.00    +0.015 C 
ATOM     31  C   UNL     1      34.770 -18.695 -24.584  0.00  0.00    +0.001 C 
ATOM     32  C   UNL     1      34.820 -17.307 -24.457  0.00  0.00    +0.001 C 
BRANCH  28  33
ATOM     33  N   UNL     1      35.547 -16.932 -20.849  0.00  0.00    -0.356 N 
ATOM     34  H   UNL     1      35.299 -17.395 -20.016  0.00  0.00    +0.142 HD
ATOM     35  H   UNL     1      35.976 -16.048 -20.812  0.00  0.00    +0.142 HD
ENDBRANCH  28  33
ENDBRANCH  24  27
ENDBRANCH  22  25
ENDBRANCH   4  21
TORSDOF 7
ENDMDL
MODEL 5
REMARK VINA RESULT:     -11.1      2.184     11.721
REMARK  Name = 15985904
REMARK  7 active torsions:
REMARK  status: ('A' for Active; 'I' for Inactive)
REMARK    1  A    between atoms: N_1  and  S_6
REMARK    2  A    between atoms: C_4  and  C_21
REMARK    3  A    between atoms: S_6  and  C_9
REMARK    4  A    between atoms: C_10  and  C_17
REMARK    5  A    between atoms: C_22  and  C_25
REMARK    6  A    between atoms: N_24  and  C_27
REMARK    7  A    between atoms: C_28  and  N_33
REMARK                            x       y       z     vdW  Elec       q    Type
REMARK                         _______ _______ _______ _____ _____    ______ ____
ROOT
ATOM      1  N   UNL     1      35.129 -18.044 -23.076  0.00  0.00    -0.167 N 
ATOM      2  C   UNL     1      34.533 -19.037 -22.416  0.00  0.00    +0.089 C 
ATOM      3  C   UNL     1      36.237 -17.585 -22.493  0.00  0.00    +0.089 C 
ATOM      4  C   UNL     1      35.312 -19.257 -21.301  0.00  0.00    +0.018 C 
ATOM      5  C   UNL     1      36.390 -18.338 -21.350  0.00  0.00    +0.019 C 
ENDROOT
BRANCH   1   6
ATOM      6  S   UNL     1      34.517 -17.404 -24.561  0.00  0.00    +0.080 S 
ATOM      7  O   UNL     1      33.227 -18.059 -24.688  0.00  0.00    -0.149 OA
ATOM      8  O   UNL     1      35.578 -17.578 -25.535  0.00  0.00    -0.149 OA
BRANCH   6   9
ATOM      9  C   UNL     1      34.305 -15.693 -24.284  0.00  0.00    +0.126 C 
ATOM     10  C   UNL     1      33.966 -12.960 -23.840  0.00  0.00    +0.003 C 
ATOM     11  C   UNL     1      34.799 -15.109 -23.117  0.00  0.00    +0.020 C 
ATOM     12  C   UNL     1      33.642 -14.910 -25.228  0.00  0.00    +0.020 C 
ATOM     13  C   UNL     1      34.630 -13.743 -22.895  0.00  0.00    +0.001 C 
ATOM     14  C   UNL     1      33.472 -13.543 -25.006  0.00  0.00    +0.001 C 
BRANCH  10  17
ATOM     15  N   UNL     1      33.048  -9.675 -22.795  0.00  0.00    -0.208 N 
ATOM     16  N   UNL     1      33.966  -9.283 -23.695  0.00  0.00    -0.176 NA
ATOM     17  C   UNL     1      33.791 -11.553 -23.611  0.00  0.00    +0.037 C 
ATOM     18  C   UNL     1      32.905 -11.028 -22.705  0.00  0.00    +0.086 C 
ATOM     19  C   UNL     1      34.417 -10.438 -24.190  0.00  0.00    +0.119 C 
ATOM     20  C   UNL     1      32.324  -8.685 -22.032  0.00  0.00    +0.140 C 
ENDBRANCH  10  17
ENDBRANCH   6   9
ENDBRANCH   1   6
BRANCH   4  21
ATOM     21  C   UNL     1      35.054 -20.229 -20.312  0.00  0.00    +0.006 C 
ATOM     22  C   UNL     1      35.950 -20.974 -19.605  0.00  0.00    +0.058 C 
BRANCH  22  25
ATOM     23  O   UNL     1      34.641 -22.805 -18.836  0.00  0.00    -0.270 OA
ATOM     24  N   UNL     1      36.183 -21.794 -17.384  0.00  0.00    -0.279 N 
ATOM     25  C   UNL     1      35.502 -21.970 -18.581  0.00  0.00    +0.250 C 
ATOM     26  H   UNL     1      36.846 -21.065 -17.362  0.00  0.00    +0.155 HD
BRANCH  24  27
ATOM     27  C   UNL     1      36.031 -22.541 -16.190  0.00  0.00    +0.064 C 
ATOM     28  C   UNL     1      37.140 -23.072 -15.551  0.00  0.00    +0.055 C 
ATOM     29  C   UNL     1      34.753 -22.723 -15.687  0.00  0.00    +0.016 C 
ATOM     30  C   UNL     1      36.966 -23.805 -14.377  0.00  0.00    +0.015 C 
ATOM     31  C   UNL     1      34.579 -23.456 -14.513  0.00  0.00    +0.001 C 
ATOM     32  C   UNL     1      35.685 -23.998 -13.858  0.00  0.00    +0.001 C 
BRANCH  28  33
ATOM     33  N   UNL     1      38.446 -22.889 -16.057  0.00  0.00    -0.356 N 
ATOM     34  H   UNL     1      39.190 -23.429 -15.704  0.00  0.00    +0.142 HD
ATOM     35  H   UNL     1      38.612 -22.224 -16.762  0.00  0.00    +0.142 HD
ENDBRANCH  28  33
ENDBRANCH  24  27
ENDBRANCH  22  25
ENDBRANCH   4  21
TORSDOF 7
ENDMDL
MODEL 6
REMARK VINA RESULT:     -10.8      1.483      1.851
REMARK  Name = 15985904
REMARK  7 active torsions:
REMARK  status: ('A' for Active; 'I' for Inactive)
REMARK    1  A    between atoms: N_1  and  S_6
REMARK    2  A    between atoms: C_4  and  C_21
REMARK    3  A    between atoms: S_6  and  C_9
REMARK    4  A    between atoms: C_10  and  C_17
REMARK    5  A    between atoms: C_22  and  C_25
REMARK    6  A    between atoms: N_24  and  C_27
REMARK    7  A    between atoms: C_28  and  N_33
REMARK                            x       y       z     vdW  Elec       q    Type
REMARK                         _______ _______ _______ _____ _____    ______ ____
ROOT
ATOM      1  N   UNL     1      34.673 -16.376 -23.524  0.00  0.00    -0.167 N 
ATOM      2  C   UNL     1      34.342 -15.389 -24.357  0.00  0.00    +0.089 C 
ATOM      3  C   UNL     1      35.025 -15.969 -22.304  0.00  0.00    +0.089 C 
ATOM      4  C   UNL     1      34.487 -14.229 -23.628  0.00  0.00    +0.018 C 
ATOM      5  C   UNL     1      34.920 -14.596 -22.329  0.00  0.00    +0.019 C 
ENDROOT
BRANCH   1   6
ATOM      6  S   UNL     1      34.647 -18.041 -23.987  0.00  0.00    +0.080 S 
ATOM      7  O   UNL     1      35.777 -18.143 -24.892  0.00  0.00    -0.149 OA
ATOM      8  O   UNL     1      33.286 -18.315 -24.408  0.00  0.00    -0.149 OA
BRANCH   6   9
ATOM      9  C   UNL     1      34.957 -18.940 -22.522  0.00  0.00    +0.126 C 
ATOM     10  C   UNL     1      35.452 -20.378 -20.184  0.00  0.00    +0.003 C 
ATOM     11  C   UNL     1      36.268 -19.136 -22.088  0.00  0.00    +0.020 C 
ATOM     12  C   UNL     1      33.894 -19.464 -21.787  0.00  0.00    +0.020 C 
ATOM     13  C   UNL     1      36.516 -19.855 -20.919  0.00  0.00    +0.001 C 
ATOM     14  C   UNL     1      34.141 -20.183 -20.618  0.00  0.00    +0.001 C 
BRANCH  10  17
ATOM     15  N   UNL     1      36.725 -21.905 -17.222  0.00  0.00    -0.208 N 
ATOM     16  N   UNL     1      35.516 -22.491 -17.172  0.00  0.00    -0.176 NA
ATOM     17  C   UNL     1      35.708 -21.119 -18.980  0.00  0.00    +0.037 C 
ATOM     18  C   UNL     1      36.890 -21.071 -18.288  0.00  0.00    +0.086 C 
ATOM     19  C   UNL     1      34.900 -22.004 -18.251  0.00  0.00    +0.119 C 
ATOM     20  C   UNL     1      37.701 -22.188 -16.196  0.00  0.00    +0.140 C 
ENDBRANCH  10  17
ENDBRANCH   6   9
ENDBRANCH   1   6
BRANCH   4  21
ATOM     21  C   UNL     1      34.241 -12.929 -24.116  0.00  0.00    +0.006 C 
ATOM     22  C   UNL     1      34.198 -11.757 -23.420  0.00  0.00    +0.058 C 
BRANCH  22  25
ATOM     23  O   UNL     1      33.558 -10.408 -25.271  0.00  0.00    -0.270 OA
ATOM     24  N   UNL     1      34.134  -9.386 -23.237  0.00  0.00    -0.279 N 
ATOM     25  C   UNL     1      33.921 -10.452 -24.101  0.00  0.00    +0.250 C 
ATOM     26  H   UNL     1      34.427  -9.615 -22.325  0.00  0.00    +0.155 HD
BRANCH  24  27
ATOM     27  C   UNL     1      33.977  -8.007 -23.520  0.00  0.00    +0.064 C 
ATOM     28  C   UNL     1      32.746  -7.394 -23.354  0.00  0.00    +0.055 C 
ATOM     29  C   UNL     1      35.082  -7.297 -23.963  0.00  0.00    +0.016 C 
ATOM     30  C   UNL     1      32.616  -6.035 -23.639  0.00  0.00    +0.015 C 
ATOM     31  C   UNL     1      34.952  -5.938 -24.248  0.00  0.00    +0.001 C 
ATOM     32  C   UNL     1      33.719  -5.307 -24.087  0.00  0.00    +0.001 C 
BRANCH  28  33
ATOM     33  N   UNL     1      31.616  -8.110 -22.901  0.00  0.00    -0.356 N 
ATOM     34  H   UNL     1      31.482  -9.045 -23.180  0.00  0.00    +0.142 HD
ATOM     35  H   UNL     1      30.963  -7.675 -22.307  0.00  0.00    +0.142 HD
ENDBRANCH  28  33
ENDBRANCH  24  27
ENDBRANCH  22  25
ENDBRANCH   4  21
TORSDOF 7
ENDMDL
MODEL 7
REMARK VINA RESULT:     -10.6      1.826     11.643
REMARK  Name = 15985904
REMARK  7 active torsions:
REMARK  status: ('A' for Active; 'I' for Inactive)
REMARK    1  A    between atoms: N_1  and  S_6
REMARK    2  A    between atoms: C_4  and  C_21
REMARK    3  A    between atoms: S_6  and  C_9
REMARK    4  A    between atoms: C_10  and  C_17
REMARK    5  A    between atoms: C_22  and  C_25
REMARK    6  A    between atoms: N_24  and  C_27
REMARK    7  A    between atoms: C_28  and  N_33
REMARK                            x       y       z     vdW  Elec       q    Type
REMARK                         _______ _______ _______ _____ _____    ______ ____
ROOT
ATOM      1  N   UNL     1      34.894 -18.051 -23.127  0.00  0.00    -0.167 N 
ATOM      2  C   UNL     1      34.219 -19.076 -22.608  0.00  0.00    +0.089 C 
ATOM      3  C   UNL     1      35.906 -17.622 -22.372  0.00  0.00    +0.089 C 
ATOM      4  C   UNL     1      34.835 -19.352 -21.407  0.00  0.00    +0.018 C 
ATOM      5  C   UNL     1      35.902 -18.431 -21.257  0.00  0.00    +0.019 C 
ENDROOT
BRANCH   1   6
ATOM      6  S   UNL     1      34.492 -17.337 -24.649  0.00  0.00    +0.080 S 
ATOM      7  O   UNL     1      33.213 -17.947 -24.965  0.00  0.00    -0.149 OA
ATOM      8  O   UNL     1      35.663 -17.507 -25.489  0.00  0.00    -0.149 OA
BRANCH   6   9
ATOM      9  C   UNL     1      34.291 -15.632 -24.331  0.00  0.00    +0.126 C 
ATOM     10  C   UNL     1      33.971 -12.908 -23.822  0.00  0.00    +0.003 C 
ATOM     11  C   UNL     1      33.643 -14.821 -25.261  0.00  0.00    +0.020 C 
ATOM     12  C   UNL     1      34.779 -15.082 -23.145  0.00  0.00    +0.020 C 
ATOM     13  C   UNL     1      33.483 -13.459 -25.007  0.00  0.00    +0.001 C 
ATOM     14  C   UNL     1      34.619 -13.720 -22.891  0.00  0.00    +0.001 C 
BRANCH  10  17
ATOM     15  N   UNL     1      34.135  -9.352 -23.588  0.00  0.00    -0.208 N 
ATOM     16  N   UNL     1      33.051  -9.493 -22.805  0.00  0.00    -0.176 NA
ATOM     17  C   UNL     1      33.806 -11.506 -23.561  0.00  0.00    +0.037 C 
ATOM     18  C   UNL     1      34.627 -10.531 -24.067  0.00  0.00    +0.086 C 
ATOM     19  C   UNL     1      32.856 -10.814 -22.794  0.00  0.00    +0.119 C 
ATOM     20  C   UNL     1      34.664  -8.035 -23.847  0.00  0.00    +0.140 C 
ENDBRANCH  10  17
ENDBRANCH   6   9
ENDBRANCH   1   6
BRANCH   4  21
ATOM     21  C   UNL     1      34.448 -20.372 -20.513  0.00  0.00    +0.006 C 
ATOM     22  C   UNL     1      35.199 -21.401 -20.027  0.00  0.00    +0.058 C 
BRANCH  22  25
ATOM     23  O   UNL     1      34.114 -23.444 -19.478  0.00  0.00    -0.270 OA
ATOM     24  N   UNL     1      34.769 -21.984 -17.761  0.00  0.00    -0.279 N 
ATOM     25  C   UNL     1      34.627 -22.406 -19.076  0.00  0.00    +0.250 C 
ATOM     26  H   UNL     1      35.211 -21.113 -17.627  0.00  0.00    +0.155 HD
BRANCH  24  27
ATOM     27  C   UNL     1      34.352 -22.664 -16.590  0.00  0.00    +0.064 C 
ATOM     28  C   UNL     1      33.003 -22.855 -16.335  0.00  0.00    +0.055 C 
ATOM     29  C   UNL     1      35.323 -23.127 -15.718  0.00  0.00    +0.016 C 
ATOM     30  C   UNL     1      32.616 -23.527 -15.176  0.00  0.00    +0.015 C 
ATOM     31  C   UNL     1      34.936 -23.800 -14.559  0.00  0.00    +0.001 C 
ATOM     32  C   UNL     1      33.583 -23.999 -14.287  0.00  0.00    +0.001 C 
BRANCH  28  33
ATOM     33  N   UNL     1      32.007 -22.387 -17.221  0.00  0.00    -0.356 N 
ATOM     34  H   UNL     1      32.210 -21.653 -17.845  0.00  0.00    +0.142 HD
ATOM     35  H   UNL     1      31.112 -22.794 -17.214  0.00  0.00    +0.142 HD
ENDBRANCH  28  33
ENDBRANCH  24  27
ENDBRANCH  22  25
ENDBRANCH   4  21
TORSDOF 7
ENDMDL
MODEL 8
REMARK VINA RESULT:     -10.4      2.437     11.569
REMARK  Name = 15985904
REMARK  7 active torsions:
REMARK  status: ('A' for Active; 'I' for Inactive)
REMARK    1  A    between atoms: N_1  and  S_6
REMARK    2  A    between atoms: C_4  and  C_21
REMARK    3  A    between atoms: S_6  and  C_9
REMARK    4  A    between atoms: C_10  and  C_17
REMARK    5  A    between atoms: C_22  and  C_25
REMARK    6  A    between atoms: N_24  and  C_27
REMARK    7  A    between atoms: C_28  and  N_33
REMARK                            x       y       z     vdW  Elec       q    Type
REMARK                         _______ _______ _______ _____ _____    ______ ____
ROOT
ATOM      1  N   UNL     1      36.299 -19.306 -21.293  0.00  0.00    -0.167 N 
ATOM      2  C   UNL     1      35.242 -20.086 -21.064  0.00  0.00    +0.089 C 
ATOM      3  C   UNL     1      37.219 -19.333 -20.329  0.00  0.00    +0.089 C 
ATOM      4  C   UNL     1      35.482 -20.681 -19.845  0.00  0.00    +0.018 C 
ATOM      5  C   UNL     1      36.733 -20.204 -19.380  0.00  0.00    +0.019 C 
ENDROOT
BRANCH   1   6
ATOM      6  S   UNL     1      36.462 -18.342 -22.719  0.00  0.00    +0.080 S 
ATOM      7  O   UNL     1      35.781 -19.136 -23.726  0.00  0.00    -0.149 OA
ATOM      8  O   UNL     1      37.871 -18.008 -22.813  0.00  0.00    -0.149 OA
BRANCH   6   9
ATOM      9  C   UNL     1      35.573 -16.875 -22.397  0.00  0.00    +0.126 C 
ATOM     10  C   UNL     1      34.153 -14.528 -21.884  0.00  0.00    +0.003 C 
ATOM     11  C   UNL     1      35.154 -16.067 -23.455  0.00  0.00    +0.020 C 
ATOM     12  C   UNL     1      35.282 -16.509 -21.083  0.00  0.00    +0.020 C 
ATOM     13  C   UNL     1      34.444 -14.894 -23.198  0.00  0.00    +0.001 C 
ATOM     14  C   UNL     1      34.572 -15.336 -20.826  0.00  0.00    +0.001 C 
BRANCH  10  17
ATOM     15  N   UNL     1      32.572 -11.331 -21.870  0.00  0.00    -0.208 N 
ATOM     16  N   UNL     1      32.132 -11.709 -20.657  0.00  0.00    -0.176 NA
ATOM     17  C   UNL     1      33.423 -13.321 -21.619  0.00  0.00    +0.037 C 
ATOM     18  C   UNL     1      33.351 -12.263 -22.489  0.00  0.00    +0.086 C 
ATOM     19  C   UNL     1      32.657 -12.928 -20.511  0.00  0.00    +0.119 C 
ATOM     20  C   UNL     1      32.205 -10.037 -22.394  0.00  0.00    +0.140 C 
ENDBRANCH  10  17
ENDBRANCH   6   9
ENDBRANCH   1   6
BRANCH   4  21
ATOM     21  C   UNL     1      34.618 -21.595 -19.206  0.00  0.00    +0.006 C 
ATOM     22  C   UNL     1      34.792 -22.231 -18.012  0.00  0.00    +0.058 C 
BRANCH  22  25
ATOM     23  O   UNL     1      33.426 -24.175 -18.101  0.00  0.00    -0.270 OA
ATOM     24  N   UNL     1      33.301 -22.757 -16.235  0.00  0.00    -0.279 N 
ATOM     25  C   UNL     1      33.765 -23.178 -17.474  0.00  0.00    +0.250 C 
ATOM     26  H   UNL     1      33.691 -21.924 -15.882  0.00  0.00    +0.155 HD
BRANCH  24  27
ATOM     27  C   UNL     1      32.331 -23.391 -15.420  0.00  0.00    +0.064 C 
ATOM     28  C   UNL     1      30.980 -23.219 -15.678  0.00  0.00    +0.055 C 
ATOM     29  C   UNL     1      32.770 -24.180 -14.369  0.00  0.00    +0.016 C 
ATOM     30  C   UNL     1      30.044 -23.853 -14.861  0.00  0.00    +0.015 C 
ATOM     31  C   UNL     1      31.833 -24.814 -13.553  0.00  0.00    +0.001 C 
ATOM     32  C   UNL     1      30.470 -24.650 -13.799  0.00  0.00    +0.001 C 
BRANCH  28  33
ATOM     33  N   UNL     1      30.526 -22.418 -16.748  0.00  0.00    -0.356 N 
ATOM     34  H   UNL     1      30.061 -21.570 -16.565  0.00  0.00    +0.142 HD
ATOM     35  H   UNL     1      30.674 -22.708 -17.677  0.00  0.00    +0.142 HD
ENDBRANCH  28  33
ENDBRANCH  24  27
ENDBRANCH  22  25
ENDBRANCH   4  21
TORSDOF 7
ENDMDL
MODEL 9
REMARK VINA RESULT:     -10.3      6.415      9.949
REMARK  Name = 15985904
REMARK  7 active torsions:
REMARK  status: ('A' for Active; 'I' for Inactive)
REMARK    1  A    between atoms: N_1  and  S_6
REMARK    2  A    between atoms: C_4  and  C_21
REMARK    3  A    between atoms: S_6  and  C_9
REMARK    4  A    between atoms: C_10  and  C_17
REMARK    5  A    between atoms: C_22  and  C_25
REMARK    6  A    between atoms: N_24  and  C_27
REMARK    7  A    between atoms: C_28  and  N_33
REMARK                            x       y       z     vdW  Elec       q    Type
REMARK                         _______ _______ _______ _____ _____    ______ ____
ROOT
ATOM      1  N   UNL     1      32.366 -23.619 -14.734  0.00  0.00    -0.167 N 
ATOM      2  C   UNL     1      32.969 -22.792 -15.589  0.00  0.00    +0.089 C 
ATOM      3  C   UNL     1      31.190 -24.082 -15.157  0.00  0.00    +0.089 C 
ATOM      4  C   UNL     1      32.121 -22.699 -16.670  0.00  0.00    +0.018 C 
ATOM      5  C   UNL     1      30.995 -23.515 -16.397  0.00  0.00    +0.019 C 
ENDROOT
BRANCH   1   6
ATOM      6  S   UNL     1      33.052 -24.053 -13.207  0.00  0.00    +0.080 S 
ATOM      7  O   UNL     1      32.235 -25.181 -12.795  0.00  0.00    -0.149 OA
ATOM      8  O   UNL     1      33.123 -22.823 -12.441  0.00  0.00    -0.149 OA
BRANCH   6   9
ATOM      9  C   UNL     1      34.681 -24.576 -13.555  0.00  0.00    +0.126 C 
ATOM     10  C   UNL     1      37.283 -25.413 -14.111  0.00  0.00    +0.003 C 
ATOM     11  C   UNL     1      34.999 -25.071 -14.820  0.00  0.00    +0.020 C 
ATOM     12  C   UNL     1      35.664 -24.499 -12.569  0.00  0.00    +0.020 C 
ATOM     13  C   UNL     1      36.300 -25.490 -15.097  0.00  0.00    +0.001 C 
ATOM     14  C   UNL     1      36.965 -24.917 -12.847  0.00  0.00    +0.001 C 
BRANCH  10  17
ATOM     15  N   UNL     1      40.291 -26.982 -15.215  0.00  0.00    -0.208 N 
ATOM     16  N   UNL     1      40.892 -26.037 -14.471  0.00  0.00    -0.176 NA
ATOM     17  C   UNL     1      38.623 -25.844 -14.397  0.00  0.00    +0.037 C 
ATOM     18  C   UNL     1      38.929 -26.909 -15.204  0.00  0.00    +0.086 C 
ATOM     19  C   UNL     1      39.864 -25.345 -13.974  0.00  0.00    +0.119 C 
ATOM     20  C   UNL     1      41.091 -27.947 -15.931  0.00  0.00    +0.140 C 
ENDBRANCH  10  17
ENDBRANCH   6   9
ENDBRANCH   1   6
BRANCH   4  21
ATOM     21  C   UNL     1      32.361 -21.923 -17.824  0.00  0.00    +0.006 C 
ATOM     22  C   UNL     1      33.534 -21.751 -18.499  0.00  0.00    +0.058 C 
BRANCH  22  25
ATOM     23  O   UNL     1      32.617 -20.623 -20.381  0.00  0.00    -0.270 OA
ATOM     24  N   UNL     1      34.918 -20.466 -19.944  0.00  0.00    -0.279 N 
ATOM     25  C   UNL     1      33.614 -20.885 -19.717  0.00  0.00    +0.250 C 
ATOM     26  H   UNL     1      35.596 -20.778 -19.301  0.00  0.00    +0.155 HD
BRANCH  24  27
ATOM     27  C   UNL     1      35.384 -19.640 -20.996  0.00  0.00    +0.064 C 
ATOM     28  C   UNL     1      36.647 -19.071 -20.933  0.00  0.00    +0.055 C 
ATOM     29  C   UNL     1      34.548 -19.420 -22.079  0.00  0.00    +0.016 C 
ATOM     30  C   UNL     1      37.084 -18.261 -21.981  0.00  0.00    +0.015 C 
ATOM     31  C   UNL     1      34.985 -18.610 -23.127  0.00  0.00    +0.001 C 
ATOM     32  C   UNL     1      36.253 -18.030 -23.078  0.00  0.00    +0.001 C 
BRANCH  28  33
ATOM     33  N   UNL     1      37.505 -19.292 -19.834  0.00  0.00    -0.356 N 
ATOM     34  H   UNL     1      38.063 -20.103 -19.801  0.00  0.00    +0.142 HD
ATOM     35  H   UNL     1      37.547 -18.637 -19.101  0.00  0.00    +0.142 HD
ENDBRANCH  28  33
ENDBRANCH  24  27
ENDBRANCH  22  25
ENDBRANCH   4  21
TORSDOF 7
ENDMDL
