MODEL 1
REMARK VINA RESULT:     -11.6      0.000      0.000
REMARK  Name = 16048422
REMARK  11 active torsions:
REMARK  status: ('A' for Active; 'I' for Inactive)
REMARK    1  A    between atoms: C_1  and  C_4
REMARK    2  A    between atoms: C_1  and  N_18
REMARK    3  A    between atoms: C_1  and  C_33
REMARK    4  A    between atoms: N_3  and  C_6
REMARK    5  A    between atoms: C_6  and  C_9
REMARK    6  A    between atoms: C_9  and  C_11
REMARK    7  A    between atoms: C_19  and  C_21
REMARK    8  A    between atoms: C_24  and  C_27
REMARK    9  A    between atoms: C_33  and  C_34
REMARK   10  A    between atoms: C_34  and  C_36
REMARK   11  A    between atoms: C_36  and  O_37
REMARK                            x       y       z     vdW  Elec       q    Type
REMARK                         _______ _______ _______ _____ _____    ______ ____
ROOT
ATOM      1  C   UNL     1      34.439 -23.572 -15.610  0.00  0.00    +0.149 C 
ENDROOT
BRANCH   1   4
ATOM      2  O   UNL     1      32.796 -22.148 -14.550  0.00  0.00    -0.273 OA
ATOM      3  N   UNL     1      32.314 -24.405 -14.809  0.00  0.00    -0.306 N 
ATOM      4  C   UNL     1      33.103 -23.272 -14.943  0.00  0.00    +0.240 C 
ATOM      5  H   UNL     1      32.656 -25.259 -15.160  0.00  0.00    +0.149 HD
BRANCH   3   6
ATOM      6  C   UNL     1      31.013 -24.393 -14.180  0.00  0.00    +0.061 C 
ATOM      7  C   UNL     1      30.078 -25.353 -14.931  0.00  0.00    +0.020 C 
ATOM      8  C   UNL     1      31.179 -24.898 -12.736  0.00  0.00    +0.020 C 
BRANCH   6   9
ATOM      9  C   UNL     1      30.441 -22.952 -14.134  0.00  0.00    +0.044 C 
BRANCH   9  11
ATOM     10  F   UNL     1      26.150 -21.885 -17.636  0.00  0.00    -0.204 F 
ATOM     11  C   UNL     1      29.291 -22.666 -15.072  0.00  0.00    -0.020 C 
ATOM     12  C   UNL     1      29.465 -22.802 -16.450  0.00  0.00    -0.002 C 
ATOM     13  C   UNL     1      28.057 -22.266 -14.561  0.00  0.00    -0.002 C 
ATOM     14  C   UNL     1      28.404 -22.539 -17.316  0.00  0.00    +0.029 C 
ATOM     15  C   UNL     1      26.995 -22.003 -15.427  0.00  0.00    +0.029 C 
ATOM     16  C   UNL     1      27.169 -22.139 -16.804  0.00  0.00    +0.140 C 
ENDBRANCH   9  11
ENDBRANCH   6   9
ENDBRANCH   3   6
ENDBRANCH   1   4
BRANCH   1  18
ATOM     17  O   UNL     1      33.575 -23.926 -18.325  0.00  0.00    -0.270 OA
ATOM     18  N   UNL     1      34.560 -22.616 -16.684  0.00  0.00    -0.295 N 
ATOM     19  C   UNL     1      34.110 -22.879 -17.970  0.00  0.00    +0.246 C 
ATOM     20  H   UNL     1      34.977 -21.745 -16.498  0.00  0.00    +0.150 HD
BRANCH  19  21
ATOM     21  C   UNL     1      34.332 -21.803 -18.969  0.00  0.00    +0.053 C 
ATOM     22  C   UNL     1      35.630 -21.454 -19.342  0.00  0.00    +0.005 C 
ATOM     23  C   UNL     1      33.243 -21.141 -19.535  0.00  0.00    +0.005 C 
ATOM     24  C   UNL     1      34.749 -19.782 -20.846  0.00  0.00    +0.000 C 
ATOM     25  C   UNL     1      35.839 -20.443 -20.280  0.00  0.00    +0.000 C 
ATOM     26  C   UNL     1      33.451 -20.130 -20.473  0.00  0.00    +0.000 C 
BRANCH  24  27
ATOM     27  C   UNL     1      34.965 -18.733 -21.819  0.00  0.00    +0.000 C 
ATOM     28  C   UNL     1      34.658 -18.953 -23.162  0.00  0.00    +0.000 C 
ATOM     29  C   UNL     1      35.479 -17.501 -21.415  0.00  0.00    +0.000 C 
ATOM     30  C   UNL     1      34.864 -17.942 -24.100  0.00  0.00    +0.000 C 
ATOM     31  C   UNL     1      35.686 -16.490 -22.354  0.00  0.00    +0.000 C 
ATOM     32  C   UNL     1      35.379 -16.711 -23.696  0.00  0.00    +0.000 C 
ENDBRANCH  24  27
ENDBRANCH  19  21
ENDBRANCH   1  18
BRANCH   1  33
ATOM     33  C   UNL     1      35.609 -23.434 -14.628  0.00  0.00    +0.041 C 
BRANCH  33  34
ATOM     34  C   UNL     1      36.820 -24.306 -14.964  0.00  0.00    +0.112 C 
BRANCH  34  36
ATOM     35  O   UNL     1      36.334 -26.583 -15.682  0.00  0.00    -0.250 OA
ATOM     36  C   UNL     1      36.561 -25.785 -14.783  0.00  0.00    +0.314 C 
BRANCH  36  37
ATOM     37  O   UNL     1      36.640 -26.147 -13.475  0.00  0.00    -0.480 OA
ATOM     38  H   UNL     1      37.356 -25.852 -12.949  0.00  0.00    +0.295 HD
ENDBRANCH  36  37
ENDBRANCH  34  36
ENDBRANCH  33  34
ENDBRANCH   1  33
TORSDOF 11
ENDMDL
MODEL 2
REMARK VINA RESULT:     -11.4      3.388      6.647
REMARK  Name = 16048422
REMARK  11 active torsions:
REMARK  status: ('A' for Active; 'I' for Inactive)
REMARK    1  A    between atoms: C_1  and  C_4
REMARK    2  A    between atoms: C_1  and  N_18
REMARK    3  A    between atoms: C_1  and  C_33
REMARK    4  A    between atoms: N_3  and  C_6
REMARK    5  A    between atoms: C_6  and  C_9
REMARK    6  A    between atoms: C_9  and  C_11
REMARK    7  A    between atoms: C_19  and  C_21
REMARK    8  A    between atoms: C_24  and  C_27
REMARK    9  A    between atoms: C_33  and  C_34
REMARK   10  A    between atoms: C_34  and  C_36
REMARK   11  A    between atoms: C_36  and  O_37
REMARK                            x       y       z     vdW  Elec       q    Type
REMARK                         _______ _______ _______ _____ _____    ______ ____
ROOT
ATOM      1  C   UNL     1      31.843 -23.217 -15.116  0.00  0.00    +0.149 C 
ENDROOT
BRANCH   1   4
ATOM      2  O   UNL     1      32.929 -24.998 -13.892  0.00  0.00    -0.273 OA
ATOM      3  N   UNL     1      34.188 -23.151 -14.522  0.00  0.00    -0.306 N 
ATOM      4  C   UNL     1      33.027 -23.907 -14.450  0.00  0.00    +0.240 C 
ATOM      5  H   UNL     1      34.156 -22.288 -14.995  0.00  0.00    +0.149 HD
BRANCH   3   6
ATOM      6  C   UNL     1      35.441 -23.570 -13.938  0.00  0.00    +0.061 C 
ATOM      7  C   UNL     1      36.543 -22.577 -14.339  0.00  0.00    +0.020 C 
ATOM      8  C   UNL     1      35.287 -23.539 -12.408  0.00  0.00    +0.020 C 
BRANCH   6   9
ATOM      9  C   UNL     1      35.788 -25.019 -14.368  0.00  0.00    +0.044 C 
BRANCH   9  11
ATOM     10  F   UNL     1      41.219 -26.484 -13.957  0.00  0.00    -0.204 F 
ATOM     11  C   UNL     1      37.244 -25.412 -14.258  0.00  0.00    -0.020 C 
ATOM     12  C   UNL     1      38.043 -24.854 -13.260  0.00  0.00    -0.002 C 
ATOM     13  C   UNL     1      37.788 -26.332 -15.154  0.00  0.00    -0.002 C 
ATOM     14  C   UNL     1      39.386 -25.217 -13.158  0.00  0.00    +0.029 C 
ATOM     15  C   UNL     1      39.130 -26.695 -15.052  0.00  0.00    +0.029 C 
ATOM     16  C   UNL     1      39.929 -26.137 -14.054  0.00  0.00    +0.140 C 
ENDBRANCH   9  11
ENDBRANCH   6   9
ENDBRANCH   3   6
ENDBRANCH   1   4
BRANCH   1  18
ATOM     17  O   UNL     1      33.509 -24.245 -17.216  0.00  0.00    -0.270 OA
ATOM     18  N   UNL     1      32.399 -22.470 -16.217  0.00  0.00    -0.295 N 
ATOM     19  C   UNL     1      33.196 -23.057 -17.189  0.00  0.00    +0.246 C 
ATOM     20  H   UNL     1      32.205 -21.507 -16.283  0.00  0.00    +0.150 HD
BRANCH  19  21
ATOM     21  C   UNL     1      33.714 -22.147 -18.243  0.00  0.00    +0.053 C 
ATOM     22  C   UNL     1      32.829 -21.370 -18.990  0.00  0.00    +0.005 C 
ATOM     23  C   UNL     1      35.085 -22.068 -18.483  0.00  0.00    +0.005 C 
ATOM     24  C   UNL     1      34.686 -20.437 -20.220  0.00  0.00    +0.000 C 
ATOM     25  C   UNL     1      33.315 -20.515 -19.980  0.00  0.00    +0.000 C 
ATOM     26  C   UNL     1      35.572 -21.213 -19.472  0.00  0.00    +0.000 C 
BRANCH  24  27
ATOM     27  C   UNL     1      35.191 -19.550 -21.246  0.00  0.00    +0.000 C 
ATOM     28  C   UNL     1      34.405 -19.252 -22.360  0.00  0.00    +0.000 C 
ATOM     29  C   UNL     1      36.464 -18.992 -21.122  0.00  0.00    +0.000 C 
ATOM     30  C   UNL     1      34.892 -18.396 -23.348  0.00  0.00    +0.000 C 
ATOM     31  C   UNL     1      36.950 -18.136 -22.111  0.00  0.00    +0.000 C 
ATOM     32  C   UNL     1      36.164 -17.839 -23.224  0.00  0.00    +0.000 C 
ENDBRANCH  24  27
ENDBRANCH  19  21
ENDBRANCH   1  18
BRANCH   1  33
ATOM     33  C   UNL     1      30.803 -24.227 -15.615  0.00  0.00    +0.041 C 
BRANCH  33  34
ATOM     34  C   UNL     1      29.351 -23.812 -15.366  0.00  0.00    +0.112 C 
BRANCH  34  36
ATOM     35  O   UNL     1      27.833 -23.729 -17.270  0.00  0.00    -0.250 OA
ATOM     36  C   UNL     1      28.689 -23.195 -16.578  0.00  0.00    +0.314 C 
BRANCH  36  37
ATOM     37  O   UNL     1      29.140 -21.933 -16.803  0.00  0.00    -0.480 OA
ATOM     38  H   UNL     1      29.480 -21.423 -16.094  0.00  0.00    +0.295 HD
ENDBRANCH  36  37
ENDBRANCH  34  36
ENDBRANCH  33  34
ENDBRANCH   1  33
TORSDOF 11
ENDMDL
MODEL 3
REMARK VINA RESULT:     -11.4      1.031      1.785
REMARK  Name = 16048422
REMARK  11 active torsions:
REMARK  status: ('A' for Active; 'I' for Inactive)
REMARK    1  A    between atoms: C_1  and  C_4
REMARK    2  A    between atoms: C_1  and  N_18
REMARK    3  A    between atoms: C_1  and  C_33
REMARK    4  A    between atoms: N_3  and  C_6
REMARK    5  A    between atoms: C_6  and  C_9
REMARK    6  A    between atoms: C_9  and  C_11
REMARK    7  A    between atoms: C_19  and  C_21
REMARK    8  A    between atoms: C_24  and  C_27
REMARK    9  A    between atoms: C_33  and  C_34
REMARK   10  A    between atoms: C_34  and  C_36
REMARK   11  A    between atoms: C_36  and  O_37
REMARK                            x       y       z     vdW  Elec       q    Type
REMARK                         _______ _______ _______ _____ _____    ______ ____
ROOT
ATOM      1  C   UNL     1      34.630 -23.729 -15.664  0.00  0.00    +0.149 C 
ENDROOT
BRANCH   1   4
ATOM      2  O   UNL     1      33.410 -22.482 -13.988  0.00  0.00    -0.273 OA
ATOM      3  N   UNL     1      32.278 -24.090 -15.223  0.00  0.00    -0.306 N 
ATOM      4  C   UNL     1      33.391 -23.343 -14.866  0.00  0.00    +0.240 C 
ATOM      5  H   UNL     1      32.373 -24.757 -15.942  0.00  0.00    +0.149 HD
BRANCH   3   6
ATOM      6  C   UNL     1      30.988 -23.939 -14.591  0.00  0.00    +0.061 C 
ATOM      7  C   UNL     1      31.023 -24.599 -13.205  0.00  0.00    +0.020 C 
ATOM      8  C   UNL     1      30.719 -22.436 -14.412  0.00  0.00    +0.020 C 
BRANCH   6   9
ATOM      9  C   UNL     1      29.868 -24.535 -15.485  0.00  0.00    +0.044 C 
BRANCH   9  11
ATOM     10  F   UNL     1      25.722 -20.999 -16.937  0.00  0.00    -0.204 F 
ATOM     11  C   UNL     1      28.757 -23.587 -15.874  0.00  0.00    -0.020 C 
ATOM     12  C   UNL     1      28.041 -22.909 -14.887  0.00  0.00    -0.002 C 
ATOM     13  C   UNL     1      28.447 -23.391 -17.219  0.00  0.00    -0.002 C 
ATOM     14  C   UNL     1      27.016 -22.034 -15.246  0.00  0.00    +0.029 C 
ATOM     15  C   UNL     1      27.422 -22.516 -17.579  0.00  0.00    +0.029 C 
ATOM     16  C   UNL     1      26.707 -21.838 -16.592  0.00  0.00    +0.140 C 
ENDBRANCH   9  11
ENDBRANCH   6   9
ENDBRANCH   3   6
ENDBRANCH   1   4
BRANCH   1  18
ATOM     17  O   UNL     1      33.487 -23.921 -18.291  0.00  0.00    -0.270 OA
ATOM     18  N   UNL     1      34.731 -22.752 -16.720  0.00  0.00    -0.295 N 
ATOM     19  C   UNL     1      34.141 -22.934 -17.963  0.00  0.00    +0.246 C 
ATOM     20  H   UNL     1      35.237 -21.925 -16.554  0.00  0.00    +0.150 HD
BRANCH  19  21
ATOM     21  C   UNL     1      34.361 -21.848 -18.952  0.00  0.00    +0.053 C 
ATOM     22  C   UNL     1      33.270 -21.202 -19.532  0.00  0.00    +0.005 C 
ATOM     23  C   UNL     1      35.659 -21.474 -19.299  0.00  0.00    +0.005 C 
ATOM     24  C   UNL     1      34.774 -19.808 -20.809  0.00  0.00    +0.000 C 
ATOM     25  C   UNL     1      33.476 -20.182 -20.462  0.00  0.00    +0.000 C 
ATOM     26  C   UNL     1      35.866 -20.453 -20.228  0.00  0.00    +0.000 C 
BRANCH  24  27
ATOM     27  C   UNL     1      34.989 -18.750 -21.772  0.00  0.00    +0.000 C 
ATOM     28  C   UNL     1      34.672 -18.955 -23.116  0.00  0.00    +0.000 C 
ATOM     29  C   UNL     1      35.510 -17.524 -21.358  0.00  0.00    +0.000 C 
ATOM     30  C   UNL     1      34.878 -17.934 -24.044  0.00  0.00    +0.000 C 
ATOM     31  C   UNL     1      35.717 -16.504 -22.287  0.00  0.00    +0.000 C 
ATOM     32  C   UNL     1      35.401 -16.709 -23.630  0.00  0.00    +0.000 C 
ENDBRANCH  24  27
ENDBRANCH  19  21
ENDBRANCH   1  18
BRANCH   1  33
ATOM     33  C   UNL     1      35.893 -23.719 -14.794  0.00  0.00    +0.041 C 
BRANCH  33  34
ATOM     34  C   UNL     1      36.023 -24.922 -13.858  0.00  0.00    +0.112 C 
BRANCH  34  36
ATOM     35  O   UNL     1      36.418 -25.275 -11.480  0.00  0.00    -0.250 OA
ATOM     36  C   UNL     1      36.073 -24.540 -12.395  0.00  0.00    +0.314 C 
BRANCH  36  37
ATOM     37  O   UNL     1      35.712 -23.244 -12.207  0.00  0.00    -0.480 OA
ATOM     38  H   UNL     1      34.836 -22.969 -12.397  0.00  0.00    +0.295 HD
ENDBRANCH  36  37
ENDBRANCH  34  36
ENDBRANCH  33  34
ENDBRANCH   1  33
TORSDOF 11
ENDMDL
MODEL 4
REMARK VINA RESULT:     -11.2      3.314      6.741
REMARK  Name = 16048422
REMARK  11 active torsions:
REMARK  status: ('A' for Active; 'I' for Inactive)
REMARK    1  A    between atoms: C_1  and  C_4
REMARK    2  A    between atoms: C_1  and  N_18
REMARK    3  A    between atoms: C_1  and  C_33
REMARK    4  A    between atoms: N_3  and  C_6
REMARK    5  A    between atoms: C_6  and  C_9
REMARK    6  A    between atoms: C_9  and  C_11
REMARK    7  A    between atoms: C_19  and  C_21
REMARK    8  A    between atoms: C_24  and  C_27
REMARK    9  A    between atoms: C_33  and  C_34
REMARK   10  A    between atoms: C_34  and  C_36
REMARK   11  A    between atoms: C_36  and  O_37
REMARK                            x       y       z     vdW  Elec       q    Type
REMARK                         _______ _______ _______ _____ _____    ______ ____
ROOT
ATOM      1  C   UNL     1      33.429 -23.073 -15.435  0.00  0.00    +0.149 C 
ENDROOT
BRANCH   1   4
ATOM      2  O   UNL     1      35.092 -24.818 -15.646  0.00  0.00    -0.273 OA
ATOM      3  N   UNL     1      35.517 -23.042 -14.212  0.00  0.00    -0.306 N 
ATOM      4  C   UNL     1      34.761 -23.749 -15.135  0.00  0.00    +0.240 C 
ATOM      5  H   UNL     1      35.157 -22.194 -13.864  0.00  0.00    +0.149 HD
BRANCH   3   6
ATOM      6  C   UNL     1      36.805 -23.489 -13.735  0.00  0.00    +0.061 C 
ATOM      7  C   UNL     1      37.896 -23.016 -14.707  0.00  0.00    +0.020 C 
ATOM      8  C   UNL     1      37.057 -22.841 -12.363  0.00  0.00    +0.020 C 
BRANCH   6   9
ATOM      9  C   UNL     1      36.819 -25.030 -13.560  0.00  0.00    +0.044 C 
BRANCH   9  11
ATOM     10  F   UNL     1      41.406 -27.693 -15.479  0.00  0.00    -0.204 F 
ATOM     11  C   UNL     1      38.048 -25.744 -14.075  0.00  0.00    -0.020 C 
ATOM     12  C   UNL     1      37.948 -26.606 -15.167  0.00  0.00    -0.002 C 
ATOM     13  C   UNL     1      39.282 -25.541 -13.457  0.00  0.00    -0.002 C 
ATOM     14  C   UNL     1      39.083 -27.263 -15.642  0.00  0.00    +0.029 C 
ATOM     15  C   UNL     1      40.416 -26.199 -13.932  0.00  0.00    +0.029 C 
ATOM     16  C   UNL     1      40.316 -27.060 -15.024  0.00  0.00    +0.140 C 
ENDBRANCH   9  11
ENDBRANCH   6   9
ENDBRANCH   3   6
ENDBRANCH   1   4
BRANCH   1  18
ATOM     17  O   UNL     1      33.662 -23.880 -18.181  0.00  0.00    -0.270 OA
ATOM     18  N   UNL     1      33.677 -22.214 -16.567  0.00  0.00    -0.295 N 
ATOM     19  C   UNL     1      33.773 -22.698 -17.864  0.00  0.00    +0.246 C 
ATOM     20  H   UNL     1      33.781 -21.248 -16.414  0.00  0.00    +0.150 HD
BRANCH  19  21
ATOM     21  C   UNL     1      34.058 -21.688 -18.915  0.00  0.00    +0.053 C 
ATOM     22  C   UNL     1      33.009 -21.004 -19.528  0.00  0.00    +0.005 C 
ATOM     23  C   UNL     1      35.376 -21.425 -19.288  0.00  0.00    +0.005 C 
ATOM     24  C   UNL     1      34.594 -19.792 -20.889  0.00  0.00    +0.000 C 
ATOM     25  C   UNL     1      33.277 -20.056 -20.516  0.00  0.00    +0.000 C 
ATOM     26  C   UNL     1      35.644 -20.476 -20.276  0.00  0.00    +0.000 C 
BRANCH  24  27
ATOM     27  C   UNL     1      34.873 -18.808 -21.913  0.00  0.00    +0.000 C 
ATOM     28  C   UNL     1      34.578 -19.087 -23.247  0.00  0.00    +0.000 C 
ATOM     29  C   UNL     1      35.436 -17.580 -21.566  0.00  0.00    +0.000 C 
ATOM     30  C   UNL     1      34.845 -18.139 -24.234  0.00  0.00    +0.000 C 
ATOM     31  C   UNL     1      35.704 -16.632 -22.554  0.00  0.00    +0.000 C 
ATOM     32  C   UNL     1      35.409 -16.911 -23.887  0.00  0.00    +0.000 C 
ENDBRANCH  24  27
ENDBRANCH  19  21
ENDBRANCH   1  18
BRANCH   1  33
ATOM     33  C   UNL     1      32.333 -24.095 -15.760  0.00  0.00    +0.041 C 
BRANCH  33  34
ATOM     34  C   UNL     1      30.965 -23.764 -15.159  0.00  0.00    +0.112 C 
BRANCH  34  36
ATOM     35  O   UNL     1      30.484 -22.273 -17.025  0.00  0.00    -0.250 OA
ATOM     36  C   UNL     1      30.248 -22.647 -15.884  0.00  0.00    +0.314 C 
BRANCH  36  37
ATOM     37  O   UNL     1      29.265 -22.108 -15.118  0.00  0.00    -0.480 OA
ATOM     38  H   UNL     1      28.588 -22.654 -14.770  0.00  0.00    +0.295 HD
ENDBRANCH  36  37
ENDBRANCH  34  36
ENDBRANCH  33  34
ENDBRANCH   1  33
TORSDOF 11
ENDMDL
MODEL 5
REMARK VINA RESULT:     -11.2      5.590     11.032
REMARK  Name = 16048422
REMARK  11 active torsions:
REMARK  status: ('A' for Active; 'I' for Inactive)
REMARK    1  A    between atoms: C_1  and  C_4
REMARK    2  A    between atoms: C_1  and  N_18
REMARK    3  A    between atoms: C_1  and  C_33
REMARK    4  A    between atoms: N_3  and  C_6
REMARK    5  A    between atoms: C_6  and  C_9
REMARK    6  A    between atoms: C_9  and  C_11
REMARK    7  A    between atoms: C_19  and  C_21
REMARK    8  A    between atoms: C_24  and  C_27
REMARK    9  A    between atoms: C_33  and  C_34
REMARK   10  A    between atoms: C_34  and  C_36
REMARK   11  A    between atoms: C_36  and  O_37
REMARK                            x       y       z     vdW  Elec       q    Type
REMARK                         _______ _______ _______ _____ _____    ______ ____
ROOT
ATOM      1  C   UNL     1      35.696 -16.477 -23.496  0.00  0.00    +0.149 C 
ENDROOT
BRANCH   1   4
ATOM      2  O   UNL     1      34.908 -14.901 -21.838  0.00  0.00    -0.273 OA
ATOM      3  N   UNL     1      34.617 -14.393 -24.085  0.00  0.00    -0.306 N 
ATOM      4  C   UNL     1      35.048 -15.180 -23.028  0.00  0.00    +0.240 C 
ATOM      5  H   UNL     1      34.780 -14.711 -25.003  0.00  0.00    +0.149 HD
BRANCH   3   6
ATOM      6  C   UNL     1      33.941 -13.128 -23.906  0.00  0.00    +0.061 C 
ATOM      7  C   UNL     1      34.874 -12.157 -23.166  0.00  0.00    +0.020 C 
ATOM      8  C   UNL     1      33.636 -12.550 -25.298  0.00  0.00    +0.020 C 
BRANCH   6   9
ATOM      9  C   UNL     1      32.601 -13.327 -23.151  0.00  0.00    +0.044 C 
BRANCH   9  11
ATOM     10  F   UNL     1      31.642  -9.804 -18.852  0.00  0.00    -0.204 F 
ATOM     11  C   UNL     1      32.344 -12.383 -21.999  0.00  0.00    -0.020 C 
ATOM     12  C   UNL     1      32.480 -12.832 -20.685  0.00  0.00    -0.002 C 
ATOM     13  C   UNL     1      31.970 -11.063 -22.249  0.00  0.00    -0.002 C 
ATOM     14  C   UNL     1      32.244 -11.960 -19.622  0.00  0.00    +0.029 C 
ATOM     15  C   UNL     1      31.733 -10.191 -21.187  0.00  0.00    +0.029 C 
ATOM     16  C   UNL     1      31.870 -10.640 -19.873  0.00  0.00    +0.140 C 
ENDBRANCH   9  11
ENDBRANCH   6   9
ENDBRANCH   3   6
ENDBRANCH   1   4
BRANCH   1  18
ATOM     17  O   UNL     1      37.408 -18.629 -22.672  0.00  0.00    -0.270 OA
ATOM     18  N   UNL     1      35.428 -17.442 -22.457  0.00  0.00    -0.295 N 
ATOM     19  C   UNL     1      36.321 -18.451 -22.129  0.00  0.00    +0.246 C 
ATOM     20  H   UNL     1      34.579 -17.382 -21.963  0.00  0.00    +0.150 HD
BRANCH  19  21
ATOM     21  C   UNL     1      35.886 -19.380 -21.055  0.00  0.00    +0.053 C 
ATOM     22  C   UNL     1      36.832 -19.976 -20.222  0.00  0.00    +0.005 C 
ATOM     23  C   UNL     1      34.530 -19.656 -20.879  0.00  0.00    +0.005 C 
ATOM     24  C   UNL     1      35.067 -21.125 -19.038  0.00  0.00    +0.000 C 
ATOM     25  C   UNL     1      36.423 -20.850 -19.214  0.00  0.00    +0.000 C 
ATOM     26  C   UNL     1      34.120 -20.528 -19.871  0.00  0.00    +0.000 C 
BRANCH  24  27
ATOM     27  C   UNL     1      34.642 -22.030 -17.993  0.00  0.00    +0.000 C 
ATOM     28  C   UNL     1      33.342 -22.536 -17.994  0.00  0.00    +0.000 C 
ATOM     29  C   UNL     1      35.532 -22.399 -16.984  0.00  0.00    +0.000 C 
ATOM     30  C   UNL     1      32.932 -23.410 -16.987  0.00  0.00    +0.000 C 
ATOM     31  C   UNL     1      35.122 -23.272 -15.976  0.00  0.00    +0.000 C 
ATOM     32  C   UNL     1      33.822 -23.777 -15.978  0.00  0.00    +0.000 C 
ENDBRANCH  24  27
ENDBRANCH  19  21
ENDBRANCH   1  18
BRANCH   1  33
ATOM     33  C   UNL     1      35.119 -16.950 -24.836  0.00  0.00    +0.041 C 
BRANCH  33  34
ATOM     34  C   UNL     1      33.833 -17.769 -24.715  0.00  0.00    +0.112 C 
BRANCH  34  36
ATOM     35  O   UNL     1      31.724 -17.895 -25.928  0.00  0.00    -0.250 OA
ATOM     36  C   UNL     1      32.713 -17.258 -25.594  0.00  0.00    +0.314 C 
BRANCH  36  37
ATOM     37  O   UNL     1      32.917 -15.964 -25.957  0.00  0.00    -0.480 OA
ATOM     38  H   UNL     1      32.186 -15.398 -26.107  0.00  0.00    +0.295 HD
ENDBRANCH  36  37
ENDBRANCH  34  36
ENDBRANCH  33  34
ENDBRANCH   1  33
TORSDOF 11
ENDMDL
MODEL 6
REMARK VINA RESULT:     -10.8      6.301     12.199
REMARK  Name = 16048422
REMARK  11 active torsions:
REMARK  status: ('A' for Active; 'I' for Inactive)
REMARK    1  A    between atoms: C_1  and  C_4
REMARK    2  A    between atoms: C_1  and  N_18
REMARK    3  A    between atoms: C_1  and  C_33
REMARK    4  A    between atoms: N_3  and  C_6
REMARK    5  A    between atoms: C_6  and  C_9
REMARK    6  A    between atoms: C_9  and  C_11
REMARK    7  A    between atoms: C_19  and  C_21
REMARK    8  A    between atoms: C_24  and  C_27
REMARK    9  A    between atoms: C_33  and  C_34
REMARK   10  A    between atoms: C_34  and  C_36
REMARK   11  A    between atoms: C_36  and  O_37
REMARK                            x       y       z     vdW  Elec       q    Type
REMARK                         _______ _______ _______ _____ _____    ______ ____
ROOT
ATOM      1  C   UNL     1      35.749 -16.213 -23.264  0.00  0.00    +0.149 C 
ENDROOT
BRANCH   1   4
ATOM      2  O   UNL     1      34.676 -14.820 -21.604  0.00  0.00    -0.273 OA
ATOM      3  N   UNL     1      34.748 -14.077 -23.803  0.00  0.00    -0.306 N 
ATOM      4  C   UNL     1      35.012 -14.972 -22.777  0.00  0.00    +0.240 C 
ATOM      5  H   UNL     1      35.063 -14.297 -24.709  0.00  0.00    +0.149 HD
BRANCH   3   6
ATOM      6  C   UNL     1      34.031 -12.838 -23.606  0.00  0.00    +0.061 C 
ATOM      7  C   UNL     1      32.533 -13.140 -23.447  0.00  0.00    +0.020 C 
ATOM      8  C   UNL     1      34.542 -12.193 -22.307  0.00  0.00    +0.020 C 
BRANCH   6   9
ATOM      9  C   UNL     1      34.299 -11.860 -24.780  0.00  0.00    +0.044 C 
BRANCH   9  11
ATOM     10  F   UNL     1      34.734  -6.408 -23.398  0.00  0.00    -0.204 F 
ATOM     11  C   UNL     1      34.415 -10.398 -24.409  0.00  0.00    -0.020 C 
ATOM     12  C   UNL     1      33.341  -9.744 -23.806  0.00  0.00    -0.002 C 
ATOM     13  C   UNL     1      35.597  -9.705 -24.672  0.00  0.00    -0.002 C 
ATOM     14  C   UNL     1      33.449  -8.396 -23.463  0.00  0.00    +0.029 C 
ATOM     15  C   UNL     1      35.705  -8.357 -24.330  0.00  0.00    +0.029 C 
ATOM     16  C   UNL     1      34.631  -7.703 -23.726  0.00  0.00    +0.140 C 
ENDBRANCH   9  11
ENDBRANCH   6   9
ENDBRANCH   3   6
ENDBRANCH   1   4
BRANCH   1  18
ATOM     17  O   UNL     1      37.275 -18.611 -22.858  0.00  0.00    -0.270 OA
ATOM     18  N   UNL     1      35.516 -17.222 -22.261  0.00  0.00    -0.295 N 
ATOM     19  C   UNL     1      36.311 -18.353 -22.141  0.00  0.00    +0.246 C 
ATOM     20  H   UNL     1      34.764 -17.105 -21.637  0.00  0.00    +0.150 HD
BRANCH  19  21
ATOM     21  C   UNL     1      35.923 -19.311 -21.074  0.00  0.00    +0.053 C 
ATOM     22  C   UNL     1      34.583 -19.655 -20.900  0.00  0.00    +0.005 C 
ATOM     23  C   UNL     1      36.899 -19.866 -20.248  0.00  0.00    +0.005 C 
ATOM     24  C   UNL     1      35.195 -21.110 -19.071  0.00  0.00    +0.000 C 
ATOM     25  C   UNL     1      34.218 -20.554 -19.897  0.00  0.00    +0.000 C 
ATOM     26  C   UNL     1      36.536 -20.766 -19.246  0.00  0.00    +0.000 C 
BRANCH  24  27
ATOM     27  C   UNL     1      34.818 -22.043 -18.032  0.00  0.00    +0.000 C 
ATOM     28  C   UNL     1      35.703 -22.324 -16.991  0.00  0.00    +0.000 C 
ATOM     29  C   UNL     1      33.567 -22.661 -18.068  0.00  0.00    +0.000 C 
ATOM     30  C   UNL     1      35.339 -23.223 -15.989  0.00  0.00    +0.000 C 
ATOM     31  C   UNL     1      33.204 -23.560 -17.065  0.00  0.00    +0.000 C 
ATOM     32  C   UNL     1      34.090 -23.841 -16.026  0.00  0.00    +0.000 C 
ENDBRANCH  24  27
ENDBRANCH  19  21
ENDBRANCH   1  18
BRANCH   1  33
ATOM     33  C   UNL     1      35.236 -16.679 -24.632  0.00  0.00    +0.041 C 
BRANCH  33  34
ATOM     34  C   UNL     1      33.965 -17.530 -24.571  0.00  0.00    +0.112 C 
BRANCH  34  36
ATOM     35  O   UNL     1      31.922 -17.712 -25.884  0.00  0.00    -0.250 OA
ATOM     36  C   UNL     1      32.878 -17.049 -25.505  0.00  0.00    +0.314 C 
BRANCH  36  37
ATOM     37  O   UNL     1      33.069 -15.753 -25.865  0.00  0.00    -0.480 OA
ATOM     38  H   UNL     1      33.923 -15.372 -25.810  0.00  0.00    +0.295 HD
ENDBRANCH  36  37
ENDBRANCH  34  36
ENDBRANCH  33  34
ENDBRANCH   1  33
TORSDOF 11
ENDMDL
MODEL 7
REMARK VINA RESULT:     -10.2      4.020      7.224
REMARK  Name = 16048422
REMARK  11 active torsions:
REMARK  status: ('A' for Active; 'I' for Inactive)
REMARK    1  A    between atoms: C_1  and  C_4
REMARK    2  A    between atoms: C_1  and  N_18
REMARK    3  A    between atoms: C_1  and  C_33
REMARK    4  A    between atoms: N_3  and  C_6
REMARK    5  A    between atoms: C_6  and  C_9
REMARK    6  A    between atoms: C_9  and  C_11
REMARK    7  A    between atoms: C_19  and  C_21
REMARK    8  A    between atoms: C_24  and  C_27
REMARK    9  A    between atoms: C_33  and  C_34
REMARK   10  A    between atoms: C_34  and  C_36
REMARK   11  A    between atoms: C_36  and  O_37
REMARK                            x       y       z     vdW  Elec       q    Type
REMARK                         _______ _______ _______ _____ _____    ______ ____
ROOT
ATOM      1  C   UNL     1      35.087 -22.914 -15.223  0.00  0.00    +0.149 C 
ENDROOT
BRANCH   1   4
ATOM      2  O   UNL     1      37.469 -22.903 -15.641  0.00  0.00    -0.273 OA
ATOM      3  N   UNL     1      36.616 -24.416 -14.100  0.00  0.00    -0.306 N 
ATOM      4  C   UNL     1      36.522 -23.383 -15.021  0.00  0.00    +0.240 C 
ATOM      5  H   UNL     1      35.792 -24.726 -13.659  0.00  0.00    +0.149 HD
BRANCH   3   6
ATOM      6  C   UNL     1      37.864 -25.059 -13.756  0.00  0.00    +0.061 C 
ATOM      7  C   UNL     1      38.499 -24.326 -12.565  0.00  0.00    +0.020 C 
ATOM      8  C   UNL     1      37.554 -26.505 -13.334  0.00  0.00    +0.020 C 
BRANCH   6   9
ATOM      9  C   UNL     1      38.814 -25.097 -14.982  0.00  0.00    +0.044 C 
BRANCH   9  11
ATOM     10  F   UNL     1      42.225 -29.576 -15.321  0.00  0.00    -0.204 F 
ATOM     11  C   UNL     1      39.729 -26.298 -15.073  0.00  0.00    -0.020 C 
ATOM     12  C   UNL     1      39.500 -27.277 -16.040  0.00  0.00    -0.002 C 
ATOM     13  C   UNL     1      40.800 -26.427 -14.189  0.00  0.00    -0.002 C 
ATOM     14  C   UNL     1      40.344 -28.384 -16.124  0.00  0.00    +0.029 C 
ATOM     15  C   UNL     1      41.644 -27.534 -14.274  0.00  0.00    +0.029 C 
ATOM     16  C   UNL     1      41.416 -28.513 -15.241  0.00  0.00    +0.140 C 
ENDBRANCH   9  11
ENDBRANCH   6   9
ENDBRANCH   3   6
ENDBRANCH   1   4
BRANCH   1  18
ATOM     17  O   UNL     1      34.021 -23.616 -17.794  0.00  0.00    -0.270 OA
ATOM     18  N   UNL     1      35.108 -22.102 -16.415  0.00  0.00    -0.295 N 
ATOM     19  C   UNL     1      34.565 -22.529 -17.617  0.00  0.00    +0.246 C 
ATOM     20  H   UNL     1      35.524 -21.211 -16.374  0.00  0.00    +0.150 HD
BRANCH  19  21
ATOM     21  C   UNL     1      34.692 -21.587 -18.759  0.00  0.00    +0.053 C 
ATOM     22  C   UNL     1      35.954 -21.191 -19.199  0.00  0.00    +0.005 C 
ATOM     23  C   UNL     1      33.548 -21.100 -19.391  0.00  0.00    +0.005 C 
ATOM     24  C   UNL     1      34.929 -19.819 -20.903  0.00  0.00    +0.000 C 
ATOM     25  C   UNL     1      36.073 -20.306 -20.271  0.00  0.00    +0.000 C 
ATOM     26  C   UNL     1      33.666 -20.215 -20.464  0.00  0.00    +0.000 C 
BRANCH  24  27
ATOM     27  C   UNL     1      35.052 -18.901 -22.015  0.00  0.00    +0.000 C 
ATOM     28  C   UNL     1      35.537 -17.610 -21.804  0.00  0.00    +0.000 C 
ATOM     29  C   UNL     1      34.687 -19.307 -23.299  0.00  0.00    +0.000 C 
ATOM     30  C   UNL     1      35.657 -16.726 -22.877  0.00  0.00    +0.000 C 
ATOM     31  C   UNL     1      34.806 -18.423 -24.371  0.00  0.00    +0.000 C 
ATOM     32  C   UNL     1      35.291 -17.132 -24.159  0.00  0.00    +0.000 C 
ENDBRANCH  24  27
ENDBRANCH  19  21
ENDBRANCH   1  18
BRANCH   1  33
ATOM     33  C   UNL     1      34.120 -24.093 -15.387  0.00  0.00    +0.041 C 
BRANCH  33  34
ATOM     34  C   UNL     1      32.763 -23.894 -14.709  0.00  0.00    +0.112 C 
BRANCH  34  36
ATOM     35  O   UNL     1      31.950 -25.121 -12.768  0.00  0.00    -0.250 OA
ATOM     36  C   UNL     1      32.747 -24.336 -13.262  0.00  0.00    +0.314 C 
BRANCH  36  37
ATOM     37  O   UNL     1      33.763 -23.771 -12.559  0.00  0.00    -0.480 OA
ATOM     38  H   UNL     1      33.712 -23.714 -11.625  0.00  0.00    +0.295 HD
ENDBRANCH  36  37
ENDBRANCH  34  36
ENDBRANCH  33  34
ENDBRANCH   1  33
TORSDOF 11
ENDMDL
MODEL 8
REMARK VINA RESULT:      -9.8      2.935      5.889
REMARK  Name = 16048422
REMARK  11 active torsions:
REMARK  status: ('A' for Active; 'I' for Inactive)
REMARK    1  A    between atoms: C_1  and  C_4
REMARK    2  A    between atoms: C_1  and  N_18
REMARK    3  A    between atoms: C_1  and  C_33
REMARK    4  A    between atoms: N_3  and  C_6
REMARK    5  A    between atoms: C_6  and  C_9
REMARK    6  A    between atoms: C_9  and  C_11
REMARK    7  A    between atoms: C_19  and  C_21
REMARK    8  A    between atoms: C_24  and  C_27
REMARK    9  A    between atoms: C_33  and  C_34
REMARK   10  A    between atoms: C_34  and  C_36
REMARK   11  A    between atoms: C_36  and  O_37
REMARK                            x       y       z     vdW  Elec       q    Type
REMARK                         _______ _______ _______ _____ _____    ______ ____
ROOT
ATOM      1  C   UNL     1      33.197 -23.026 -15.759  0.00  0.00    +0.149 C 
ENDROOT
BRANCH   1   4
ATOM      2  O   UNL     1      34.657 -24.800 -15.005  0.00  0.00    -0.273 OA
ATOM      3  N   UNL     1      35.581 -22.724 -15.481  0.00  0.00    -0.306 N 
ATOM      4  C   UNL     1      34.541 -23.636 -15.382  0.00  0.00    +0.240 C 
ATOM      5  H   UNL     1      35.378 -21.813 -15.795  0.00  0.00    +0.149 HD
BRANCH   3   6
ATOM      6  C   UNL     1      36.950 -23.046 -15.147  0.00  0.00    +0.061 C 
ATOM      7  C   UNL     1      37.122 -24.573 -15.139  0.00  0.00    +0.020 C 
ATOM      8  C   UNL     1      37.858 -22.456 -16.239  0.00  0.00    +0.020 C 
BRANCH   6   9
ATOM      9  C   UNL     1      37.343 -22.415 -13.786  0.00  0.00    +0.044 C 
BRANCH   9  11
ATOM     10  F   UNL     1      35.480 -25.099  -9.188  0.00  0.00    -0.204 F 
ATOM     11  C   UNL     1      36.844 -23.135 -12.553  0.00  0.00    -0.020 C 
ATOM     12  C   UNL     1      37.752 -23.611 -11.608  0.00  0.00    -0.002 C 
ATOM     13  C   UNL     1      35.475 -23.322 -12.363  0.00  0.00    -0.002 C 
ATOM     14  C   UNL     1      37.291 -24.273 -10.470  0.00  0.00    +0.029 C 
ATOM     15  C   UNL     1      35.014 -23.985 -11.225  0.00  0.00    +0.029 C 
ATOM     16  C   UNL     1      35.922 -24.461 -10.280  0.00  0.00    +0.140 C 
ENDBRANCH   9  11
ENDBRANCH   6   9
ENDBRANCH   3   6
ENDBRANCH   1   4
BRANCH   1  18
ATOM     17  O   UNL     1      33.772 -23.808 -18.461  0.00  0.00    -0.270 OA
ATOM     18  N   UNL     1      33.468 -22.148 -16.871  0.00  0.00    -0.295 N 
ATOM     19  C   UNL     1      33.736 -22.622 -18.147  0.00  0.00    +0.246 C 
ATOM     20  H   UNL     1      33.462 -21.176 -16.719  0.00  0.00    +0.150 HD
BRANCH  19  21
ATOM     21  C   UNL     1      34.023 -21.589 -19.176  0.00  0.00    +0.053 C 
ATOM     22  C   UNL     1      35.342 -21.282 -19.508  0.00  0.00    +0.005 C 
ATOM     23  C   UNL     1      32.972 -20.929 -19.812  0.00  0.00    +0.005 C 
ATOM     24  C   UNL     1      34.560 -19.652 -21.110  0.00  0.00    +0.000 C 
ATOM     25  C   UNL     1      35.611 -20.313 -20.475  0.00  0.00    +0.000 C 
ATOM     26  C   UNL     1      33.240 -19.959 -20.779  0.00  0.00    +0.000 C 
BRANCH  24  27
ATOM     27  C   UNL     1      34.837 -18.647 -22.113  0.00  0.00    +0.000 C 
ATOM     28  C   UNL     1      35.390 -17.422 -21.738  0.00  0.00    +0.000 C 
ATOM     29  C   UNL     1      34.555 -18.903 -23.455  0.00  0.00    +0.000 C 
ATOM     30  C   UNL     1      35.659 -16.453 -22.705  0.00  0.00    +0.000 C 
ATOM     31  C   UNL     1      34.823 -17.933 -24.421  0.00  0.00    +0.000 C 
ATOM     32  C   UNL     1      35.375 -16.709 -24.046  0.00  0.00    +0.000 C 
ENDBRANCH  24  27
ENDBRANCH  19  21
ENDBRANCH   1  18
BRANCH   1  33
ATOM     33  C   UNL     1      32.175 -24.100 -16.153  0.00  0.00    +0.041 C 
BRANCH  33  34
ATOM     34  C   UNL     1      30.819 -23.964 -15.458  0.00  0.00    +0.112 C 
BRANCH  34  36
ATOM     35  O   UNL     1      30.052 -22.200 -16.953  0.00  0.00    -0.250 OA
ATOM     36  C   UNL     1      30.075 -22.703 -15.839  0.00  0.00    +0.314 C 
BRANCH  36  37
ATOM     37  O   UNL     1      29.390 -22.192 -14.782  0.00  0.00    -0.480 OA
ATOM     38  H   UNL     1      29.377 -22.650 -13.966  0.00  0.00    +0.295 HD
ENDBRANCH  36  37
ENDBRANCH  34  36
ENDBRANCH  33  34
ENDBRANCH   1  33
TORSDOF 11
ENDMDL
MODEL 9
REMARK VINA RESULT:      -9.5      9.106     14.680
REMARK  Name = 16048422
REMARK  11 active torsions:
REMARK  status: ('A' for Active; 'I' for Inactive)
REMARK    1  A    between atoms: C_1  and  C_4
REMARK    2  A    between atoms: C_1  and  N_18
REMARK    3  A    between atoms: C_1  and  C_33
REMARK    4  A    between atoms: N_3  and  C_6
REMARK    5  A    between atoms: C_6  and  C_9
REMARK    6  A    between atoms: C_9  and  C_11
REMARK    7  A    between atoms: C_19  and  C_21
REMARK    8  A    between atoms: C_24  and  C_27
REMARK    9  A    between atoms: C_33  and  C_34
REMARK   10  A    between atoms: C_34  and  C_36
REMARK   11  A    between atoms: C_36  and  O_37
REMARK                            x       y       z     vdW  Elec       q    Type
REMARK                         _______ _______ _______ _____ _____    ______ ____
ROOT
ATOM      1  C   UNL     1      34.565 -11.170 -25.142  0.00  0.00    +0.149 C 
ENDROOT
BRANCH   1   4
ATOM      2  O   UNL     1      35.326  -9.867 -23.252  0.00  0.00    -0.273 OA
ATOM      3  N   UNL     1      33.117  -9.653 -23.935  0.00  0.00    -0.306 N 
ATOM      4  C   UNL     1      34.406 -10.160 -24.013  0.00  0.00    +0.240 C 
ATOM      5  H   UNL     1      32.454  -9.956 -24.597  0.00  0.00    +0.149 HD
BRANCH   3   6
ATOM      6  C   UNL     1      32.700  -8.704 -22.928  0.00  0.00    +0.061 C 
ATOM      7  C   UNL     1      31.455  -7.955 -23.425  0.00  0.00    +0.020 C 
ATOM      8  C   UNL     1      32.327  -9.488 -21.659  0.00  0.00    +0.020 C 
BRANCH   6   9
ATOM      9  C   UNL     1      33.858  -7.731 -22.582  0.00  0.00    +0.044 C 
BRANCH   9  11
ATOM     10  F   UNL     1      34.512  -3.338 -26.059  0.00  0.00    -0.204 F 
ATOM     11  C   UNL     1      34.033  -6.553 -23.514  0.00  0.00    -0.020 C 
ATOM     12  C   UNL     1      35.061  -6.557 -24.457  0.00  0.00    -0.002 C 
ATOM     13  C   UNL     1      33.167  -5.463 -23.431  0.00  0.00    -0.002 C 
ATOM     14  C   UNL     1      35.222  -5.471 -25.318  0.00  0.00    +0.029 C 
ATOM     15  C   UNL     1      33.328  -4.377 -24.291  0.00  0.00    +0.029 C 
ATOM     16  C   UNL     1      34.356  -4.381 -25.234  0.00  0.00    +0.140 C 
ENDBRANCH   9  11
ENDBRANCH   6   9
ENDBRANCH   3   6
ENDBRANCH   1   4
BRANCH   1  18
ATOM     17  O   UNL     1      33.002 -12.435 -23.093  0.00  0.00    -0.270 OA
ATOM     18  N   UNL     1      34.847 -12.430 -24.499  0.00  0.00    -0.295 N 
ATOM     19  C   UNL     1      34.028 -12.963 -23.515  0.00  0.00    +0.246 C 
ATOM     20  H   UNL     1      35.650 -12.930 -24.769  0.00  0.00    +0.150 HD
BRANCH  19  21
ATOM     21  C   UNL     1      34.470 -14.256 -22.931  0.00  0.00    +0.053 C 
ATOM     22  C   UNL     1      34.889 -15.291 -23.767  0.00  0.00    +0.005 C 
ATOM     23  C   UNL     1      34.468 -14.434 -21.548  0.00  0.00    +0.005 C 
ATOM     24  C   UNL     1      35.302 -16.683 -21.836  0.00  0.00    +0.000 C 
ATOM     25  C   UNL     1      35.304 -16.506 -23.219  0.00  0.00    +0.000 C 
ATOM     26  C   UNL     1      34.883 -15.648 -21.000  0.00  0.00    +0.000 C 
BRANCH  24  27
ATOM     27  C   UNL     1      35.732 -17.942 -21.267  0.00  0.00    +0.000 C 
ATOM     28  C   UNL     1      37.077 -18.141 -20.952  0.00  0.00    +0.000 C 
ATOM     29  C   UNL     1      34.804 -18.956 -21.032  0.00  0.00    +0.000 C 
ATOM     30  C   UNL     1      37.492 -19.354 -20.402  0.00  0.00    +0.000 C 
ATOM     31  C   UNL     1      35.220 -20.169 -20.483  0.00  0.00    +0.000 C 
ATOM     32  C   UNL     1      36.563 -20.368 -20.168  0.00  0.00    +0.000 C 
ENDBRANCH  24  27
ENDBRANCH  19  21
ENDBRANCH   1  18
BRANCH   1  33
ATOM     33  C   UNL     1      33.297 -11.270 -25.999  0.00  0.00    +0.041 C 
BRANCH  33  34
ATOM     34  C   UNL     1      33.398 -12.262 -27.160  0.00  0.00    +0.112 C 
BRANCH  34  36
ATOM     35  O   UNL     1      33.158 -14.552 -26.363  0.00  0.00    -0.250 OA
ATOM     36  C   UNL     1      32.674 -13.564 -26.898  0.00  0.00    +0.314 C 
BRANCH  36  37
ATOM     37  O   UNL     1      31.380 -13.505 -27.309  0.00  0.00    -0.480 OA
ATOM     38  H   UNL     1      30.743 -14.083 -26.939  0.00  0.00    +0.295 HD
ENDBRANCH  36  37
ENDBRANCH  34  36
ENDBRANCH  33  34
ENDBRANCH   1  33
TORSDOF 11
ENDMDL
