MODEL 1
REMARK VINA RESULT:     -11.6      0.000      0.000
REMARK  Name = 24871491
REMARK  6 active torsions:
REMARK  status: ('A' for Active; 'I' for Inactive)
REMARK    1  A    between atoms: N_1  and  C_11
REMARK    2  A    between atoms: N_2  and  C_18
REMARK    3  A    between atoms: C_6  and  C_31
REMARK    4  A    between atoms: C_19  and  C_24
REMARK    5  A    between atoms: C_24  and  C_26
REMARK    6  A    between atoms: C_26  and  O_27
REMARK                            x       y       z     vdW  Elec       q    Type
REMARK                         _______ _______ _______ _____ _____    ______ ____
ROOT
ATOM      1  N   UNL     1      32.417 -22.902 -17.458  0.00  0.00    -0.287 N 
ATOM      2  N   UNL     1      34.475 -24.506 -13.532  0.00  0.00    -0.247 N 
ATOM      3  N   UNL     1      33.464 -23.709 -15.490  0.00  0.00    -0.322 NA
ATOM      4  N   UNL     1      32.148 -24.233 -13.541  0.00  0.00    -0.169 NA
ATOM      5  C   UNL     1      32.323 -23.357 -16.120  0.00  0.00    +0.202 C 
ATOM      6  C   UNL     1      31.075 -23.415 -15.534  0.00  0.00    +0.118 C 
ATOM      7  C   UNL     1      33.305 -24.131 -14.221  0.00  0.00    +0.150 C 
ATOM      8  C   UNL     1      31.047 -23.866 -14.230  0.00  0.00    +0.120 C 
ATOM      9  H   UNL     1      31.621 -23.100 -18.001  0.00  0.00    +0.155 HD
ATOM     10  H   UNL     1      34.311 -24.807 -12.609  0.00  0.00    +0.165 HD
ENDROOT
BRANCH   1  11
ATOM     11  C   UNL     1      33.427 -22.224 -18.160  0.00  0.00    +0.050 C 
ATOM     12  C   UNL     1      33.090 -21.338 -19.183  0.00  0.00    +0.010 C 
ATOM     13  C   UNL     1      34.093 -20.665 -19.880  0.00  0.00    -0.021 C 
ATOM     14  C   UNL     1      34.766 -22.436 -17.834  0.00  0.00    +0.015 C 
ATOM     15  C   UNL     1      35.433 -20.877 -19.554  0.00  0.00    -0.004 C 
ATOM     16  C   UNL     1      35.769 -21.764 -18.531  0.00  0.00    +0.001 C 
ATOM     17  C   UNL     1      33.734 -19.718 -20.975  0.00  0.00    +0.031 C 
ENDBRANCH   1  11
BRANCH   2  18
ATOM     18  C   UNL     1      35.835 -24.535 -13.904  0.00  0.00    +0.058 C 
ATOM     19  C   UNL     1      38.525 -24.591 -14.640  0.00  0.00    -0.011 C 
ATOM     20  C   UNL     1      36.602 -23.372 -13.833  0.00  0.00    +0.015 C 
ATOM     21  C   UNL     1      36.413 -25.726 -14.343  0.00  0.00    +0.015 C 
ATOM     22  C   UNL     1      37.947 -23.400 -14.201  0.00  0.00    -0.002 C 
ATOM     23  C   UNL     1      37.758 -25.754 -14.712  0.00  0.00    -0.002 C 
BRANCH  19  24
ATOM     24  C   UNL     1      39.963 -24.621 -15.033  0.00  0.00    +0.136 C 
BRANCH  24  26
ATOM     25  O   UNL     1      41.000 -26.548 -13.965  0.00  0.00    -0.250 OA
ATOM     26  C   UNL     1      40.577 -26.006 -14.977  0.00  0.00    +0.318 C 
BRANCH  26  27
ATOM     27  O   UNL     1      40.609 -26.596 -16.201  0.00  0.00    -0.480 OA
ATOM     28  H   UNL     1      40.777 -26.081 -16.965  0.00  0.00    +0.295 HD
ENDBRANCH  26  27
ENDBRANCH  24  26
ENDBRANCH  19  24
ENDBRANCH   2  18
BRANCH   6  31
ATOM     29  O   UNL     1      29.791 -22.039 -16.950  0.00  0.00    -0.270 OA
ATOM     30  N   UNL     1      28.727 -23.844 -16.020  0.00  0.00    -0.325 N 
ATOM     31  C   UNL     1      29.845 -23.038 -16.211  0.00  0.00    +0.248 C 
ATOM     32  H   UNL     1      27.877 -23.620 -16.462  0.00  0.00    +0.145 HD
ATOM     33  H   UNL     1      28.787 -24.639 -15.443  0.00  0.00    +0.145 HD
ENDBRANCH   6  31
TORSDOF 6
ENDMDL
MODEL 2
REMARK VINA RESULT:     -11.4      3.104      6.174
REMARK  Name = 24871491
REMARK  6 active torsions:
REMARK  status: ('A' for Active; 'I' for Inactive)
REMARK    1  A    between atoms: N_1  and  C_11
REMARK    2  A    between atoms: N_2  and  C_18
REMARK    3  A    between atoms: C_6  and  C_31
REMARK    4  A    between atoms: C_19  and  C_24
REMARK    5  A    between atoms: C_24  and  C_26
REMARK    6  A    between atoms: C_26  and  O_27
REMARK                            x       y       z     vdW  Elec       q    Type
REMARK                         _______ _______ _______ _____ _____    ______ ____
ROOT
ATOM      1  N   UNL     1      33.772 -23.179 -14.092  0.00  0.00    -0.287 N 
ATOM      2  N   UNL     1      32.173 -21.872 -18.330  0.00  0.00    -0.247 N 
ATOM      3  N   UNL     1      32.980 -22.518 -16.226  0.00  0.00    -0.322 NA
ATOM      4  N   UNL     1      30.638 -22.693 -16.761  0.00  0.00    -0.169 NA
ATOM      5  C   UNL     1      32.700 -23.013 -15.002  0.00  0.00    +0.202 C 
ATOM      6  C   UNL     1      31.431 -23.367 -14.591  0.00  0.00    +0.118 C 
ATOM      7  C   UNL     1      31.917 -22.386 -17.043  0.00  0.00    +0.150 C 
ATOM      8  C   UNL     1      30.428 -23.182 -15.521  0.00  0.00    +0.120 C 
ATOM      9  H   UNL     1      33.510 -23.084 -13.148  0.00  0.00    +0.155 HD
ATOM     10  H   UNL     1      31.369 -21.794 -18.891  0.00  0.00    +0.165 HD
ENDROOT
BRANCH   1  11
ATOM     11  C   UNL     1      35.137 -23.453 -14.275  0.00  0.00    +0.050 C 
ATOM     12  C   UNL     1      35.885 -22.698 -15.179  0.00  0.00    +0.010 C 
ATOM     13  C   UNL     1      37.241 -22.970 -15.360  0.00  0.00    -0.021 C 
ATOM     14  C   UNL     1      35.746 -24.478 -13.552  0.00  0.00    +0.015 C 
ATOM     15  C   UNL     1      37.850 -23.995 -14.637  0.00  0.00    -0.004 C 
ATOM     16  C   UNL     1      37.102 -24.750 -13.733  0.00  0.00    +0.001 C 
ATOM     17  C   UNL     1      38.040 -22.164 -16.327  0.00  0.00    +0.031 C 
ENDBRANCH   1  11
BRANCH   2  18
ATOM     18  C   UNL     1      33.355 -21.448 -18.971  0.00  0.00    +0.058 C 
ATOM     19  C   UNL     1      35.693 -20.609 -20.240  0.00  0.00    -0.011 C 
ATOM     20  C   UNL     1      34.576 -22.032 -18.639  0.00  0.00    +0.015 C 
ATOM     21  C   UNL     1      33.302 -20.444 -19.938  0.00  0.00    +0.015 C 
ATOM     22  C   UNL     1      35.746 -21.613 -19.274  0.00  0.00    -0.002 C 
ATOM     23  C   UNL     1      34.471 -20.024 -20.572  0.00  0.00    -0.002 C 
BRANCH  19  24
ATOM     24  C   UNL     1      36.943 -20.161 -20.919  0.00  0.00    +0.136 C 
BRANCH  24  26
ATOM     25  O   UNL     1      36.764 -17.835 -21.618  0.00  0.00    -0.250 OA
ATOM     26  C   UNL     1      37.181 -18.667 -20.823  0.00  0.00    +0.318 C 
BRANCH  26  27
ATOM     27  O   UNL     1      37.926 -18.341 -19.734  0.00  0.00    -0.480 OA
ATOM     28  H   UNL     1      37.545 -18.376 -18.879  0.00  0.00    +0.295 HD
ENDBRANCH  26  27
ENDBRANCH  24  26
ENDBRANCH  19  24
ENDBRANCH   2  18
BRANCH   6  31
ATOM     29  O   UNL     1      31.463 -23.298 -12.237  0.00  0.00    -0.270 OA
ATOM     30  N   UNL     1      30.426 -25.099 -13.205  0.00  0.00    -0.325 N 
ATOM     31  C   UNL     1      31.126 -23.899 -13.273  0.00  0.00    +0.248 C 
ATOM     32  H   UNL     1      30.203 -25.491 -12.330  0.00  0.00    +0.145 HD
ATOM     33  H   UNL     1      30.155 -25.558 -14.033  0.00  0.00    +0.145 HD
ENDBRANCH   6  31
TORSDOF 6
ENDMDL
MODEL 3
REMARK VINA RESULT:     -11.4      3.055      6.689
REMARK  Name = 24871491
REMARK  6 active torsions:
REMARK  status: ('A' for Active; 'I' for Inactive)
REMARK    1  A    between atoms: N_1  and  C_11
REMARK    2  A    between atoms: N_2  and  C_18
REMARK    3  A    between atoms: C_6  and  C_31
REMARK    4  A    between atoms: C_19  and  C_24
REMARK    5  A    between atoms: C_24  and  C_26
REMARK    6  A    between atoms: C_26  and  O_27
REMARK                            x       y       z     vdW  Elec       q    Type
REMARK                         _______ _______ _______ _____ _____    ______ ____
ROOT
ATOM      1  N   UNL     1      34.505 -23.356 -14.385  0.00  0.00    -0.287 N 
ATOM      2  N   UNL     1      32.377 -21.963 -18.355  0.00  0.00    -0.247 N 
ATOM      3  N   UNL     1      33.446 -22.650 -16.385  0.00  0.00    -0.322 NA
ATOM      4  N   UNL     1      31.097 -23.062 -16.728  0.00  0.00    -0.169 NA
ATOM      5  C   UNL     1      33.339 -23.256 -15.184  0.00  0.00    +0.202 C 
ATOM      6  C   UNL     1      32.162 -23.783 -14.694  0.00  0.00    +0.118 C 
ATOM      7  C   UNL     1      32.303 -22.589 -17.094  0.00  0.00    +0.150 C 
ATOM      8  C   UNL     1      31.062 -23.655 -15.516  0.00  0.00    +0.120 C 
ATOM      9  H   UNL     1      34.324 -23.356 -13.418  0.00  0.00    +0.155 HD
ATOM     10  H   UNL     1      31.519 -21.942 -18.836  0.00  0.00    +0.165 HD
ENDROOT
BRANCH   1  11
ATOM     11  C   UNL     1      35.868 -23.455 -14.706  0.00  0.00    +0.050 C 
ATOM     12  C   UNL     1      36.613 -24.547 -14.260  0.00  0.00    +0.010 C 
ATOM     13  C   UNL     1      37.967 -24.644 -14.579  0.00  0.00    -0.021 C 
ATOM     14  C   UNL     1      36.478 -22.462 -15.472  0.00  0.00    +0.015 C 
ATOM     15  C   UNL     1      38.577 -23.651 -15.345  0.00  0.00    -0.004 C 
ATOM     16  C   UNL     1      37.833 -22.559 -15.790  0.00  0.00    +0.001 C 
ATOM     17  C   UNL     1      38.764 -25.811 -14.101  0.00  0.00    +0.031 C 
ENDBRANCH   1  11
BRANCH   2  18
ATOM     18  C   UNL     1      33.438 -21.361 -19.061  0.00  0.00    +0.058 C 
ATOM     19  C   UNL     1      35.537 -20.171 -20.460  0.00  0.00    -0.011 C 
ATOM     20  C   UNL     1      33.170 -20.403 -20.038  0.00  0.00    +0.015 C 
ATOM     21  C   UNL     1      34.756 -21.725 -18.784  0.00  0.00    +0.015 C 
ATOM     22  C   UNL     1      34.220 -19.807 -20.738  0.00  0.00    -0.002 C 
ATOM     23  C   UNL     1      35.806 -21.130 -19.483  0.00  0.00    -0.002 C 
BRANCH  19  24
ATOM     24  C   UNL     1      36.660 -19.534 -21.208  0.00  0.00    +0.136 C 
BRANCH  24  26
ATOM     25  O   UNL     1      35.905 -17.235 -20.935  0.00  0.00    -0.250 OA
ATOM     26  C   UNL     1      36.363 -18.115 -21.651  0.00  0.00    +0.318 C 
BRANCH  26  27
ATOM     27  O   UNL     1      36.667 -17.920 -22.962  0.00  0.00    -0.480 OA
ATOM     28  H   UNL     1      36.282 -17.206 -23.430  0.00  0.00    +0.295 HD
ENDBRANCH  26  27
ENDBRANCH  24  26
ENDBRANCH  19  24
ENDBRANCH   2  18
BRANCH   6  31
ATOM     29  O   UNL     1      33.027 -24.568 -12.648  0.00  0.00    -0.270 OA
ATOM     30  N   UNL     1      30.788 -24.893 -13.017  0.00  0.00    -0.325 N 
ATOM     31  C   UNL     1      32.044 -24.435 -13.399  0.00  0.00    +0.248 C 
ATOM     32  H   UNL     1      30.670 -25.340 -12.147  0.00  0.00    +0.145 HD
ATOM     33  H   UNL     1      30.016 -24.770 -13.615  0.00  0.00    +0.145 HD
ENDBRANCH   6  31
TORSDOF 6
ENDMDL
MODEL 4
REMARK VINA RESULT:     -10.3      2.992      7.127
REMARK  Name = 24871491
REMARK  6 active torsions:
REMARK  status: ('A' for Active; 'I' for Inactive)
REMARK    1  A    between atoms: N_1  and  C_11
REMARK    2  A    between atoms: N_2  and  C_18
REMARK    3  A    between atoms: C_6  and  C_31
REMARK    4  A    between atoms: C_19  and  C_24
REMARK    5  A    between atoms: C_24  and  C_26
REMARK    6  A    between atoms: C_26  and  O_27
REMARK                            x       y       z     vdW  Elec       q    Type
REMARK                         _______ _______ _______ _____ _____    ______ ____
ROOT
ATOM      1  N   UNL     1      34.566 -24.607 -14.045  0.00  0.00    -0.287 N 
ATOM      2  N   UNL     1      37.528 -22.257 -16.860  0.00  0.00    -0.247 N 
ATOM      3  N   UNL     1      36.045 -23.422 -15.468  0.00  0.00    -0.322 NA
ATOM      4  N   UNL     1      38.407 -23.370 -14.995  0.00  0.00    -0.169 NA
ATOM      5  C   UNL     1      35.879 -24.186 -14.368  0.00  0.00    +0.202 C 
ATOM      6  C   UNL     1      36.914 -24.577 -13.543  0.00  0.00    +0.118 C 
ATOM      7  C   UNL     1      37.317 -23.056 -15.719  0.00  0.00    +0.150 C 
ATOM      8  C   UNL     1      38.169 -24.136 -13.909  0.00  0.00    +0.120 C 
ATOM      9  H   UNL     1      34.530 -25.472 -13.577  0.00  0.00    +0.155 HD
ATOM     10  H   UNL     1      38.471 -22.013 -17.002  0.00  0.00    +0.165 HD
ENDROOT
BRANCH   1  11
ATOM     11  C   UNL     1      33.305 -24.030 -14.263  0.00  0.00    +0.050 C 
ATOM     12  C   UNL     1      32.996 -23.478 -15.507  0.00  0.00    +0.010 C 
ATOM     13  C   UNL     1      31.742 -22.905 -15.723  0.00  0.00    -0.021 C 
ATOM     14  C   UNL     1      32.360 -24.009 -13.237  0.00  0.00    +0.015 C 
ATOM     15  C   UNL     1      30.798 -22.884 -14.697  0.00  0.00    -0.004 C 
ATOM     16  C   UNL     1      31.107 -23.435 -13.453  0.00  0.00    +0.001 C 
ATOM     17  C   UNL     1      31.412 -22.314 -17.052  0.00  0.00    +0.031 C 
ENDBRANCH   1  11
BRANCH   2  18
ATOM     18  C   UNL     1      36.655 -21.738 -17.838  0.00  0.00    +0.058 C 
ATOM     19  C   UNL     1      34.928 -20.710 -19.772  0.00  0.00    -0.011 C 
ATOM     20  C   UNL     1      37.150 -20.914 -18.848  0.00  0.00    +0.015 C 
ATOM     21  C   UNL     1      35.295 -22.048 -17.794  0.00  0.00    +0.015 C 
ATOM     22  C   UNL     1      36.286 -20.400 -19.815  0.00  0.00    -0.002 C 
ATOM     23  C   UNL     1      34.432 -21.534 -18.761  0.00  0.00    -0.002 C 
BRANCH  19  24
ATOM     24  C   UNL     1      34.004 -20.161 -20.806  0.00  0.00    +0.136 C 
BRANCH  24  26
ATOM     25  O   UNL     1      34.886 -19.390 -22.941  0.00  0.00    -0.250 OA
ATOM     26  C   UNL     1      34.670 -19.184 -21.755  0.00  0.00    +0.318 C 
BRANCH  26  27
ATOM     27  O   UNL     1      35.013 -18.026 -21.130  0.00  0.00    -0.480 OA
ATOM     28  H   UNL     1      35.358 -18.048 -20.260  0.00  0.00    +0.295 HD
ENDBRANCH  26  27
ENDBRANCH  24  26
ENDBRANCH  19  24
ENDBRANCH   2  18
BRANCH   6  31
ATOM     29  O   UNL     1      36.046 -25.015 -11.397  0.00  0.00    -0.270 OA
ATOM     30  N   UNL     1      37.353 -26.648 -12.338  0.00  0.00    -0.325 N 
ATOM     31  C   UNL     1      36.737 -25.400 -12.358  0.00  0.00    +0.248 C 
ATOM     32  H   UNL     1      37.255 -27.233 -11.552  0.00  0.00    +0.145 HD
ATOM     33  H   UNL     1      37.886 -26.945 -13.110  0.00  0.00    +0.145 HD
ENDBRANCH   6  31
TORSDOF 6
ENDMDL
MODEL 5
REMARK VINA RESULT:      -9.5      2.862      5.146
REMARK  Name = 24871491
REMARK  6 active torsions:
REMARK  status: ('A' for Active; 'I' for Inactive)
REMARK    1  A    between atoms: N_1  and  C_11
REMARK    2  A    between atoms: N_2  and  C_18
REMARK    3  A    between atoms: C_6  and  C_31
REMARK    4  A    between atoms: C_19  and  C_24
REMARK    5  A    between atoms: C_24  and  C_26
REMARK    6  A    between atoms: C_26  and  O_27
REMARK                            x       y       z     vdW  Elec       q    Type
REMARK                         _______ _______ _______ _____ _____    ______ ____
ROOT
ATOM      1  N   UNL     1      33.018 -22.079 -17.248  0.00  0.00    -0.287 N 
ATOM      2  N   UNL     1      37.613 -22.682 -16.385  0.00  0.00    -0.247 N 
ATOM      3  N   UNL     1      35.325 -22.386 -16.802  0.00  0.00    -0.322 NA
ATOM      4  N   UNL     1      36.971 -21.822 -18.468  0.00  0.00    -0.169 NA
ATOM      5  C   UNL     1      34.368 -21.990 -17.667  0.00  0.00    +0.202 C 
ATOM      6  C   UNL     1      34.631 -21.506 -18.932  0.00  0.00    +0.118 C 
ATOM      7  C   UNL     1      36.587 -22.276 -17.261  0.00  0.00    +0.150 C 
ATOM      8  C   UNL     1      35.964 -21.442 -19.283  0.00  0.00    +0.120 C 
ATOM      9  H   UNL     1      32.431 -21.402 -17.654  0.00  0.00    +0.155 HD
ATOM     10  H   UNL     1      38.516 -22.584 -16.763  0.00  0.00    +0.165 HD
ENDROOT
BRANCH   1  11
ATOM     11  C   UNL     1      32.354 -22.947 -16.366  0.00  0.00    +0.050 C 
ATOM     12  C   UNL     1      30.980 -23.155 -16.494  0.00  0.00    +0.010 C 
ATOM     13  C   UNL     1      30.322 -24.017 -15.617  0.00  0.00    -0.021 C 
ATOM     14  C   UNL     1      33.068 -23.602 -15.363  0.00  0.00    +0.015 C 
ATOM     15  C   UNL     1      31.036 -24.672 -14.614  0.00  0.00    -0.004 C 
ATOM     16  C   UNL     1      32.409 -24.463 -14.486  0.00  0.00    +0.001 C 
ATOM     17  C   UNL     1      28.853 -24.239 -15.752  0.00  0.00    +0.031 C 
ENDBRANCH   1  11
BRANCH   2  18
ATOM     18  C   UNL     1      37.600 -23.199 -15.073  0.00  0.00    +0.058 C 
ATOM     19  C   UNL     1      37.575 -24.221 -12.478  0.00  0.00    -0.011 C 
ATOM     20  C   UNL     1      37.232 -22.381 -14.006  0.00  0.00    +0.015 C 
ATOM     21  C   UNL     1      37.956 -24.528 -14.844  0.00  0.00    +0.015 C 
ATOM     22  C   UNL     1      37.220 -22.892 -12.707  0.00  0.00    -0.002 C 
ATOM     23  C   UNL     1      37.944 -25.039 -13.547  0.00  0.00    -0.002 C 
BRANCH  19  24
ATOM     24  C   UNL     1      37.562 -24.768 -11.091  0.00  0.00    +0.136 C 
BRANCH  24  26
ATOM     25  O   UNL     1      36.059 -24.242  -9.249  0.00  0.00    -0.250 OA
ATOM     26  C   UNL     1      36.221 -24.628 -10.398  0.00  0.00    +0.318 C 
BRANCH  26  27
ATOM     27  O   UNL     1      35.191 -24.987 -11.211  0.00  0.00    -0.480 OA
ATOM     28  H   UNL     1      35.366 -25.397 -12.034  0.00  0.00    +0.295 HD
ENDBRANCH  26  27
ENDBRANCH  24  26
ENDBRANCH  19  24
ENDBRANCH   2  18
BRANCH   6  31
ATOM     29  O   UNL     1      32.538 -21.711 -19.993  0.00  0.00    -0.270 OA
ATOM     30  N   UNL     1      33.835 -19.920 -20.601  0.00  0.00    -0.325 N 
ATOM     31  C   UNL     1      33.601 -21.078 -19.865  0.00  0.00    +0.248 C 
ATOM     32  H   UNL     1      33.160 -19.600 -21.243  0.00  0.00    +0.145 HD
ATOM     33  H   UNL     1      34.675 -19.422 -20.481  0.00  0.00    +0.145 HD
ENDBRANCH   6  31
TORSDOF 6
ENDMDL
