MODEL 1
REMARK VINA RESULT:     -11.6      0.000      0.000
REMARK  Name = 24883488
REMARK  8 active torsions:
REMARK  status: ('A' for Active; 'I' for Inactive)
REMARK    1  A    between atoms: N_2  and  C_11
REMARK    2  A    between atoms: C_3  and  C_19
REMARK    3  A    between atoms: C_19  and  C_20
REMARK    4  A    between atoms: C_20  and  C_23
REMARK    5  A    between atoms: N_22  and  C_25
REMARK    6  A    between atoms: C_27  and  O_31
REMARK    7  A    between atoms: O_31  and  C_32
REMARK    8  A    between atoms: C_32  and  C_34
REMARK                            x       y       z     vdW  Elec       q    Type
REMARK                         _______ _______ _______ _____ _____    ______ ____
ROOT
ATOM      1  O   UNL     1      35.140 -15.719 -21.901  0.00  0.00    -0.275 OA
ATOM      2  N   UNL     1      35.738 -17.743 -22.945  0.00  0.00    -0.284 N 
ATOM      3  C   UNL     1      35.429 -16.378 -22.895  0.00  0.00    +0.227 C 
ATOM      4  H   UNL     1      35.921 -18.110 -23.840  0.00  0.00    +0.155 HD
ENDROOT
BRANCH   2  11
ATOM      5  O   UNL     1      32.427 -20.644 -20.351  0.00  0.00    -0.282 OA
ATOM      6  O   UNL     1      37.172 -21.677 -18.137  0.00  0.00    -0.270 OA
ATOM      7  O   UNL     1      32.606 -22.366 -18.341  0.00  0.00    -0.266 OA
ATOM      8  N   UNL     1      34.900 -22.023 -18.232  0.00  0.00    -0.246 N 
ATOM      9  C   UNL     1      34.748 -20.190 -20.362  0.00  0.00    +0.049 C 
ATOM     10  C   UNL     1      35.980 -20.472 -19.772  0.00  0.00    +0.057 C 
ATOM     11  C   UNL     1      35.817 -18.650 -21.888  0.00  0.00    +0.050 C 
ATOM     12  C   UNL     1      34.663 -19.279 -21.420  0.00  0.00    +0.018 C 
ATOM     13  C   UNL     1      37.135 -19.838 -20.245  0.00  0.00    +0.006 C 
ATOM     14  C   UNL     1      37.051 -18.929 -21.302  0.00  0.00    +0.015 C 
ATOM     15  C   UNL     1      33.531 -20.850 -19.872  0.00  0.00    +0.249 C 
ATOM     16  C   UNL     1      36.085 -21.431 -18.653  0.00  0.00    +0.252 C 
ATOM     17  C   UNL     1      33.628 -21.824 -18.736  0.00  0.00    +0.291 C 
ATOM     18  H   UNL     1      34.975 -22.662 -17.486  0.00  0.00    +0.158 HD
ENDBRANCH   2  11
BRANCH   3  19
ATOM     19  C   UNL     1      35.444 -15.732 -24.271  0.00  0.00    +0.095 C 
BRANCH  19  20
ATOM     20  C   UNL     1      34.027 -15.477 -24.778  0.00  0.00    +0.095 C 
BRANCH  20  23
ATOM     21  O   UNL     1      33.462 -13.562 -26.092  0.00  0.00    -0.275 OA
ATOM     22  N   UNL     1      33.905 -13.278 -23.802  0.00  0.00    -0.284 N 
ATOM     23  C   UNL     1      33.772 -13.993 -24.986  0.00  0.00    +0.227 C 
ATOM     24  H   UNL     1      34.140 -13.803 -23.002  0.00  0.00    +0.155 HD
BRANCH  22  25
ATOM     25  C   UNL     1      33.743 -11.887 -23.609  0.00  0.00    +0.053 C 
ATOM     26  C   UNL     1      32.764 -11.413 -22.737  0.00  0.00    +0.052 C 
ATOM     27  C   UNL     1      32.604 -10.040 -22.547  0.00  0.00    +0.140 C 
ATOM     28  C   UNL     1      34.563 -10.989 -24.291  0.00  0.00    +0.015 C 
ATOM     29  C   UNL     1      33.425  -9.142 -23.229  0.00  0.00    +0.037 C 
ATOM     30  C   UNL     1      34.404  -9.616 -24.102  0.00  0.00    +0.004 C 
BRANCH  27  31
ATOM     31  O   UNL     1      31.648  -9.577 -21.696  0.00  0.00    -0.472 OA
BRANCH  31  32
ATOM     32  C   UNL     1      32.087  -9.101 -20.424  0.00  0.00    +0.243 C 
BRANCH  32  34
ATOM     33  F   UNL     1      32.221 -11.208 -19.425  0.00  0.00    -0.230 F 
ATOM     34  C   UNL     1      31.555 -10.022 -19.349  0.00  0.00    +0.240 C 
ENDBRANCH  32  34
ENDBRANCH  31  32
ENDBRANCH  27  31
ENDBRANCH  22  25
ENDBRANCH  20  23
ENDBRANCH  19  20
ENDBRANCH   3  19
TORSDOF 8
ENDMDL
MODEL 2
REMARK VINA RESULT:     -11.5      4.235      7.460
REMARK  Name = 24883488
REMARK  8 active torsions:
REMARK  status: ('A' for Active; 'I' for Inactive)
REMARK    1  A    between atoms: N_2  and  C_11
REMARK    2  A    between atoms: C_3  and  C_19
REMARK    3  A    between atoms: C_19  and  C_20
REMARK    4  A    between atoms: C_20  and  C_23
REMARK    5  A    between atoms: N_22  and  C_25
REMARK    6  A    between atoms: C_27  and  O_31
REMARK    7  A    between atoms: O_31  and  C_32
REMARK    8  A    between atoms: C_32  and  C_34
REMARK                            x       y       z     vdW  Elec       q    Type
REMARK                         _______ _______ _______ _____ _____    ______ ____
ROOT
ATOM      1  O   UNL     1      33.859 -23.866 -17.698  0.00  0.00    -0.275 OA
ATOM      2  N   UNL     1      35.208 -22.090 -16.944  0.00  0.00    -0.284 N 
ATOM      3  C   UNL     1      34.241 -22.702 -17.751  0.00  0.00    +0.227 C 
ATOM      4  H   UNL     1      35.406 -21.148 -17.149  0.00  0.00    +0.155 HD
ENDROOT
BRANCH   2  11
ATOM      5  O   UNL     1      34.079 -23.967 -12.328  0.00  0.00    -0.282 OA
ATOM      6  O   UNL     1      39.375 -24.478 -12.750  0.00  0.00    -0.270 OA
ATOM      7  O   UNL     1      35.472 -25.023 -10.333  0.00  0.00    -0.266 OA
ATOM      8  N   UNL     1      37.437 -24.750 -11.541  0.00  0.00    -0.246 N 
ATOM      9  C   UNL     1      35.991 -23.624 -13.677  0.00  0.00    +0.049 C 
ATOM     10  C   UNL     1      37.376 -23.766 -13.771  0.00  0.00    +0.057 C 
ATOM     11  C   UNL     1      35.929 -22.647 -15.887  0.00  0.00    +0.050 C 
ATOM     12  C   UNL     1      35.264 -23.064 -14.734  0.00  0.00    +0.018 C 
ATOM     13  C   UNL     1      38.037 -23.344 -14.930  0.00  0.00    +0.006 C 
ATOM     14  C   UNL     1      37.313 -22.787 -15.986  0.00  0.00    +0.015 C 
ATOM     15  C   UNL     1      35.289 -24.064 -12.465  0.00  0.00    +0.249 C 
ATOM     16  C   UNL     1      38.156 -24.354 -12.663  0.00  0.00    +0.252 C 
ATOM     17  C   UNL     1      36.072 -24.662 -11.335  0.00  0.00    +0.291 C 
ATOM     18  H   UNL     1      37.961 -25.142 -10.806  0.00  0.00    +0.158 HD
ENDBRANCH   2  11
BRANCH   3  19
ATOM     19  C   UNL     1      33.684 -21.755 -18.802  0.00  0.00    +0.095 C 
BRANCH  19  20
ATOM     20  C   UNL     1      34.802 -21.011 -19.527  0.00  0.00    +0.095 C 
BRANCH  20  23
ATOM     21  O   UNL     1      33.040 -20.003 -20.788  0.00  0.00    -0.275 OA
ATOM     22  N   UNL     1      35.266 -19.478 -21.326  0.00  0.00    -0.284 N 
ATOM     23  C   UNL     1      34.251 -20.117 -20.625  0.00  0.00    +0.227 C 
ATOM     24  H   UNL     1      36.186 -19.677 -21.036  0.00  0.00    +0.155 HD
BRANCH  22  25
ATOM     25  C   UNL     1      35.137 -18.577 -22.408  0.00  0.00    +0.053 C 
ATOM     26  C   UNL     1      35.447 -17.228 -22.233  0.00  0.00    +0.052 C 
ATOM     27  C   UNL     1      35.318 -16.339 -23.300  0.00  0.00    +0.140 C 
ATOM     28  C   UNL     1      34.698 -19.037 -23.649  0.00  0.00    +0.015 C 
ATOM     29  C   UNL     1      34.879 -16.799 -24.542  0.00  0.00    +0.037 C 
ATOM     30  C   UNL     1      34.569 -18.148 -24.717  0.00  0.00    +0.004 C 
BRANCH  27  31
ATOM     31  O   UNL     1      35.620 -15.023 -23.131  0.00  0.00    -0.472 OA
BRANCH  31  32
ATOM     32  C   UNL     1      34.568 -14.083 -23.340  0.00  0.00    +0.243 C 
BRANCH  32  34
ATOM     33  F   UNL     1      34.833 -14.163 -21.020  0.00  0.00    -0.230 F 
ATOM     34  C   UNL     1      34.048 -13.627 -21.995  0.00  0.00    +0.240 C 
ENDBRANCH  32  34
ENDBRANCH  31  32
ENDBRANCH  27  31
ENDBRANCH  22  25
ENDBRANCH  20  23
ENDBRANCH  19  20
ENDBRANCH   3  19
TORSDOF 8
ENDMDL
MODEL 3
REMARK VINA RESULT:     -11.4      1.503      2.215
REMARK  Name = 24883488
REMARK  8 active torsions:
REMARK  status: ('A' for Active; 'I' for Inactive)
REMARK    1  A    between atoms: N_2  and  C_11
REMARK    2  A    between atoms: C_3  and  C_19
REMARK    3  A    between atoms: C_19  and  C_20
REMARK    4  A    between atoms: C_20  and  C_23
REMARK    5  A    between atoms: N_22  and  C_25
REMARK    6  A    between atoms: C_27  and  O_31
REMARK    7  A    between atoms: O_31  and  C_32
REMARK    8  A    between atoms: C_32  and  C_34
REMARK                            x       y       z     vdW  Elec       q    Type
REMARK                         _______ _______ _______ _____ _____    ______ ____
ROOT
ATOM      1  O   UNL     1      35.017 -15.424 -21.559  0.00  0.00    -0.275 OA
ATOM      2  N   UNL     1      35.611 -17.336 -22.797  0.00  0.00    -0.284 N 
ATOM      3  C   UNL     1      35.288 -15.986 -22.615  0.00  0.00    +0.227 C 
ATOM      4  H   UNL     1      35.776 -17.617 -23.726  0.00  0.00    +0.155 HD
ENDROOT
BRANCH   2  11
ATOM      5  O   UNL     1      32.397 -20.473 -20.362  0.00  0.00    -0.282 OA
ATOM      6  O   UNL     1      37.217 -21.682 -18.417  0.00  0.00    -0.270 OA
ATOM      7  O   UNL     1      32.648 -22.369 -18.524  0.00  0.00    -0.266 OA
ATOM      8  N   UNL     1      34.944 -22.028 -18.464  0.00  0.00    -0.246 N 
ATOM      9  C   UNL     1      34.715 -20.010 -20.413  0.00  0.00    +0.049 C 
ATOM     10  C   UNL     1      35.968 -20.339 -19.894  0.00  0.00    +0.057 C 
ATOM     11  C   UNL     1      35.729 -18.335 -21.829  0.00  0.00    +0.050 C 
ATOM     12  C   UNL     1      34.592 -19.008 -21.381  0.00  0.00    +0.018 C 
ATOM     13  C   UNL     1      37.105 -19.660 -20.347  0.00  0.00    +0.006 C 
ATOM     14  C   UNL     1      36.983 -18.660 -21.314  0.00  0.00    +0.015 C 
ATOM     15  C   UNL     1      33.517 -20.718 -19.943  0.00  0.00    +0.249 C 
ATOM     16  C   UNL     1      36.113 -21.395 -18.870  0.00  0.00    +0.252 C 
ATOM     17  C   UNL     1      33.655 -21.790 -18.904  0.00  0.00    +0.291 C 
ATOM     18  H   UNL     1      35.046 -22.731 -17.782  0.00  0.00    +0.158 HD
ENDBRANCH   2  11
BRANCH   3  19
ATOM     19  C   UNL     1      35.260 -15.217 -23.926  0.00  0.00    +0.095 C 
BRANCH  19  20
ATOM     20  C   UNL     1      33.891 -14.588 -24.170  0.00  0.00    +0.095 C 
BRANCH  20  23
ATOM     21  O   UNL     1      34.511 -12.283 -24.043  0.00  0.00    -0.275 OA
ATOM     22  N   UNL     1      32.878 -13.103 -22.565  0.00  0.00    -0.284 N 
ATOM     23  C   UNL     1      33.815 -13.186 -23.588  0.00  0.00    +0.227 C 
ATOM     24  H   UNL     1      32.395 -13.935 -22.351  0.00  0.00    +0.155 HD
BRANCH  22  25
ATOM     25  C   UNL     1      32.535 -11.968 -21.796  0.00  0.00    +0.053 C 
ATOM     26  C   UNL     1      32.423 -10.719 -22.406  0.00  0.00    +0.052 C 
ATOM     27  C   UNL     1      32.086  -9.599 -21.647  0.00  0.00    +0.140 C 
ATOM     28  C   UNL     1      32.309 -12.097 -20.426  0.00  0.00    +0.015 C 
ATOM     29  C   UNL     1      31.859  -9.728 -20.276  0.00  0.00    +0.037 C 
ATOM     30  C   UNL     1      31.971 -10.978 -19.665  0.00  0.00    +0.004 C 
BRANCH  27  31
ATOM     31  O   UNL     1      31.976  -8.380 -22.241  0.00  0.00    -0.472 OA
BRANCH  31  32
ATOM     32  C   UNL     1      33.096  -7.926 -23.001  0.00  0.00    +0.243 C 
BRANCH  32  34
ATOM     33  F   UNL     1      35.079  -6.898 -22.316  0.00  0.00    -0.230 F 
ATOM     34  C   UNL     1      33.725  -6.750 -22.287  0.00  0.00    +0.240 C 
ENDBRANCH  32  34
ENDBRANCH  31  32
ENDBRANCH  27  31
ENDBRANCH  22  25
ENDBRANCH  20  23
ENDBRANCH  19  20
ENDBRANCH   3  19
TORSDOF 8
ENDMDL
MODEL 4
REMARK VINA RESULT:     -11.2      1.474      2.741
REMARK  Name = 24883488
REMARK  8 active torsions:
REMARK  status: ('A' for Active; 'I' for Inactive)
REMARK    1  A    between atoms: N_2  and  C_11
REMARK    2  A    between atoms: C_3  and  C_19
REMARK    3  A    between atoms: C_19  and  C_20
REMARK    4  A    between atoms: C_20  and  C_23
REMARK    5  A    between atoms: N_22  and  C_25
REMARK    6  A    between atoms: C_27  and  O_31
REMARK    7  A    between atoms: O_31  and  C_32
REMARK    8  A    between atoms: C_32  and  C_34
REMARK                            x       y       z     vdW  Elec       q    Type
REMARK                         _______ _______ _______ _____ _____    ______ ____
ROOT
ATOM      1  O   UNL     1      35.682 -17.095 -20.833  0.00  0.00    -0.275 OA
ATOM      2  N   UNL     1      35.131 -19.115 -21.909  0.00  0.00    -0.284 N 
ATOM      3  C   UNL     1      35.624 -17.807 -21.830  0.00  0.00    +0.227 C 
ATOM      4  H   UNL     1      35.140 -19.525 -22.804  0.00  0.00    +0.155 HD
ENDROOT
BRANCH   2  11
ATOM      5  O   UNL     1      37.114 -21.724 -17.989  0.00  0.00    -0.282 OA
ATOM      6  O   UNL     1      31.851 -22.538 -17.645  0.00  0.00    -0.270 OA
ATOM      7  O   UNL     1      36.130 -23.233 -16.042  0.00  0.00    -0.266 OA
ATOM      8  N   UNL     1      33.978 -22.889 -16.843  0.00  0.00    -0.246 N 
ATOM      9  C   UNL     1      34.986 -21.283 -18.922  0.00  0.00    +0.049 C 
ATOM     10  C   UNL     1      33.613 -21.505 -18.817  0.00  0.00    +0.057 C 
ATOM     11  C   UNL     1      34.627 -19.912 -20.880  0.00  0.00    +0.050 C 
ATOM     12  C   UNL     1      35.497 -20.487 -19.954  0.00  0.00    +0.018 C 
ATOM     13  C   UNL     1      32.745 -20.927 -19.751  0.00  0.00    +0.006 C 
ATOM     14  C   UNL     1      33.254 -20.131 -20.779  0.00  0.00    +0.015 C 
ATOM     15  C   UNL     1      35.904 -21.886 -17.947  0.00  0.00    +0.249 C 
ATOM     16  C   UNL     1      33.060 -22.345 -17.734  0.00  0.00    +0.252 C 
ATOM     17  C   UNL     1      35.352 -22.739 -16.846  0.00  0.00    +0.291 C 
ATOM     18  H   UNL     1      33.604 -23.448 -16.123  0.00  0.00    +0.158 HD
ENDBRANCH   2  11
BRANCH   3  19
ATOM     19  C   UNL     1      36.083 -17.281 -23.180  0.00  0.00    +0.095 C 
BRANCH  19  20
ATOM     20  C   UNL     1      34.963 -17.358 -24.215  0.00  0.00    +0.095 C 
BRANCH  20  23
ATOM     21  O   UNL     1      33.736 -15.751 -25.490  0.00  0.00    -0.275 OA
ATOM     22  N   UNL     1      34.482 -15.166 -23.339  0.00  0.00    -0.284 N 
ATOM     23  C   UNL     1      34.326 -15.997 -24.442  0.00  0.00    +0.227 C 
ATOM     24  H   UNL     1      34.969 -15.548 -22.573  0.00  0.00    +0.155 HD
BRANCH  22  25
ATOM     25  C   UNL     1      34.024 -13.837 -23.186  0.00  0.00    +0.053 C 
ATOM     26  C   UNL     1      33.168 -13.511 -22.133  0.00  0.00    +0.052 C 
ATOM     27  C   UNL     1      32.716 -12.200 -21.982  0.00  0.00    +0.140 C 
ATOM     28  C   UNL     1      34.427 -12.853 -24.087  0.00  0.00    +0.015 C 
ATOM     29  C   UNL     1      33.120 -11.215 -22.885  0.00  0.00    +0.037 C 
ATOM     30  C   UNL     1      33.976 -11.541 -23.937  0.00  0.00    +0.004 C 
BRANCH  27  31
ATOM     31  O   UNL     1      31.881 -11.881 -20.956  0.00  0.00    -0.472 OA
BRANCH  31  32
ATOM     32  C   UNL     1      31.282 -10.587 -20.986  0.00  0.00    +0.243 C 
BRANCH  32  34
ATOM     33  F   UNL     1      32.072 -10.790 -18.797  0.00  0.00    -0.230 F 
ATOM     34  C   UNL     1      31.587  -9.878 -19.685  0.00  0.00    +0.240 C 
ENDBRANCH  32  34
ENDBRANCH  31  32
ENDBRANCH  27  31
ENDBRANCH  22  25
ENDBRANCH  20  23
ENDBRANCH  19  20
ENDBRANCH   3  19
TORSDOF 8
ENDMDL
MODEL 5
REMARK VINA RESULT:     -11.1      3.436      6.855
REMARK  Name = 24883488
REMARK  8 active torsions:
REMARK  status: ('A' for Active; 'I' for Inactive)
REMARK    1  A    between atoms: N_2  and  C_11
REMARK    2  A    between atoms: C_3  and  C_19
REMARK    3  A    between atoms: C_19  and  C_20
REMARK    4  A    between atoms: C_20  and  C_23
REMARK    5  A    between atoms: N_22  and  C_25
REMARK    6  A    between atoms: C_27  and  O_31
REMARK    7  A    between atoms: O_31  and  C_32
REMARK    8  A    between atoms: C_32  and  C_34
REMARK                            x       y       z     vdW  Elec       q    Type
REMARK                         _______ _______ _______ _____ _____    ______ ____
ROOT
ATOM      1  O   UNL     1      33.238 -21.334 -19.396  0.00  0.00    -0.275 OA
ATOM      2  N   UNL     1      34.636 -22.570 -17.961  0.00  0.00    -0.284 N 
ATOM      3  C   UNL     1      34.330 -21.805 -19.093  0.00  0.00    +0.227 C 
ATOM      4  H   UNL     1      35.566 -22.886 -17.895  0.00  0.00    +0.155 HD
ENDROOT
BRANCH   2  11
ATOM      5  O   UNL     1      29.615 -22.336 -17.047  0.00  0.00    -0.282 OA
ATOM      6  O   UNL     1      31.688 -24.627 -12.695  0.00  0.00    -0.270 OA
ATOM      7  O   UNL     1      28.031 -23.055 -15.045  0.00  0.00    -0.266 OA
ATOM      8  N   UNL     1      29.864 -23.845 -13.858  0.00  0.00    -0.246 N 
ATOM      9  C   UNL     1      31.575 -23.094 -15.963  0.00  0.00    +0.049 C 
ATOM     10  C   UNL     1      32.100 -23.695 -14.818  0.00  0.00    +0.057 C 
ATOM     11  C   UNL     1      33.792 -22.943 -16.915  0.00  0.00    +0.050 C 
ATOM     12  C   UNL     1      32.419 -22.716 -17.013  0.00  0.00    +0.018 C 
ATOM     13  C   UNL     1      33.479 -23.919 -14.725  0.00  0.00    +0.006 C 
ATOM     14  C   UNL     1      34.321 -23.543 -15.773  0.00  0.00    +0.015 C 
ATOM     15  C   UNL     1      30.130 -22.855 -16.069  0.00  0.00    +0.249 C 
ATOM     16  C   UNL     1      31.221 -24.098 -13.701  0.00  0.00    +0.252 C 
ATOM     17  C   UNL     1      29.231 -23.260 -14.940  0.00  0.00    +0.291 C 
ATOM     18  H   UNL     1      29.283 -24.116 -13.111  0.00  0.00    +0.158 HD
ENDBRANCH   2  11
BRANCH   3  19
ATOM     19  C   UNL     1      35.531 -21.618 -20.006  0.00  0.00    +0.095 C 
BRANCH  19  20
ATOM     20  C   UNL     1      36.453 -20.516 -19.489  0.00  0.00    +0.095 C 
BRANCH  20  23
ATOM     21  O   UNL     1      37.573 -18.662 -20.499  0.00  0.00    -0.275 OA
ATOM     22  N   UNL     1      35.494 -19.340 -21.361  0.00  0.00    -0.284 N 
ATOM     23  C   UNL     1      36.582 -19.385 -20.497  0.00  0.00    +0.227 C 
ATOM     24  H   UNL     1      34.799 -20.022 -21.219  0.00  0.00    +0.155 HD
BRANCH  22  25
ATOM     25  C   UNL     1      35.268 -18.431 -22.419  0.00  0.00    +0.053 C 
ATOM     26  C   UNL     1      35.545 -17.075 -22.246  0.00  0.00    +0.052 C 
ATOM     27  C   UNL     1      35.321 -16.177 -23.290  0.00  0.00    +0.140 C 
ATOM     28  C   UNL     1      34.768 -18.890 -23.637  0.00  0.00    +0.015 C 
ATOM     29  C   UNL     1      34.821 -16.638 -24.509  0.00  0.00    +0.037 C 
ATOM     30  C   UNL     1      34.544 -17.994 -24.683  0.00  0.00    +0.004 C 
BRANCH  27  31
ATOM     31  O   UNL     1      35.590 -14.854 -23.122  0.00  0.00    -0.472 OA
BRANCH  31  32
ATOM     32  C   UNL     1      34.492 -13.950 -23.229  0.00  0.00    +0.243 C 
BRANCH  32  34
ATOM     33  F   UNL     1      34.865 -13.858 -20.925  0.00  0.00    -0.230 F 
ATOM     34  C   UNL     1      33.879 -13.762 -21.860  0.00  0.00    +0.240 C 
ENDBRANCH  32  34
ENDBRANCH  31  32
ENDBRANCH  27  31
ENDBRANCH  22  25
ENDBRANCH  20  23
ENDBRANCH  19  20
ENDBRANCH   3  19
TORSDOF 8
ENDMDL
MODEL 6
REMARK VINA RESULT:     -11.1      2.175      3.533
REMARK  Name = 24883488
REMARK  8 active torsions:
REMARK  status: ('A' for Active; 'I' for Inactive)
REMARK    1  A    between atoms: N_2  and  C_11
REMARK    2  A    between atoms: C_3  and  C_19
REMARK    3  A    between atoms: C_19  and  C_20
REMARK    4  A    between atoms: C_20  and  C_23
REMARK    5  A    between atoms: N_22  and  C_25
REMARK    6  A    between atoms: C_27  and  O_31
REMARK    7  A    between atoms: O_31  and  C_32
REMARK    8  A    between atoms: C_32  and  C_34
REMARK                            x       y       z     vdW  Elec       q    Type
REMARK                         _______ _______ _______ _____ _____    ______ ____
ROOT
ATOM      1  O   UNL     1      35.334 -17.014 -20.846  0.00  0.00    -0.275 OA
ATOM      2  N   UNL     1      35.382 -19.196 -21.728  0.00  0.00    -0.284 N 
ATOM      3  C   UNL     1      35.620 -17.816 -21.730  0.00  0.00    +0.227 C 
ATOM      4  H   UNL     1      35.658 -19.680 -22.540  0.00  0.00    +0.155 HD
ENDROOT
BRANCH   2  11
ATOM      5  O   UNL     1      37.102 -21.990 -17.812  0.00  0.00    -0.282 OA
ATOM      6  O   UNL     1      31.790 -22.453 -17.589  0.00  0.00    -0.270 OA
ATOM      7  O   UNL     1      35.977 -23.459 -15.910  0.00  0.00    -0.266 OA
ATOM      8  N   UNL     1      33.871 -22.959 -16.749  0.00  0.00    -0.246 N 
ATOM      9  C   UNL     1      35.029 -21.393 -18.781  0.00  0.00    +0.049 C 
ATOM     10  C   UNL     1      33.642 -21.525 -18.708  0.00  0.00    +0.057 C 
ATOM     11  C   UNL     1      34.804 -19.972 -20.723  0.00  0.00    +0.050 C 
ATOM     12  C   UNL     1      35.613 -20.618 -19.788  0.00  0.00    +0.018 C 
ATOM     13  C   UNL     1      32.835 -20.875 -19.649  0.00  0.00    +0.006 C 
ATOM     14  C   UNL     1      33.418 -20.100 -20.654  0.00  0.00    +0.015 C 
ATOM     15  C   UNL     1      35.883 -22.071 -17.797  0.00  0.00    +0.249 C 
ATOM     16  C   UNL     1      33.011 -22.341 -17.650  0.00  0.00    +0.252 C 
ATOM     17  C   UNL     1      35.252 -22.902 -16.721  0.00  0.00    +0.291 C 
ATOM     18  H   UNL     1      33.445 -23.501 -16.046  0.00  0.00    +0.158 HD
ENDBRANCH   2  11
BRANCH   3  19
ATOM     19  C   UNL     1      36.272 -17.344 -23.019  0.00  0.00    +0.095 C 
BRANCH  19  20
ATOM     20  C   UNL     1      35.289 -17.390 -24.186  0.00  0.00    +0.095 C 
BRANCH  20  23
ATOM     21  O   UNL     1      33.836 -15.860 -25.309  0.00  0.00    -0.275 OA
ATOM     22  N   UNL     1      34.701 -15.269 -23.206  0.00  0.00    -0.284 N 
ATOM     23  C   UNL     1      34.526 -16.082 -24.319  0.00  0.00    +0.227 C 
ATOM     24  H   UNL     1      35.279 -15.628 -22.493  0.00  0.00    +0.155 HD
BRANCH  22  25
ATOM     25  C   UNL     1      34.150 -13.988 -22.976  0.00  0.00    +0.053 C 
ATOM     26  C   UNL     1      34.402 -12.948 -23.871  0.00  0.00    +0.052 C 
ATOM     27  C   UNL     1      33.858 -11.684 -23.643  0.00  0.00    +0.140 C 
ATOM     28  C   UNL     1      33.355 -13.763 -21.852  0.00  0.00    +0.015 C 
ATOM     29  C   UNL     1      33.063 -11.460 -22.519  0.00  0.00    +0.037 C 
ATOM     30  C   UNL     1      32.811 -12.499 -21.623  0.00  0.00    +0.004 C 
BRANCH  27  31
ATOM     31  O   UNL     1      34.103 -10.669 -24.516  0.00  0.00    -0.472 OA
BRANCH  31  32
ATOM     32  C   UNL     1      34.222  -9.357 -23.969  0.00  0.00    +0.243 C 
BRANCH  32  34
ATOM     33  F   UNL     1      36.190  -9.652 -25.192  0.00  0.00    -0.230 F 
ATOM     34  C   UNL     1      35.590  -8.810 -24.306  0.00  0.00    +0.240 C 
ENDBRANCH  32  34
ENDBRANCH  31  32
ENDBRANCH  27  31
ENDBRANCH  22  25
ENDBRANCH  20  23
ENDBRANCH  19  20
ENDBRANCH   3  19
TORSDOF 8
ENDMDL
MODEL 7
REMARK VINA RESULT:     -11.1      2.793      9.775
REMARK  Name = 24883488
REMARK  8 active torsions:
REMARK  status: ('A' for Active; 'I' for Inactive)
REMARK    1  A    between atoms: N_2  and  C_11
REMARK    2  A    between atoms: C_3  and  C_19
REMARK    3  A    between atoms: C_19  and  C_20
REMARK    4  A    between atoms: C_20  and  C_23
REMARK    5  A    between atoms: N_22  and  C_25
REMARK    6  A    between atoms: C_27  and  O_31
REMARK    7  A    between atoms: O_31  and  C_32
REMARK    8  A    between atoms: C_32  and  C_34
REMARK                            x       y       z     vdW  Elec       q    Type
REMARK                         _______ _______ _______ _____ _____    ______ ____
ROOT
ATOM      1  O   UNL     1      35.210 -15.403 -22.477  0.00  0.00    -0.275 OA
ATOM      2  N   UNL     1      34.395 -14.374 -24.432  0.00  0.00    -0.284 N 
ATOM      3  C   UNL     1      34.957 -15.412 -23.678  0.00  0.00    +0.227 C 
ATOM      4  H   UNL     1      34.288 -14.552 -25.394  0.00  0.00    +0.155 HD
ENDROOT
BRANCH   2  11
ATOM      5  O   UNL     1      31.782 -12.591 -20.420  0.00  0.00    -0.282 OA
ATOM      6  O   UNL     1      32.938  -8.267 -23.325  0.00  0.00    -0.270 OA
ATOM      7  O   UNL     1      30.984 -10.196 -19.607  0.00  0.00    -0.266 OA
ATOM      8  N   UNL     1      31.962  -9.220 -21.473  0.00  0.00    -0.246 N 
ATOM      9  C   UNL     1      32.824 -11.746 -22.367  0.00  0.00    +0.049 C 
ATOM     10  C   UNL     1      33.118 -10.605 -23.114  0.00  0.00    +0.057 C 
ATOM     11  C   UNL     1      33.968 -13.120 -23.993  0.00  0.00    +0.050 C 
ATOM     12  C   UNL     1      33.248 -13.006 -22.804  0.00  0.00    +0.018 C 
ATOM     13  C   UNL     1      33.841 -10.726 -24.307  0.00  0.00    +0.006 C 
ATOM     14  C   UNL     1      34.265 -11.983 -24.743  0.00  0.00    +0.015 C 
ATOM     15  C   UNL     1      32.066 -11.628 -21.115  0.00  0.00    +0.249 C 
ATOM     16  C   UNL     1      32.677  -9.268 -22.665  0.00  0.00    +0.252 C 
ATOM     17  C   UNL     1      31.614 -10.276 -20.652  0.00  0.00    +0.291 C 
ATOM     18  H   UNL     1      31.671  -8.327 -21.179  0.00  0.00    +0.158 HD
ENDBRANCH   2  11
BRANCH   3  19
ATOM     19  C   UNL     1      35.292 -16.627 -24.528  0.00  0.00    +0.095 C 
BRANCH  19  20
ATOM     20  C   UNL     1      34.202 -17.691 -24.425  0.00  0.00    +0.095 C 
BRANCH  20  23
ATOM     21  O   UNL     1      35.167 -19.861 -24.147  0.00  0.00    -0.275 OA
ATOM     22  N   UNL     1      34.476 -18.672 -22.242  0.00  0.00    -0.284 N 
ATOM     23  C   UNL     1      34.667 -18.881 -23.602  0.00  0.00    +0.227 C 
ATOM     24  H   UNL     1      34.078 -17.808 -21.988  0.00  0.00    +0.155 HD
BRANCH  22  25
ATOM     25  C   UNL     1      34.787 -19.550 -21.179  0.00  0.00    +0.053 C 
ATOM     26  C   UNL     1      33.765 -20.218 -20.504  0.00  0.00    +0.052 C 
ATOM     27  C   UNL     1      34.071 -21.085 -19.455  0.00  0.00    +0.140 C 
ATOM     28  C   UNL     1      36.116 -19.750 -20.805  0.00  0.00    +0.015 C 
ATOM     29  C   UNL     1      35.401 -21.284 -19.081  0.00  0.00    +0.037 C 
ATOM     30  C   UNL     1      36.423 -20.617 -19.757  0.00  0.00    +0.004 C 
BRANCH  27  31
ATOM     31  O   UNL     1      33.075 -21.736 -18.796  0.00  0.00    -0.472 OA
BRANCH  31  32
ATOM     32  C   UNL     1      33.440 -22.894 -18.047  0.00  0.00    +0.243 C 
BRANCH  32  34
ATOM     33  F   UNL     1      31.482 -22.359 -16.893  0.00  0.00    -0.230 F 
ATOM     34  C   UNL     1      32.738 -22.852 -16.709  0.00  0.00    +0.240 C 
ENDBRANCH  32  34
ENDBRANCH  31  32
ENDBRANCH  27  31
ENDBRANCH  22  25
ENDBRANCH  20  23
ENDBRANCH  19  20
ENDBRANCH   3  19
TORSDOF 8
ENDMDL
MODEL 8
REMARK VINA RESULT:     -11.0      2.147      3.096
REMARK  Name = 24883488
REMARK  8 active torsions:
REMARK  status: ('A' for Active; 'I' for Inactive)
REMARK    1  A    between atoms: N_2  and  C_11
REMARK    2  A    between atoms: C_3  and  C_19
REMARK    3  A    between atoms: C_19  and  C_20
REMARK    4  A    between atoms: C_20  and  C_23
REMARK    5  A    between atoms: N_22  and  C_25
REMARK    6  A    between atoms: C_27  and  O_31
REMARK    7  A    between atoms: O_31  and  C_32
REMARK    8  A    between atoms: C_32  and  C_34
REMARK                            x       y       z     vdW  Elec       q    Type
REMARK                         _______ _______ _______ _____ _____    ______ ____
ROOT
ATOM      1  O   UNL     1      35.615 -17.549 -21.066  0.00  0.00    -0.275 OA
ATOM      2  N   UNL     1      35.142 -19.806 -21.538  0.00  0.00    -0.284 N 
ATOM      3  C   UNL     1      35.286 -18.445 -21.836  0.00  0.00    +0.227 C 
ATOM      4  H   UNL     1      34.843 -20.379 -22.281  0.00  0.00    +0.155 HD
ENDROOT
BRANCH   2  11
ATOM      5  O   UNL     1      32.276 -22.357 -18.165  0.00  0.00    -0.282 OA
ATOM      6  O   UNL     1      37.206 -22.470 -16.126  0.00  0.00    -0.270 OA
ATOM      7  O   UNL     1      32.728 -23.583 -15.856  0.00  0.00    -0.266 OA
ATOM      8  N   UNL     1      34.979 -23.026 -15.984  0.00  0.00    -0.246 N 
ATOM      9  C   UNL     1      34.536 -21.715 -18.435  0.00  0.00    +0.049 C 
ATOM     10  C   UNL     1      35.818 -21.754 -17.888  0.00  0.00    +0.057 C 
ATOM     11  C   UNL     1      35.366 -20.453 -20.322  0.00  0.00    +0.050 C 
ATOM     12  C   UNL     1      34.306 -21.065 -19.653  0.00  0.00    +0.018 C 
ATOM     13  C   UNL     1      36.878 -21.139 -18.565  0.00  0.00    +0.006 C 
ATOM     14  C   UNL     1      36.649 -20.490 -19.780  0.00  0.00    +0.015 C 
ATOM     15  C   UNL     1      33.418 -22.358 -17.733  0.00  0.00    +0.249 C 
ATOM     16  C   UNL     1      36.076 -22.437 -16.603  0.00  0.00    +0.252 C 
ATOM     17  C   UNL     1      33.669 -23.052 -16.428  0.00  0.00    +0.291 C 
ATOM     18  H   UNL     1      35.156 -23.479 -15.129  0.00  0.00    +0.158 HD
ENDBRANCH   2  11
BRANCH   3  19
ATOM     19  C   UNL     1      34.943 -18.131 -23.283  0.00  0.00    +0.095 C 
BRANCH  19  20
ATOM     20  C   UNL     1      35.718 -16.915 -23.784  0.00  0.00    +0.095 C 
BRANCH  20  23
ATOM     21  O   UNL     1      34.139 -15.593 -24.998  0.00  0.00    -0.275 OA
ATOM     22  N   UNL     1      34.820 -14.876 -22.867  0.00  0.00    -0.284 N 
ATOM     23  C   UNL     1      34.803 -15.716 -23.974  0.00  0.00    +0.227 C 
ATOM     24  H   UNL     1      35.403 -15.152 -22.122  0.00  0.00    +0.155 HD
BRANCH  22  25
ATOM     25  C   UNL     1      34.101 -13.673 -22.683  0.00  0.00    +0.053 C 
ATOM     26  C   UNL     1      34.272 -12.614 -23.574  0.00  0.00    +0.052 C 
ATOM     27  C   UNL     1      33.563 -11.427 -23.392  0.00  0.00    +0.140 C 
ATOM     28  C   UNL     1      33.221 -13.545 -21.609  0.00  0.00    +0.015 C 
ATOM     29  C   UNL     1      32.682 -11.299 -22.317  0.00  0.00    +0.037 C 
ATOM     30  C   UNL     1      32.511 -12.358 -21.426  0.00  0.00    +0.004 C 
BRANCH  27  31
ATOM     31  O   UNL     1      33.730 -10.393 -24.261  0.00  0.00    -0.472 OA
BRANCH  31  32
ATOM     32  C   UNL     1      34.373  -9.222 -23.762  0.00  0.00    +0.243 C 
BRANCH  32  34
ATOM     33  F   UNL     1      35.804 -10.020 -25.427  0.00  0.00    -0.230 F 
ATOM     34  C   UNL     1      35.687  -9.040 -24.488  0.00  0.00    +0.240 C 
ENDBRANCH  32  34
ENDBRANCH  31  32
ENDBRANCH  27  31
ENDBRANCH  22  25
ENDBRANCH  20  23
ENDBRANCH  19  20
ENDBRANCH   3  19
TORSDOF 8
ENDMDL
MODEL 9
REMARK VINA RESULT:     -10.7      2.807     10.084
REMARK  Name = 24883488
REMARK  8 active torsions:
REMARK  status: ('A' for Active; 'I' for Inactive)
REMARK    1  A    between atoms: N_2  and  C_11
REMARK    2  A    between atoms: C_3  and  C_19
REMARK    3  A    between atoms: C_19  and  C_20
REMARK    4  A    between atoms: C_20  and  C_23
REMARK    5  A    between atoms: N_22  and  C_25
REMARK    6  A    between atoms: C_27  and  O_31
REMARK    7  A    between atoms: O_31  and  C_32
REMARK    8  A    between atoms: C_32  and  C_34
REMARK                            x       y       z     vdW  Elec       q    Type
REMARK                         _______ _______ _______ _____ _____    ______ ____
ROOT
ATOM      1  O   UNL     1      35.161 -14.979 -22.285  0.00  0.00    -0.275 OA
ATOM      2  N   UNL     1      33.371 -13.934 -23.401  0.00  0.00    -0.284 N 
ATOM      3  C   UNL     1      34.387 -14.883 -23.232  0.00  0.00    +0.227 C 
ATOM      4  H   UNL     1      32.863 -13.994 -24.242  0.00  0.00    +0.155 HD
ENDROOT
BRANCH   2  11
ATOM      5  O   UNL     1      32.980  -8.847 -23.670  0.00  0.00    -0.282 OA
ATOM      6  O   UNL     1      31.450 -10.072 -18.706  0.00  0.00    -0.270 OA
ATOM      7  O   UNL     1      32.245  -6.925 -21.996  0.00  0.00    -0.266 OA
ATOM      8  N   UNL     1      31.845  -8.500 -20.338  0.00  0.00    -0.246 N 
ATOM      9  C   UNL     1      32.619 -10.566 -22.086  0.00  0.00    +0.049 C 
ATOM     10  C   UNL     1      32.216 -10.868 -20.785  0.00  0.00    +0.057 C 
ATOM     11  C   UNL     1      32.988 -12.913 -22.531  0.00  0.00    +0.050 C 
ATOM     12  C   UNL     1      33.006 -11.586 -22.962  0.00  0.00    +0.018 C 
ATOM     13  C   UNL     1      32.200 -12.201 -20.358  0.00  0.00    +0.006 C 
ATOM     14  C   UNL     1      32.586 -13.220 -21.232  0.00  0.00    +0.015 C 
ATOM     15  C   UNL     1      32.638  -9.170 -22.543  0.00  0.00    +0.249 C 
ATOM     16  C   UNL     1      31.805  -9.801 -19.850  0.00  0.00    +0.252 C 
ATOM     17  C   UNL     1      32.224  -8.081 -21.600  0.00  0.00    +0.291 C 
ATOM     18  H   UNL     1      31.570  -7.793 -19.711  0.00  0.00    +0.158 HD
ENDBRANCH   2  11
BRANCH   3  19
ATOM     19  C   UNL     1      34.493 -15.833 -24.413  0.00  0.00    +0.095 C 
BRANCH  19  20
ATOM     20  C   UNL     1      35.529 -16.924 -24.156  0.00  0.00    +0.095 C 
BRANCH  20  23
ATOM     21  O   UNL     1      34.110 -18.844 -24.052  0.00  0.00    -0.275 OA
ATOM     22  N   UNL     1      35.387 -18.271 -22.165  0.00  0.00    -0.284 N 
ATOM     23  C   UNL     1      34.908 -18.124 -23.461  0.00  0.00    +0.227 C 
ATOM     24  H   UNL     1      36.047 -17.603 -21.867  0.00  0.00    +0.155 HD
BRANCH  22  25
ATOM     25  C   UNL     1      35.040 -19.266 -21.222  0.00  0.00    +0.053 C 
ATOM     26  C   UNL     1      36.038 -19.932 -20.511  0.00  0.00    +0.052 C 
ATOM     27  C   UNL     1      35.696 -20.915 -19.582  0.00  0.00    +0.140 C 
ATOM     28  C   UNL     1      33.700 -19.582 -21.004  0.00  0.00    +0.015 C 
ATOM     29  C   UNL     1      34.354 -21.230 -19.363  0.00  0.00    +0.037 C 
ATOM     30  C   UNL     1      33.356 -20.564 -20.074  0.00  0.00    +0.004 C 
BRANCH  27  31
ATOM     31  O   UNL     1      36.669 -21.565 -18.888  0.00  0.00    -0.472 OA
BRANCH  31  32
ATOM     32  C   UNL     1      36.402 -21.861 -17.518  0.00  0.00    +0.243 C 
BRANCH  32  34
ATOM     33  F   UNL     1      37.861 -20.089 -17.084  0.00  0.00    -0.230 F 
ATOM     34  C   UNL     1      37.549 -21.351 -16.676  0.00  0.00    +0.240 C 
ENDBRANCH  32  34
ENDBRANCH  31  32
ENDBRANCH  27  31
ENDBRANCH  22  25
ENDBRANCH  20  23
ENDBRANCH  19  20
ENDBRANCH   3  19
TORSDOF 8
ENDMDL
