MODEL 1
REMARK VINA RESULT:     -13.3      0.000      0.000
REMARK  Name = 10074640
REMARK  6 active torsions:
REMARK  status: ('A' for Active; 'I' for Inactive)
REMARK    1  A    between atoms: N_2  and  C_5
REMARK    2  A    between atoms: C_3  and  C_30
REMARK    3  A    between atoms: C_6  and  N_13
REMARK    4  A    between atoms: C_16  and  C_20
REMARK    5  A    between atoms: C_25  and  C_31
REMARK    6  A    between atoms: C_31  and  N_32
REMARK                            x       y       z     vdW  Elec       q    Type
REMARK                         _______ _______ _______ _____ _____    ______ ____
ROOT
ATOM      1  O   UNL     1      33.838 -23.519 -19.065  0.00  0.00    -0.270 OA
ATOM      2  N   UNL     1      33.724 -21.968 -17.308  0.00  0.00    -0.280 N 
ATOM      3  C   UNL     1      34.028 -22.378 -18.614  0.00  0.00    +0.249 C 
ATOM      4  H   UNL     1      33.931 -21.029 -17.096  0.00  0.00    +0.155 HD
ENDROOT
BRANCH   2   5
ATOM      5  C   UNL     1      33.159 -22.727 -16.255  0.00  0.00    +0.052 C 
ATOM      6  C   UNL     1      33.290 -23.594 -14.024  0.00  0.00    +0.048 C 
ATOM      7  C   UNL     1      33.849 -22.847 -15.061  0.00  0.00    +0.029 C 
ATOM      8  C   UNL     1      32.051 -24.209 -14.195  0.00  0.00    -0.008 C 
ATOM      9  C   UNL     1      31.927 -23.331 -16.443  0.00  0.00    +0.014 C 
ATOM     10  C   UNL     1      31.368 -24.078 -15.406  0.00  0.00    -0.002 C 
ATOM     11  C   UNL     1      31.430 -25.015 -13.102  0.00  0.00    +0.032 C 
BRANCH   6  13
ATOM     12  S   UNL     1      35.745 -24.420 -10.931  0.00  0.00    -0.059 S 
ATOM     13  N   UNL     1      33.994 -23.717 -12.806  0.00  0.00    -0.283 N 
ATOM     14  N   UNL     1      36.055 -24.655 -13.486  0.00  0.00    -0.384 NA
ATOM     15  C   UNL     1      35.227 -24.253 -12.554  0.00  0.00    +0.211 C 
ATOM     16  C   UNL     1      37.199 -25.139 -12.880  0.00  0.00    +0.124 C 
ATOM     17  C   UNL     1      37.215 -25.093 -11.502  0.00  0.00    +0.125 C 
ATOM     18  H   UNL     1      33.525 -23.361 -12.016  0.00  0.00    +0.155 HD
BRANCH  16  20
ATOM     19  N   UNL     1      39.091 -27.189 -15.335  0.00  0.00    -0.242 NA
ATOM     20  C   UNL     1      38.295 -25.654 -13.648  0.00  0.00    +0.046 C 
ATOM     21  C   UNL     1      39.583 -25.159 -13.479  0.00  0.00    +0.005 C 
ATOM     22  C   UNL     1      38.103 -26.660 -14.580  0.00  0.00    +0.101 C 
ATOM     23  C   UNL     1      40.626 -25.678 -14.238  0.00  0.00    +0.021 C 
ATOM     24  C   UNL     1      40.330 -26.683 -15.144  0.00  0.00    +0.099 C 
ENDBRANCH  16  20
ENDBRANCH   6  13
ENDBRANCH   2   5
BRANCH   3  30
ATOM     25  C   UNL     1      35.787 -19.447 -21.106  0.00  0.00    -0.043 C 
ATOM     26  C   UNL     1      36.602 -20.288 -20.359  0.00  0.00    -0.006 C 
ATOM     27  C   UNL     1      34.405 -19.555 -21.048  0.00  0.00    -0.006 C 
ATOM     28  C   UNL     1      36.020 -21.255 -19.538  0.00  0.00    +0.004 C 
ATOM     29  C   UNL     1      33.824 -20.521 -20.227  0.00  0.00    +0.004 C 
ATOM     30  C   UNL     1      34.632 -21.371 -19.472  0.00  0.00    +0.054 C 
BRANCH  25  31
ATOM     31  C   UNL     1      36.414 -18.405 -21.994  0.00  0.00    -0.050 C 
BRANCH  31  32
ATOM     32  N   UNL     1      35.408 -17.546 -22.616  0.00  0.00    +0.387 N 
ATOM     33  N   UNL     1      34.564 -15.492 -24.468  0.00  0.00    +0.383 N 
ATOM     34  C   UNL     1      35.709 -16.130 -22.373  0.00  0.00    -0.100 C 
ATOM     35  C   UNL     1      35.317 -17.809 -24.057  0.00  0.00    -0.100 C 
ATOM     36  C   UNL     1      34.657 -15.228 -23.027  0.00  0.00    -0.101 C 
ATOM     37  C   UNL     1      34.263 -16.909 -24.711  0.00  0.00    -0.101 C 
ATOM     38  C   UNL     1      33.557 -14.634 -25.089  0.00  0.00    -0.101 C 
ATOM     39  H   UNL     1      34.505 -17.761 -22.193  0.00  0.00    -0.079 HD
ATOM     40  H   UNL     1      35.466 -15.277 -24.893  0.00  0.00    -0.080 HD
ENDBRANCH  31  32
ENDBRANCH  25  31
ENDBRANCH   3  30
TORSDOF 6
ENDMDL
MODEL 2
REMARK VINA RESULT:     -11.6      6.517     11.719
REMARK  Name = 10074640
REMARK  6 active torsions:
REMARK  status: ('A' for Active; 'I' for Inactive)
REMARK    1  A    between atoms: N_2  and  C_5
REMARK    2  A    between atoms: C_3  and  C_30
REMARK    3  A    between atoms: C_6  and  N_13
REMARK    4  A    between atoms: C_16  and  C_20
REMARK    5  A    between atoms: C_25  and  C_31
REMARK    6  A    between atoms: C_31  and  N_32
REMARK                            x       y       z     vdW  Elec       q    Type
REMARK                         _______ _______ _______ _____ _____    ______ ____
ROOT
ATOM      1  O   UNL     1      34.142 -11.910 -26.002  0.00  0.00    -0.270 OA
ATOM      2  N   UNL     1      34.296 -12.789 -23.833  0.00  0.00    -0.280 N 
ATOM      3  C   UNL     1      34.201 -11.754 -24.772  0.00  0.00    +0.249 C 
ATOM      4  H   UNL     1      34.334 -12.509 -22.889  0.00  0.00    +0.155 HD
ENDROOT
BRANCH   2   5
ATOM      5  C   UNL     1      34.344 -14.186 -24.062  0.00  0.00    +0.052 C 
ATOM      6  C   UNL     1      35.433 -16.300 -23.757  0.00  0.00    +0.048 C 
ATOM      7  C   UNL     1      35.387 -14.924 -23.531  0.00  0.00    +0.029 C 
ATOM      8  C   UNL     1      34.435 -16.917 -24.510  0.00  0.00    -0.008 C 
ATOM      9  C   UNL     1      33.344 -14.782 -24.812  0.00  0.00    +0.014 C 
ATOM     10  C   UNL     1      33.389 -16.157 -25.039  0.00  0.00    -0.002 C 
ATOM     11  C   UNL     1      34.460 -18.387 -24.769  0.00  0.00    +0.032 C 
BRANCH   6  13
ATOM     12  S   UNL     1      37.970 -18.650 -21.680  0.00  0.00    -0.059 S 
ATOM     13  N   UNL     1      36.498 -17.053 -23.215  0.00  0.00    -0.283 N 
ATOM     14  N   UNL     1      35.387 -18.555 -21.766  0.00  0.00    -0.384 NA
ATOM     15  C   UNL     1      36.482 -18.038 -22.267  0.00  0.00    +0.211 C 
ATOM     16  C   UNL     1      35.740 -19.518 -20.839  0.00  0.00    +0.124 C 
ATOM     17  C   UNL     1      37.093 -19.711 -20.657  0.00  0.00    +0.125 C 
ATOM     18  H   UNL     1      37.388 -16.836 -23.576  0.00  0.00    +0.155 HD
BRANCH  16  20
ATOM     19  N   UNL     1      32.421 -20.627 -19.588  0.00  0.00    -0.242 NA
ATOM     20  C   UNL     1      34.750 -20.264 -20.119  0.00  0.00    +0.046 C 
ATOM     21  C   UNL     1      35.113 -21.310 -19.278  0.00  0.00    +0.005 C 
ATOM     22  C   UNL     1      33.403 -19.964 -20.238  0.00  0.00    +0.101 C 
ATOM     23  C   UNL     1      34.131 -22.016 -18.592  0.00  0.00    +0.021 C 
ATOM     24  C   UNL     1      32.811 -21.638 -18.780  0.00  0.00    +0.099 C 
ENDBRANCH  16  20
ENDBRANCH   6  13
ENDBRANCH   2   5
BRANCH   3  30
ATOM     25  C   UNL     1      34.191  -7.826 -23.201  0.00  0.00    -0.043 C 
ATOM     26  C   UNL     1      33.099  -8.654 -22.978  0.00  0.00    -0.006 C 
ATOM     27  C   UNL     1      35.286  -8.267 -23.930  0.00  0.00    -0.006 C 
ATOM     28  C   UNL     1      33.103  -9.949 -23.497  0.00  0.00    +0.004 C 
ATOM     29  C   UNL     1      35.290  -9.562 -24.447  0.00  0.00    +0.004 C 
ATOM     30  C   UNL     1      34.199 -10.403 -24.231  0.00  0.00    +0.054 C 
BRANCH  25  31
ATOM     31  C   UNL     1      34.187  -6.428 -22.640  0.00  0.00    -0.050 C 
BRANCH  31  32
ATOM     32  N   UNL     1      33.164  -5.593 -23.268  0.00  0.00    +0.387 N 
ATOM     33  N   UNL     1      32.061  -3.050 -24.088  0.00  0.00    +0.383 N 
ATOM     34  C   UNL     1      32.575  -4.669 -22.292  0.00  0.00    -0.100 C 
ATOM     35  C   UNL     1      33.723  -4.851 -24.404  0.00  0.00    -0.100 C 
ATOM     36  C   UNL     1      31.504  -3.791 -22.950  0.00  0.00    -0.101 C 
ATOM     37  C   UNL     1      32.651  -3.975 -25.063  0.00  0.00    -0.101 C 
ATOM     38  C   UNL     1      31.038  -2.217 -24.717  0.00  0.00    -0.101 C 
ATOM     39  H   UNL     1      32.427  -6.207 -23.615  0.00  0.00    -0.079 HD
ATOM     40  H   UNL     1      32.798  -2.435 -23.741  0.00  0.00    -0.080 HD
ENDBRANCH  31  32
ENDBRANCH  25  31
ENDBRANCH   3  30
TORSDOF 6
ENDMDL
MODEL 3
REMARK VINA RESULT:     -11.2      6.142     11.253
REMARK  Name = 10074640
REMARK  6 active torsions:
REMARK  status: ('A' for Active; 'I' for Inactive)
REMARK    1  A    between atoms: N_2  and  C_5
REMARK    2  A    between atoms: C_3  and  C_30
REMARK    3  A    between atoms: C_6  and  N_13
REMARK    4  A    between atoms: C_16  and  C_20
REMARK    5  A    between atoms: C_25  and  C_31
REMARK    6  A    between atoms: C_31  and  N_32
REMARK                            x       y       z     vdW  Elec       q    Type
REMARK                         _______ _______ _______ _____ _____    ______ ____
ROOT
ATOM      1  O   UNL     1      32.311 -13.405 -21.300  0.00  0.00    -0.270 OA
ATOM      2  N   UNL     1      33.523 -12.963 -23.260  0.00  0.00    -0.280 N 
ATOM      3  C   UNL     1      32.786 -12.606 -22.122  0.00  0.00    +0.249 C 
ATOM      4  H   UNL     1      33.835 -12.216 -23.819  0.00  0.00    +0.155 HD
ENDROOT
BRANCH   2   5
ATOM      5  C   UNL     1      33.876 -14.259 -23.709  0.00  0.00    +0.052 C 
ATOM      6  C   UNL     1      35.316 -16.172 -23.589  0.00  0.00    +0.048 C 
ATOM      7  C   UNL     1      34.969 -14.896 -23.146  0.00  0.00    +0.029 C 
ATOM      8  C   UNL     1      34.565 -16.793 -24.587  0.00  0.00    -0.008 C 
ATOM      9  C   UNL     1      33.120 -14.860 -24.701  0.00  0.00    +0.014 C 
ATOM     10  C   UNL     1      33.467 -16.136 -25.144  0.00  0.00    -0.002 C 
ATOM     11  C   UNL     1      34.915 -18.158 -25.080  0.00  0.00    +0.032 C 
BRANCH   6  13
ATOM     12  S   UNL     1      37.995 -18.300 -21.451  0.00  0.00    -0.059 S 
ATOM     13  N   UNL     1      36.430 -16.822 -23.014  0.00  0.00    -0.283 N 
ATOM     14  N   UNL     1      35.425 -18.484 -21.665  0.00  0.00    -0.384 NA
ATOM     15  C   UNL     1      36.478 -17.834 -22.095  0.00  0.00    +0.211 C 
ATOM     16  C   UNL     1      35.837 -19.433 -20.749  0.00  0.00    +0.124 C 
ATOM     17  C   UNL     1      37.193 -19.483 -20.503  0.00  0.00    +0.125 C 
ATOM     18  H   UNL     1      37.307 -16.498 -23.323  0.00  0.00    +0.155 HD
BRANCH  16  20
ATOM     19  N   UNL     1      32.607 -20.956 -19.722  0.00  0.00    -0.242 NA
ATOM     20  C   UNL     1      34.903 -20.306 -20.100  0.00  0.00    +0.046 C 
ATOM     21  C   UNL     1      35.338 -21.316 -19.250  0.00  0.00    +0.005 C 
ATOM     22  C   UNL     1      33.540 -20.168 -20.302  0.00  0.00    +0.101 C 
ATOM     23  C   UNL     1      34.408 -22.147 -18.635  0.00  0.00    +0.021 C 
ATOM     24  C   UNL     1      33.066 -21.928 -18.902  0.00  0.00    +0.099 C 
ENDBRANCH  16  20
ENDBRANCH   6  13
ENDBRANCH   2   5
BRANCH   3  30
ATOM     25  C   UNL     1      32.128  -8.463 -21.577  0.00  0.00    -0.043 C 
ATOM     26  C   UNL     1      32.640  -8.920 -22.784  0.00  0.00    -0.006 C 
ATOM     27  C   UNL     1      31.827  -9.344 -20.548  0.00  0.00    -0.006 C 
ATOM     28  C   UNL     1      32.856 -10.287 -22.963  0.00  0.00    +0.004 C 
ATOM     29  C   UNL     1      32.043 -10.709 -20.727  0.00  0.00    +0.004 C 
ATOM     30  C   UNL     1      32.558 -11.181 -21.935  0.00  0.00    +0.054 C 
BRANCH  25  31
ATOM     31  C   UNL     1      31.892  -6.988 -21.384  0.00  0.00    -0.050 C 
BRANCH  31  32
ATOM     32  N   UNL     1      32.128  -6.234 -22.614  0.00  0.00    +0.387 N 
ATOM     33  N   UNL     1      32.913  -3.865 -24.073  0.00  0.00    +0.383 N 
ATOM     34  C   UNL     1      31.255  -5.056 -22.680  0.00  0.00    -0.100 C 
ATOM     35  C   UNL     1      33.537  -5.834 -22.717  0.00  0.00    -0.100 C 
ATOM     36  C   UNL     1      31.504  -4.264 -23.968  0.00  0.00    -0.101 C 
ATOM     37  C   UNL     1      33.786  -5.043 -24.006  0.00  0.00    -0.101 C 
ATOM     38  C   UNL     1      33.150  -3.113 -25.304  0.00  0.00    -0.101 C 
ATOM     39  H   UNL     1      31.908  -6.842 -23.403  0.00  0.00    -0.079 HD
ATOM     40  H   UNL     1      33.134  -3.255 -23.285  0.00  0.00    -0.080 HD
ENDBRANCH  31  32
ENDBRANCH  25  31
ENDBRANCH   3  30
TORSDOF 6
ENDMDL
