MODEL 1
REMARK VINA RESULT:     -12.4      0.000      0.000
REMARK  Name = 11282283
REMARK  4 active torsions:
REMARK  status: ('A' for Active; 'I' for Inactive)
REMARK    1  A    between atoms: N_3  and  C_21
REMARK    2  A    between atoms: C_21  and  N_22
REMARK    3  A    between atoms: N_22  and  C_24
REMARK    4  A    between atoms: C_24  and  C_27
REMARK                            x       y       z     vdW  Elec       q    Type
REMARK                         _______ _______ _______ _____ _____    ______ ____
ROOT
ATOM      1  O   UNL     1      34.318  -9.808 -23.416  0.00  0.00    -0.466 OA
ATOM      2  N   UNL     1      33.285 -12.378 -22.424  0.00  0.00    -0.290 N 
ATOM      3  N   UNL     1      34.526 -14.918 -22.968  0.00  0.00    -0.288 N 
ATOM      4  N   UNL     1      31.556 -11.071 -21.416  0.00  0.00    -0.230 NA
ATOM      5  N   UNL     1      31.481  -8.640 -21.644  0.00  0.00    -0.245 NA
ATOM      6  C   UNL     1      33.182 -13.484 -21.466  0.00  0.00    +0.113 C 
ATOM      7  C   UNL     1      34.035 -12.596 -23.666  0.00  0.00    +0.113 C 
ATOM      8  C   UNL     1      34.373 -14.431 -21.605  0.00  0.00    +0.114 C 
ATOM      9  C   UNL     1      34.032 -14.075 -24.047  0.00  0.00    +0.114 C 
ATOM     10  C   UNL     1      32.681 -11.149 -22.162  0.00  0.00    +0.152 C 
ATOM     11  C   UNL     1      33.208  -9.972 -22.651  0.00  0.00    +0.258 C 
ATOM     12  C   UNL     1      32.608  -8.749 -22.389  0.00  0.00    +0.106 C 
ATOM     13  C   UNL     1      33.402  -7.766 -23.035  0.00  0.00    +0.051 C 
ATOM     14  C   UNL     1      34.439  -8.468 -23.650  0.00  0.00    +0.141 C 
ATOM     15  C   UNL     1      31.033  -9.839 -21.206  0.00  0.00    +0.251 C 
ATOM     16  C   UNL     1      33.365  -6.368 -23.170  0.00  0.00    +0.004 C 
ATOM     17  C   UNL     1      35.449  -7.866 -24.398  0.00  0.00    +0.037 C 
ATOM     18  C   UNL     1      34.369  -5.736 -23.917  0.00  0.00    +0.000 C 
ATOM     19  C   UNL     1      35.391  -6.474 -24.519  0.00  0.00    +0.003 C 
ENDROOT
BRANCH   3  21
ATOM     20  S   UNL     1      35.072 -16.787 -24.756  0.00  0.00    -0.019 S 
ATOM     21  C   UNL     1      35.110 -16.116 -23.224  0.00  0.00    +0.135 C 
BRANCH  21  22
ATOM     22  N   UNL     1      35.734 -16.755 -22.183  0.00  0.00    -0.312 N 
ATOM     23  H   UNL     1      35.647 -16.348 -21.291  0.00  0.00    +0.149 HD
BRANCH  22  24
ATOM     24  C   UNL     1      36.508 -17.978 -22.275  0.00  0.00    +0.116 C 
BRANCH  24  27
ATOM     25  O   UNL     1      32.998 -20.641 -20.047  0.00  0.00    -0.435 OA
ATOM     26  O   UNL     1      34.598 -21.836 -18.699  0.00  0.00    -0.435 OA
ATOM     27  C   UNL     1      36.030 -19.020 -21.305  0.00  0.00    +0.001 C 
ATOM     28  C   UNL     1      34.668 -19.281 -21.198  0.00  0.00    +0.038 C 
ATOM     29  C   UNL     1      36.967 -19.711 -20.525  0.00  0.00    +0.001 C 
ATOM     30  C   UNL     1      34.277 -20.248 -20.294  0.00  0.00    +0.176 C 
ATOM     31  C   UNL     1      35.191 -20.931 -19.524  0.00  0.00    +0.176 C 
ATOM     32  C   UNL     1      36.546 -20.685 -19.617  0.00  0.00    +0.040 C 
ATOM     33  C   UNL     1      33.209 -21.648 -19.036  0.00  0.00    +0.429 C 
ENDBRANCH  24  27
ENDBRANCH  22  24
ENDBRANCH  21  22
ENDBRANCH   3  21
TORSDOF 4
ENDMDL
MODEL 2
REMARK VINA RESULT:     -12.0      2.233      3.347
REMARK  Name = 11282283
REMARK  4 active torsions:
REMARK  status: ('A' for Active; 'I' for Inactive)
REMARK    1  A    between atoms: N_3  and  C_21
REMARK    2  A    between atoms: C_21  and  N_22
REMARK    3  A    between atoms: N_22  and  C_24
REMARK    4  A    between atoms: C_24  and  C_27
REMARK                            x       y       z     vdW  Elec       q    Type
REMARK                         _______ _______ _______ _____ _____    ______ ____
ROOT
ATOM      1  O   UNL     1      33.013 -12.433 -21.838  0.00  0.00    -0.466 OA
ATOM      2  N   UNL     1      34.253 -14.186 -23.850  0.00  0.00    -0.290 N 
ATOM      3  N   UNL     1      34.681 -17.007 -23.467  0.00  0.00    -0.288 N 
ATOM      4  N   UNL     1      34.419 -12.209 -25.183  0.00  0.00    -0.230 NA
ATOM      5  N   UNL     1      33.616 -10.046 -24.385  0.00  0.00    -0.245 NA
ATOM      6  C   UNL     1      34.242 -15.108 -24.990  0.00  0.00    +0.113 C 
ATOM      7  C   UNL     1      34.486 -14.734 -22.509  0.00  0.00    +0.113 C 
ATOM      8  C   UNL     1      33.839 -16.512 -24.546  0.00  0.00    +0.114 C 
ATOM      9  C   UNL     1      35.298 -16.025 -22.588  0.00  0.00    +0.114 C 
ATOM     10  C   UNL     1      34.048 -12.820 -24.035  0.00  0.00    +0.152 C 
ATOM     11  C   UNL     1      33.460 -12.043 -23.059  0.00  0.00    +0.258 C 
ATOM     12  C   UNL     1      33.255 -10.683 -23.244  0.00  0.00    +0.106 C 
ATOM     13  C   UNL     1      32.640 -10.205 -22.059  0.00  0.00    +0.051 C 
ATOM     14  C   UNL     1      32.513 -11.318 -21.228  0.00  0.00    +0.141 C 
ATOM     15  C   UNL     1      34.183 -10.879 -25.286  0.00  0.00    +0.251 C 
ATOM     16  C   UNL     1      32.176  -8.963 -21.592  0.00  0.00    +0.004 C 
ATOM     17  C   UNL     1      31.951 -11.278 -19.953  0.00  0.00    +0.037 C 
ATOM     18  C   UNL     1      31.606  -8.894 -20.314  0.00  0.00    +0.000 C 
ATOM     19  C   UNL     1      31.497 -10.032 -19.511  0.00  0.00    +0.003 C 
ENDROOT
BRANCH   3  21
ATOM     20  S   UNL     1      35.086 -19.364 -24.594  0.00  0.00    -0.019 S 
ATOM     21  C   UNL     1      34.884 -18.336 -23.289  0.00  0.00    +0.135 C 
BRANCH  21  22
ATOM     22  N   UNL     1      34.921 -18.808 -22.001  0.00  0.00    -0.312 N 
ATOM     23  H   UNL     1      34.085 -18.761 -21.484  0.00  0.00    +0.149 HD
BRANCH  22  24
ATOM     24  C   UNL     1      36.077 -19.371 -21.332  0.00  0.00    +0.116 C 
BRANCH  24  27
ATOM     25  O   UNL     1      32.798 -21.993 -18.734  0.00  0.00    -0.435 OA
ATOM     26  O   UNL     1      34.486 -22.845 -17.241  0.00  0.00    -0.435 OA
ATOM     27  C   UNL     1      35.685 -20.306 -20.224  0.00  0.00    +0.001 C 
ATOM     28  C   UNL     1      34.350 -20.668 -20.073  0.00  0.00    +0.038 C 
ATOM     29  C   UNL     1      36.673 -20.797 -19.359  0.00  0.00    +0.001 C 
ATOM     30  C   UNL     1      34.039 -21.529 -19.041  0.00  0.00    +0.176 C 
ATOM     31  C   UNL     1      35.004 -22.015 -18.188  0.00  0.00    +0.176 C 
ATOM     32  C   UNL     1      36.333 -21.667 -18.322  0.00  0.00    +0.040 C 
ATOM     33  C   UNL     1      33.089 -22.827 -17.594  0.00  0.00    +0.429 C 
ENDBRANCH  24  27
ENDBRANCH  22  24
ENDBRANCH  21  22
ENDBRANCH   3  21
TORSDOF 4
ENDMDL
MODEL 3
REMARK VINA RESULT:     -10.9      5.143     12.448
REMARK  Name = 11282283
REMARK  4 active torsions:
REMARK  status: ('A' for Active; 'I' for Inactive)
REMARK    1  A    between atoms: N_3  and  C_21
REMARK    2  A    between atoms: C_21  and  N_22
REMARK    3  A    between atoms: N_22  and  C_24
REMARK    4  A    between atoms: C_24  and  C_27
REMARK                            x       y       z     vdW  Elec       q    Type
REMARK                         _______ _______ _______ _____ _____    ______ ____
ROOT
ATOM      1  O   UNL     1      33.269 -22.613 -16.252  0.00  0.00    -0.466 OA
ATOM      2  N   UNL     1      35.869 -22.075 -17.522  0.00  0.00    -0.290 N 
ATOM      3  N   UNL     1      36.204 -20.378 -19.823  0.00  0.00    -0.288 N 
ATOM      4  N   UNL     1      36.767 -23.513 -15.837  0.00  0.00    -0.230 NA
ATOM      5  N   UNL     1      35.349 -24.563 -14.149  0.00  0.00    -0.245 NA
ATOM      6  C   UNL     1      37.113 -21.327 -17.727  0.00  0.00    +0.113 C 
ATOM      7  C   UNL     1      34.798 -21.938 -18.516  0.00  0.00    +0.113 C 
ATOM      8  C   UNL     1      36.858 -20.072 -18.559  0.00  0.00    +0.114 C 
ATOM      9  C   UNL     1      35.374 -21.572 -19.882  0.00  0.00    +0.114 C 
ATOM     10  C   UNL     1      35.707 -22.900 -16.409  0.00  0.00    +0.152 C 
ATOM     11  C   UNL     1      34.465 -23.117 -15.852  0.00  0.00    +0.258 C 
ATOM     12  C   UNL     1      34.304 -23.936 -14.743  0.00  0.00    +0.106 C 
ATOM     13  C   UNL     1      32.918 -23.935 -14.441  0.00  0.00    +0.051 C 
ATOM     14  C   UNL     1      32.327 -23.108 -15.397  0.00  0.00    +0.141 C 
ATOM     15  C   UNL     1      36.526 -24.295 -14.758  0.00  0.00    +0.251 C 
ATOM     16  C   UNL     1      32.095 -24.536 -13.474  0.00  0.00    +0.004 C 
ATOM     17  C   UNL     1      30.961 -22.837 -15.454  0.00  0.00    +0.037 C 
ATOM     18  C   UNL     1      30.718 -24.281 -13.507  0.00  0.00    +0.000 C 
ATOM     19  C   UNL     1      30.163 -23.446 -14.481  0.00  0.00    +0.003 C 
ENDROOT
BRANCH   3  21
ATOM     20  S   UNL     1      37.810 -18.785 -21.191  0.00  0.00    -0.019 S 
ATOM     21  C   UNL     1      36.365 -19.579 -20.907  0.00  0.00    +0.135 C 
BRANCH  21  22
ATOM     22  N   UNL     1      35.301 -19.446 -21.764  0.00  0.00    -0.312 N 
ATOM     23  H   UNL     1      34.404 -19.597 -21.389  0.00  0.00    +0.149 HD
BRANCH  22  24
ATOM     24  C   UNL     1      35.377 -19.104 -23.171  0.00  0.00    +0.116 C 
BRANCH  24  27
ATOM     25  O   UNL     1      33.487 -15.416 -25.855  0.00  0.00    -0.435 OA
ATOM     26  O   UNL     1      34.074 -13.760 -24.206  0.00  0.00    -0.435 OA
ATOM     27  C   UNL     1      35.042 -17.661 -23.416  0.00  0.00    +0.001 C 
ATOM     28  C   UNL     1      34.396 -17.299 -24.594  0.00  0.00    +0.038 C 
ATOM     29  C   UNL     1      35.387 -16.704 -22.452  0.00  0.00    +0.001 C 
ATOM     30  C   UNL     1      34.109 -15.961 -24.774  0.00  0.00    +0.176 C 
ATOM     31  C   UNL     1      34.444 -15.015 -23.832  0.00  0.00    +0.176 C 
ATOM     32  C   UNL     1      35.085 -15.356 -22.658  0.00  0.00    +0.040 C 
ATOM     33  C   UNL     1      33.467 -14.021 -25.487  0.00  0.00    +0.429 C 
ENDBRANCH  24  27
ENDBRANCH  22  24
ENDBRANCH  21  22
ENDBRANCH   3  21
TORSDOF 4
ENDMDL
MODEL 4
REMARK VINA RESULT:     -10.6      8.554     14.402
REMARK  Name = 11282283
REMARK  4 active torsions:
REMARK  status: ('A' for Active; 'I' for Inactive)
REMARK    1  A    between atoms: N_3  and  C_21
REMARK    2  A    between atoms: C_21  and  N_22
REMARK    3  A    between atoms: N_22  and  C_24
REMARK    4  A    between atoms: C_24  and  C_27
REMARK                            x       y       z     vdW  Elec       q    Type
REMARK                         _______ _______ _______ _____ _____    ______ ____
ROOT
ATOM      1  O   UNL     1      37.212 -24.806 -14.485  0.00  0.00    -0.466 OA
ATOM      2  N   UNL     1      34.544 -23.831 -13.717  0.00  0.00    -0.290 N 
ATOM      3  N   UNL     1      32.529 -23.025 -15.608  0.00  0.00    -0.288 N 
ATOM      4  N   UNL     1      35.286 -24.165 -11.469  0.00  0.00    -0.230 NA
ATOM      5  N   UNL     1      37.518 -25.014 -10.962  0.00  0.00    -0.245 NA
ATOM      6  C   UNL     1      33.119 -23.978 -13.403  0.00  0.00    +0.113 C 
ATOM      7  C   UNL     1      34.919 -23.264 -15.017  0.00  0.00    +0.113 C 
ATOM      8  C   UNL     1      32.297 -24.124 -14.683  0.00  0.00    +0.114 C 
ATOM      9  C   UNL     1      33.816 -22.349 -15.545  0.00  0.00    +0.114 C 
ATOM     10  C   UNL     1      35.520 -24.218 -12.799  0.00  0.00    +0.152 C 
ATOM     11  C   UNL     1      36.755 -24.670 -13.214  0.00  0.00    +0.258 C 
ATOM     12  C   UNL     1      37.726 -25.057 -12.301  0.00  0.00    +0.106 C 
ATOM     13  C   UNL     1      38.854 -25.459 -13.062  0.00  0.00    +0.051 C 
ATOM     14  C   UNL     1      38.487 -25.286 -14.396  0.00  0.00    +0.141 C 
ATOM     15  C   UNL     1      36.285 -24.561 -10.645  0.00  0.00    +0.251 C 
ATOM     16  C   UNL     1      40.141 -25.947 -12.778  0.00  0.00    +0.004 C 
ATOM     17  C   UNL     1      39.322 -25.570 -15.476  0.00  0.00    +0.037 C 
ATOM     18  C   UNL     1      41.001 -26.241 -13.844  0.00  0.00    +0.000 C 
ATOM     19  C   UNL     1      40.596 -26.054 -15.169  0.00  0.00    +0.003 C 
ENDROOT
BRANCH   3  21
ATOM     20  S   UNL     1      29.955 -22.670 -16.093  0.00  0.00    -0.019 S 
ATOM     21  C   UNL     1      31.578 -22.645 -16.498  0.00  0.00    +0.135 C 
BRANCH  21  22
ATOM     22  N   UNL     1      31.994 -22.238 -17.740  0.00  0.00    -0.312 N 
ATOM     23  H   UNL     1      31.411 -21.610 -18.223  0.00  0.00    +0.149 HD
BRANCH  22  24
ATOM     24  C   UNL     1      33.215 -22.646 -18.407  0.00  0.00    +0.116 C 
BRANCH  24  27
ATOM     25  O   UNL     1      36.940 -19.925 -20.168  0.00  0.00    -0.435 OA
ATOM     26  O   UNL     1      35.470 -18.579 -21.521  0.00  0.00    -0.435 OA
ATOM     27  C   UNL     1      33.787 -21.547 -19.255  0.00  0.00    +0.001 C 
ATOM     28  C   UNL     1      35.160 -21.319 -19.248  0.00  0.00    +0.038 C 
ATOM     29  C   UNL     1      32.925 -20.768 -20.040  0.00  0.00    +0.001 C 
ATOM     30  C   UNL     1      35.637 -20.298 -20.043  0.00  0.00    +0.176 C 
ATOM     31  C   UNL     1      34.798 -19.529 -20.817  0.00  0.00    +0.176 C 
ATOM     32  C   UNL     1      33.434 -19.740 -20.836  0.00  0.00    +0.040 C 
ATOM     33  C   UNL     1      36.826 -18.836 -21.106  0.00  0.00    +0.429 C 
ENDBRANCH  24  27
ENDBRANCH  22  24
ENDBRANCH  21  22
ENDBRANCH   3  21
TORSDOF 4
ENDMDL
MODEL 5
REMARK VINA RESULT:     -10.4      3.274     11.267
REMARK  Name = 11282283
REMARK  4 active torsions:
REMARK  status: ('A' for Active; 'I' for Inactive)
REMARK    1  A    between atoms: N_3  and  C_21
REMARK    2  A    between atoms: C_21  and  N_22
REMARK    3  A    between atoms: N_22  and  C_24
REMARK    4  A    between atoms: C_24  and  C_27
REMARK                            x       y       z     vdW  Elec       q    Type
REMARK                         _______ _______ _______ _____ _____    ______ ____
ROOT
ATOM      1  O   UNL     1      35.055 -15.573 -23.024  0.00  0.00    -0.466 OA
ATOM      2  N   UNL     1      33.789 -13.435 -24.600  0.00  0.00    -0.290 N 
ATOM      3  N   UNL     1      34.134 -10.629 -24.057  0.00  0.00    -0.288 N 
ATOM      4  N   UNL     1      32.841 -15.212 -25.886  0.00  0.00    -0.230 NA
ATOM      5  N   UNL     1      33.296 -17.556 -25.374  0.00  0.00    -0.245 NA
ATOM      6  C   UNL     1      33.725 -12.447 -25.682  0.00  0.00    +0.113 C 
ATOM      7  C   UNL     1      34.034 -12.959 -23.234  0.00  0.00    +0.113 C 
ATOM      8  C   UNL     1      34.541 -11.205 -25.329  0.00  0.00    +0.114 C 
ATOM      9  C   UNL     1      33.548 -11.521 -23.067  0.00  0.00    +0.114 C 
ATOM     10  C   UNL     1      33.618 -14.793 -24.863  0.00  0.00    +0.152 C 
ATOM     11  C   UNL     1      34.237 -15.755 -24.093  0.00  0.00    +0.258 C 
ATOM     12  C   UNL     1      34.069 -17.108 -24.355  0.00  0.00    +0.106 C 
ATOM     13  C   UNL     1      34.835 -17.803 -23.384  0.00  0.00    +0.051 C 
ATOM     14  C   UNL     1      35.420 -16.815 -22.592  0.00  0.00    +0.141 C 
ATOM     15  C   UNL     1      32.729 -16.549 -26.075  0.00  0.00    +0.251 C 
ATOM     16  C   UNL     1      35.101 -19.150 -23.084  0.00  0.00    +0.004 C 
ATOM     17  C   UNL     1      36.260 -17.081 -21.511  0.00  0.00    +0.037 C 
ATOM     18  C   UNL     1      35.941 -19.445 -22.002  0.00  0.00    +0.000 C 
ATOM     19  C   UNL     1      36.509 -18.428 -21.231  0.00  0.00    +0.003 C 
ENDROOT
BRANCH   3  21
ATOM     20  S   UNL     1      35.656  -8.484 -24.324  0.00  0.00    -0.019 S 
ATOM     21  C   UNL     1      34.296  -9.306 -23.802  0.00  0.00    +0.135 C 
BRANCH  21  22
ATOM     22  N   UNL     1      33.303  -8.665 -23.104  0.00  0.00    -0.312 N 
ATOM     23  H   UNL     1      32.377  -8.825 -23.396  0.00  0.00    +0.149 HD
BRANCH  22  24
ATOM     24  C   UNL     1      33.493  -7.776 -21.974  0.00  0.00    +0.116 C 
BRANCH  24  27
ATOM     25  O   UNL     1      32.853  -3.348 -24.061  0.00  0.00    -0.435 OA
ATOM     26  O   UNL     1      30.887  -2.884 -22.748  0.00  0.00    -0.435 OA
ATOM     27  C   UNL     1      32.770  -6.474 -22.157  0.00  0.00    +0.001 C 
ATOM     28  C   UNL     1      33.244  -5.550 -23.083  0.00  0.00    +0.038 C 
ATOM     29  C   UNL     1      31.626  -6.211 -21.389  0.00  0.00    +0.001 C 
ATOM     30  C   UNL     1      32.545  -4.368 -23.215  0.00  0.00    +0.176 C 
ATOM     31  C   UNL     1      31.422  -4.103 -22.465  0.00  0.00    +0.176 C 
ATOM     32  C   UNL     1      30.937  -5.007 -21.542  0.00  0.00    +0.040 C 
ATOM     33  C   UNL     1      31.798  -2.412 -23.761  0.00  0.00    +0.429 C 
ENDBRANCH  24  27
ENDBRANCH  22  24
ENDBRANCH  21  22
ENDBRANCH   3  21
TORSDOF 4
ENDMDL
MODEL 6
REMARK VINA RESULT:     -10.3      4.362      6.770
REMARK  Name = 11282283
REMARK  4 active torsions:
REMARK  status: ('A' for Active; 'I' for Inactive)
REMARK    1  A    between atoms: N_3  and  C_21
REMARK    2  A    between atoms: C_21  and  N_22
REMARK    3  A    between atoms: N_22  and  C_24
REMARK    4  A    between atoms: C_24  and  C_27
REMARK                            x       y       z     vdW  Elec       q    Type
REMARK                         _______ _______ _______ _____ _____    ______ ____
ROOT
ATOM      1  O   UNL     1      33.961  -5.126 -24.892  0.00  0.00    -0.466 OA
ATOM      2  N   UNL     1      32.086  -5.816 -22.732  0.00  0.00    -0.290 N 
ATOM      3  N   UNL     1      32.037  -8.375 -21.414  0.00  0.00    -0.288 N 
ATOM      4  N   UNL     1      31.242  -3.600 -23.023  0.00  0.00    -0.230 NA
ATOM      5  N   UNL     1      32.176  -2.073 -24.684  0.00  0.00    -0.245 NA
ATOM      6  C   UNL     1      31.661  -5.932 -21.333  0.00  0.00    +0.113 C 
ATOM      7  C   UNL     1      32.487  -7.035 -23.444  0.00  0.00    +0.113 C 
ATOM      8  C   UNL     1      32.302  -7.151 -20.673  0.00  0.00    +0.114 C 
ATOM      9  C   UNL     1      31.800  -8.261 -22.845  0.00  0.00    +0.114 C 
ATOM     10  C   UNL     1      32.107  -4.578 -23.371  0.00  0.00    +0.152 C 
ATOM     11  C   UNL     1      33.009  -4.305 -24.378  0.00  0.00    +0.258 C 
ATOM     12  C   UNL     1      33.031  -3.072 -25.014  0.00  0.00    +0.106 C 
ATOM     13  C   UNL     1      34.066  -3.138 -25.982  0.00  0.00    +0.051 C 
ATOM     14  C   UNL     1      34.606  -4.419 -25.866  0.00  0.00    +0.141 C 
ATOM     15  C   UNL     1      31.329  -2.424 -23.691  0.00  0.00    +0.251 C 
ATOM     16  C   UNL     1      34.608  -2.265 -26.940  0.00  0.00    +0.004 C 
ATOM     17  C   UNL     1      35.658  -4.893 -26.647  0.00  0.00    +0.037 C 
ATOM     18  C   UNL     1      35.667  -2.716 -27.740  0.00  0.00    +0.000 C 
ATOM     19  C   UNL     1      36.181  -4.007 -27.594  0.00  0.00    +0.003 C 
ENDROOT
BRANCH   3  21
ATOM     20  S   UNL     1      31.932  -9.692 -19.124  0.00  0.00    -0.019 S 
ATOM     21  C   UNL     1      32.013  -9.581 -20.792  0.00  0.00    +0.135 C 
BRANCH  21  22
ATOM     22  N   UNL     1      32.054 -10.705 -21.577  0.00  0.00    -0.312 N 
ATOM     23  H   UNL     1      32.284 -10.578 -22.526  0.00  0.00    +0.149 HD
BRANCH  22  24
ATOM     24  C   UNL     1      31.791 -12.061 -21.139  0.00  0.00    +0.116 C 
BRANCH  24  27
ATOM     25  O   UNL     1      34.202 -14.540 -24.663  0.00  0.00    -0.435 OA
ATOM     26  O   UNL     1      35.655 -15.619 -23.073  0.00  0.00    -0.435 OA
ATOM     27  C   UNL     1      32.839 -13.021 -21.624  0.00  0.00    +0.001 C 
ATOM     28  C   UNL     1      32.957 -13.276 -22.986  0.00  0.00    +0.038 C 
ATOM     29  C   UNL     1      33.681 -13.645 -20.692  0.00  0.00    +0.001 C 
ATOM     30  C   UNL     1      33.935 -14.164 -23.383  0.00  0.00    +0.176 C 
ATOM     31  C   UNL     1      34.765 -14.780 -22.475  0.00  0.00    +0.176 C 
ATOM     32  C   UNL     1      34.663 -14.541 -21.119  0.00  0.00    +0.040 C 
ATOM     33  C   UNL     1      35.293 -15.461 -24.459  0.00  0.00    +0.429 C 
ENDBRANCH  24  27
ENDBRANCH  22  24
ENDBRANCH  21  22
ENDBRANCH   3  21
TORSDOF 4
ENDMDL
MODEL 7
REMARK VINA RESULT:     -10.2      3.793     11.430
REMARK  Name = 11282283
REMARK  4 active torsions:
REMARK  status: ('A' for Active; 'I' for Inactive)
REMARK    1  A    between atoms: N_3  and  C_21
REMARK    2  A    between atoms: C_21  and  N_22
REMARK    3  A    between atoms: N_22  and  C_24
REMARK    4  A    between atoms: C_24  and  C_27
REMARK                            x       y       z     vdW  Elec       q    Type
REMARK                         _______ _______ _______ _____ _____    ______ ____
ROOT
ATOM      1  O   UNL     1      34.349 -13.497 -22.639  0.00  0.00    -0.466 OA
ATOM      2  N   UNL     1      33.527 -10.945 -23.850  0.00  0.00    -0.290 N 
ATOM      3  N   UNL     1      33.243  -8.491 -22.372  0.00  0.00    -0.288 N 
ATOM      4  N   UNL     1      33.414 -12.176 -25.895  0.00  0.00    -0.230 NA
ATOM      5  N   UNL     1      33.947 -14.558 -25.995  0.00  0.00    -0.245 NA
ATOM      6  C   UNL     1      33.760  -9.648 -24.495  0.00  0.00    +0.113 C 
ATOM      7  C   UNL     1      33.146 -10.962 -22.433  0.00  0.00    +0.113 C 
ATOM      8  C   UNL     1      34.192  -8.604 -23.468  0.00  0.00    +0.114 C 
ATOM      9  C   UNL     1      32.443  -9.662 -22.047  0.00  0.00    +0.114 C 
ATOM     10  C   UNL     1      33.661 -12.132 -24.566  0.00  0.00    +0.152 C 
ATOM     11  C   UNL     1      34.052 -13.302 -23.949  0.00  0.00    +0.258 C 
ATOM     12  C   UNL     1      34.187 -14.485 -24.663  0.00  0.00    +0.106 C 
ATOM     13  C   UNL     1      34.596 -15.472 -23.729  0.00  0.00    +0.051 C 
ATOM     14  C   UNL     1      34.681 -14.814 -22.502  0.00  0.00    +0.141 C 
ATOM     15  C   UNL     1      33.571 -13.369 -26.518  0.00  0.00    +0.251 C 
ATOM     16  C   UNL     1      34.903 -16.842 -23.779  0.00  0.00    +0.004 C 
ATOM     17  C   UNL     1      35.055 -15.435 -21.311  0.00  0.00    +0.037 C 
ATOM     18  C   UNL     1      35.282 -17.491 -22.596  0.00  0.00    +0.000 C 
ATOM     19  C   UNL     1      35.355 -16.798 -21.386  0.00  0.00    +0.003 C 
ENDROOT
BRANCH   3  21
ATOM     20  S   UNL     1      32.326  -7.298 -20.198  0.00  0.00    -0.019 S 
ATOM     21  C   UNL     1      33.108  -7.333 -21.677  0.00  0.00    +0.135 C 
BRANCH  21  22
ATOM     22  N   UNL     1      33.638  -6.194 -22.227  0.00  0.00    -0.312 N 
ATOM     23  H   UNL     1      34.609  -6.063 -22.134  0.00  0.00    +0.149 HD
BRANCH  22  24
ATOM     24  C   UNL     1      32.900  -5.166 -22.935  0.00  0.00    +0.116 C 
BRANCH  24  27
ATOM     25  O   UNL     1      32.819  -3.138 -27.435  0.00  0.00    -0.435 OA
ATOM     26  O   UNL     1      34.981  -4.036 -28.006  0.00  0.00    -0.435 OA
ATOM     27  C   UNL     1      33.488  -4.882 -24.286  0.00  0.00    +0.001 C 
ATOM     28  C   UNL     1      32.776  -4.103 -25.193  0.00  0.00    +0.038 C 
ATOM     29  C   UNL     1      34.746  -5.407 -24.611  0.00  0.00    +0.001 C 
ATOM     30  C   UNL     1      33.358  -3.869 -26.422  0.00  0.00    +0.176 C 
ATOM     31  C   UNL     1      34.593  -4.382 -26.748  0.00  0.00    +0.176 C 
ATOM     32  C   UNL     1      35.313  -5.157 -25.862  0.00  0.00    +0.040 C 
ATOM     33  C   UNL     1      33.853  -3.247 -28.435  0.00  0.00    +0.429 C 
ENDBRANCH  24  27
ENDBRANCH  22  24
ENDBRANCH  21  22
ENDBRANCH   3  21
TORSDOF 4
ENDMDL
MODEL 8
REMARK VINA RESULT:     -10.1      3.157     10.767
REMARK  Name = 11282283
REMARK  4 active torsions:
REMARK  status: ('A' for Active; 'I' for Inactive)
REMARK    1  A    between atoms: N_3  and  C_21
REMARK    2  A    between atoms: C_21  and  N_22
REMARK    3  A    between atoms: N_22  and  C_24
REMARK    4  A    between atoms: C_24  and  C_27
REMARK                            x       y       z     vdW  Elec       q    Type
REMARK                         _______ _______ _______ _____ _____    ______ ____
ROOT
ATOM      1  O   UNL     1      34.552 -15.090 -22.090  0.00  0.00    -0.466 OA
ATOM      2  N   UNL     1      33.149 -12.668 -22.996  0.00  0.00    -0.290 N 
ATOM      3  N   UNL     1      32.418 -10.497 -21.254  0.00  0.00    -0.288 N 
ATOM      4  N   UNL     1      33.206 -13.682 -25.160  0.00  0.00    -0.230 NA
ATOM      5  N   UNL     1      34.229 -15.869 -25.531  0.00  0.00    -0.245 NA
ATOM      6  C   UNL     1      33.070 -11.294 -23.502  0.00  0.00    +0.113 C 
ATOM      7  C   UNL     1      32.847 -12.911 -21.581  0.00  0.00    +0.113 C 
ATOM      8  C   UNL     1      33.317 -10.289 -22.379  0.00  0.00    +0.114 C 
ATOM      9  C   UNL     1      31.902 -11.840 -21.039  0.00  0.00    +0.114 C 
ATOM     10  C   UNL     1      33.500 -13.720 -23.841  0.00  0.00    +0.152 C 
ATOM     11  C   UNL     1      34.159 -14.834 -23.364  0.00  0.00    +0.258 C 
ATOM     12  C   UNL     1      34.510 -15.880 -24.205  0.00  0.00    +0.106 C 
ATOM     13  C   UNL     1      35.164 -16.844 -23.394  0.00  0.00    +0.051 C 
ATOM     14  C   UNL     1      35.164 -16.311 -22.105  0.00  0.00    +0.141 C 
ATOM     15  C   UNL     1      33.583 -14.744 -25.913  0.00  0.00    +0.251 C 
ATOM     16  C   UNL     1      35.753 -18.103 -23.600  0.00  0.00    +0.004 C 
ATOM     17  C   UNL     1      35.717 -16.953 -20.998  0.00  0.00    +0.037 C 
ATOM     18  C   UNL     1      36.317 -18.771 -22.504  0.00  0.00    +0.000 C 
ATOM     19  C   UNL     1      36.297 -18.204 -21.228  0.00  0.00    +0.003 C 
ENDROOT
BRANCH   3  21
ATOM     20  S   UNL     1      31.829  -9.719 -18.797  0.00  0.00    -0.019 S 
ATOM     21  C   UNL     1      32.072  -9.472 -20.434  0.00  0.00    +0.135 C 
BRANCH  21  22
ATOM     22  N   UNL     1      31.932  -8.227 -20.994  0.00  0.00    -0.312 N 
ATOM     23  H   UNL     1      31.222  -8.117 -21.666  0.00  0.00    +0.149 HD
BRANCH  22  24
ATOM     24  C   UNL     1      32.733  -7.059 -20.685  0.00  0.00    +0.116 C 
BRANCH  24  27
ATOM     25  O   UNL     1      35.457  -6.292 -24.731  0.00  0.00    -0.435 OA
ATOM     26  O   UNL     1      34.238  -4.298 -25.315  0.00  0.00    -0.435 OA
ATOM     27  C   UNL     1      33.110  -6.294 -21.921  0.00  0.00    +0.001 C 
ATOM     28  C   UNL     1      34.160  -6.748 -22.713  0.00  0.00    +0.038 C 
ATOM     29  C   UNL     1      32.396  -5.135 -22.254  0.00  0.00    +0.001 C 
ATOM     30  C   UNL     1      34.469  -6.011 -23.838  0.00  0.00    +0.176 C 
ATOM     31  C   UNL     1      33.773  -4.872 -24.172  0.00  0.00    +0.176 C 
ATOM     32  C   UNL     1      32.729  -4.407 -23.398  0.00  0.00    +0.040 C 
ATOM     33  C   UNL     1      35.304  -5.203 -25.664  0.00  0.00    +0.429 C 
ENDBRANCH  24  27
ENDBRANCH  22  24
ENDBRANCH  21  22
ENDBRANCH   3  21
TORSDOF 4
ENDMDL
MODEL 9
REMARK VINA RESULT:     -10.1      5.899     13.342
REMARK  Name = 11282283
REMARK  4 active torsions:
REMARK  status: ('A' for Active; 'I' for Inactive)
REMARK    1  A    between atoms: N_3  and  C_21
REMARK    2  A    between atoms: C_21  and  N_22
REMARK    3  A    between atoms: N_22  and  C_24
REMARK    4  A    between atoms: C_24  and  C_27
REMARK                            x       y       z     vdW  Elec       q    Type
REMARK                         _______ _______ _______ _____ _____    ______ ____
ROOT
ATOM      1  O   UNL     1      37.637 -24.008 -15.573  0.00  0.00    -0.466 OA
ATOM      2  N   UNL     1      35.101 -22.733 -16.348  0.00  0.00    -0.290 N 
ATOM      3  N   UNL     1      34.688 -21.394 -18.862  0.00  0.00    -0.288 N 
ATOM      4  N   UNL     1      34.311 -23.456 -14.211  0.00  0.00    -0.230 NA
ATOM      5  N   UNL     1      35.735 -24.700 -12.665  0.00  0.00    -0.245 NA
ATOM      6  C   UNL     1      33.773 -22.694 -16.968  0.00  0.00    +0.113 C 
ATOM      7  C   UNL     1      36.215 -22.073 -17.039  0.00  0.00    +0.113 C 
ATOM      8  C   UNL     1      33.888 -22.549 -18.484  0.00  0.00    +0.114 C 
ATOM      9  C   UNL     1      35.705 -20.939 -17.926  0.00  0.00    +0.114 C 
ATOM     10  C   UNL     1      35.301 -23.378 -15.129  0.00  0.00    +0.152 C 
ATOM     11  C   UNL     1      36.511 -23.962 -14.816  0.00  0.00    +0.258 C 
ATOM     12  C   UNL     1      36.709 -24.606 -13.603  0.00  0.00    +0.106 C 
ATOM     13  C   UNL     1      38.046 -25.081 -13.615  0.00  0.00    +0.051 C 
ATOM     14  C   UNL     1      38.571 -24.689 -14.846  0.00  0.00    +0.141 C 
ATOM     15  C   UNL     1      34.585 -24.102 -13.053  0.00  0.00    +0.251 C 
ATOM     16  C   UNL     1      38.871 -25.796 -12.730  0.00  0.00    +0.004 C 
ATOM     17  C   UNL     1      39.875 -24.962 -15.258  0.00  0.00    +0.037 C 
ATOM     18  C   UNL     1      40.186 -26.085 -13.119  0.00  0.00    +0.000 C 
ATOM     19  C   UNL     1      40.676 -25.674 -14.361  0.00  0.00    +0.003 C 
ENDROOT
BRANCH   3  21
ATOM     20  S   UNL     1      32.968 -20.245 -20.509  0.00  0.00    -0.019 S 
ATOM     21  C   UNL     1      34.491 -20.762 -20.047  0.00  0.00    +0.135 C 
BRANCH  21  22
ATOM     22  N   UNL     1      35.584 -20.560 -20.851  0.00  0.00    -0.312 N 
ATOM     23  H   UNL     1      35.933 -21.343 -21.336  0.00  0.00    +0.149 HD
BRANCH  22  24
ATOM     24  C   UNL     1      36.273 -19.301 -21.054  0.00  0.00    +0.116 C 
BRANCH  24  27
ATOM     25  O   UNL     1      34.970 -15.130 -23.353  0.00  0.00    -0.435 OA
ATOM     26  O   UNL     1      34.174 -16.312 -25.296  0.00  0.00    -0.435 OA
ATOM     27  C   UNL     1      35.704 -18.530 -22.210  0.00  0.00    +0.001 C 
ATOM     28  C   UNL     1      35.644 -17.141 -22.145  0.00  0.00    +0.038 C 
ATOM     29  C   UNL     1      35.243 -19.225 -23.337  0.00  0.00    +0.001 C 
ATOM     30  C   UNL     1      35.113 -16.478 -23.232  0.00  0.00    +0.176 C 
ATOM     31  C   UNL     1      34.659 -17.153 -24.341  0.00  0.00    +0.176 C 
ATOM     32  C   UNL     1      34.710 -18.530 -24.424  0.00  0.00    +0.040 C 
ATOM     33  C   UNL     1      34.375 -15.032 -24.663  0.00  0.00    +0.429 C 
ENDBRANCH  24  27
ENDBRANCH  22  24
ENDBRANCH  21  22
ENDBRANCH   3  21
TORSDOF 4
ENDMDL
