MODEL 1
REMARK VINA RESULT:     -11.4      0.000      0.000
REMARK  Name = 24779675
REMARK  4 active torsions:
REMARK  status: ('A' for Active; 'I' for Inactive)
REMARK    1  A    between atoms: N_1  and  C_22
REMARK    2  A    between atoms: N_5  and  C_14
REMARK    3  A    between atoms: C_10  and  C_21
REMARK    4  A    between atoms: C_22  and  C_23
REMARK                            x       y       z     vdW  Elec       q    Type
REMARK                         _______ _______ _______ _____ _____    ______ ____
ROOT
ATOM      1  N   UNL     1      34.308 -22.553 -17.820  0.00  0.00    -0.259 N 
ATOM      2  N   UNL     1      32.549 -22.785 -16.359  0.00  0.00    -0.314 NA
ATOM      3  N   UNL     1      34.698 -23.664 -15.799  0.00  0.00    -0.295 NA
ATOM      4  N   UNL     1      32.959 -23.904 -14.330  0.00  0.00    -0.123 N 
ATOM      5  N   UNL     1      35.070 -24.785 -13.743  0.00  0.00    -0.274 N 
ATOM      6  N   UNL     1      32.396 -24.316 -13.181  0.00  0.00    -0.170 NA
ATOM      7  C   UNL     1      33.815 -22.998 -16.644  0.00  0.00    +0.203 C 
ATOM      8  C   UNL     1      32.104 -23.249 -15.169  0.00  0.00    +0.219 C 
ATOM      9  C   UNL     1      34.290 -24.119 -14.649  0.00  0.00    +0.279 C 
ATOM     10  C   UNL     1      30.892 -23.230 -14.517  0.00  0.00    +0.203 C 
ATOM     11  C   UNL     1      31.132 -23.900 -13.301  0.00  0.00    +0.116 C 
ATOM     12  H   UNL     1      35.257 -22.718 -18.021  0.00  0.00    +0.160 HD
ATOM     13  H   UNL     1      34.629 -25.074 -12.912  0.00  0.00    +0.156 HD
ENDROOT
BRANCH   5  14
ATOM     14  C   UNL     1      36.424 -25.099 -13.873  0.00  0.00    +0.051 C 
ATOM     15  C   UNL     1      37.382 -24.350 -13.188  0.00  0.00    +0.015 C 
ATOM     16  C   UNL     1      36.819 -26.160 -14.686  0.00  0.00    +0.015 C 
ATOM     17  C   UNL     1      38.735 -24.662 -13.318  0.00  0.00    +0.001 C 
ATOM     18  C   UNL     1      38.173 -26.473 -14.816  0.00  0.00    +0.001 C 
ATOM     19  C   UNL     1      39.130 -25.724 -14.132  0.00  0.00    +0.000 C 
ENDBRANCH   5  14
BRANCH  10  21
ATOM     20  N   UNL     1      28.693 -22.187 -15.376  0.00  0.00    -0.195 NA
ATOM     21  C   UNL     1      29.681 -22.657 -14.990  0.00  0.00    +0.087 C 
ENDBRANCH  10  21
BRANCH   1  22
ATOM     22  C   UNL     1      33.514 -21.850 -18.792  0.00  0.00    +0.099 C 
BRANCH  22  23
ATOM     23  C   UNL     1      34.421 -21.269 -19.874  0.00  0.00    +0.020 C 
ATOM     24  C   UNL     1      33.768 -20.043 -20.528  0.00  0.00    +0.002 C 
ATOM     25  C   UNL     1      35.796 -20.910 -19.294  0.00  0.00    +0.002 C 
ATOM     26  C   UNL     1      34.680 -19.411 -21.578  0.00  0.00    +0.000 C 
ATOM     27  C   UNL     1      36.704 -20.277 -20.346  0.00  0.00    +0.000 C 
ATOM     28  C   UNL     1      36.048 -19.064 -21.000  0.00  0.00    +0.000 C 
ENDBRANCH  22  23
ENDBRANCH   1  22
TORSDOF 4
ENDMDL
MODEL 2
REMARK VINA RESULT:     -11.4      0.777      1.585
REMARK  Name = 24779675
REMARK  4 active torsions:
REMARK  status: ('A' for Active; 'I' for Inactive)
REMARK    1  A    between atoms: N_1  and  C_22
REMARK    2  A    between atoms: N_5  and  C_14
REMARK    3  A    between atoms: C_10  and  C_21
REMARK    4  A    between atoms: C_22  and  C_23
REMARK                            x       y       z     vdW  Elec       q    Type
REMARK                         _______ _______ _______ _____ _____    ______ ____
ROOT
ATOM      1  N   UNL     1      34.513 -22.358 -18.367  0.00  0.00    -0.259 N 
ATOM      2  N   UNL     1      32.570 -22.617 -17.168  0.00  0.00    -0.314 NA
ATOM      3  N   UNL     1      34.623 -23.507 -16.333  0.00  0.00    -0.295 NA
ATOM      4  N   UNL     1      32.698 -23.774 -15.123  0.00  0.00    -0.123 N 
ATOM      5  N   UNL     1      34.710 -24.667 -14.267  0.00  0.00    -0.274 N 
ATOM      6  N   UNL     1      31.983 -24.207 -14.070  0.00  0.00    -0.170 NA
ATOM      7  C   UNL     1      33.864 -22.824 -17.280  0.00  0.00    +0.203 C 
ATOM      8  C   UNL     1      31.966 -23.103 -16.059  0.00  0.00    +0.219 C 
ATOM      9  C   UNL     1      34.061 -23.983 -15.260  0.00  0.00    +0.279 C 
ATOM     10  C   UNL     1      30.676 -23.096 -15.581  0.00  0.00    +0.203 C 
ATOM     11  C   UNL     1      30.747 -23.789 -14.355  0.00  0.00    +0.116 C 
ATOM     12  H   UNL     1      35.480 -22.519 -18.439  0.00  0.00    +0.160 HD
ATOM     13  H   UNL     1      34.159 -24.971 -13.511  0.00  0.00    +0.156 HD
ENDROOT
BRANCH   5  14
ATOM     14  C   UNL     1      36.070 -24.979 -14.215  0.00  0.00    +0.051 C 
ATOM     15  C   UNL     1      36.552 -26.108 -14.877  0.00  0.00    +0.015 C 
ATOM     16  C   UNL     1      36.946 -24.161 -13.501  0.00  0.00    +0.015 C 
ATOM     17  C   UNL     1      37.911 -26.421 -14.824  0.00  0.00    +0.001 C 
ATOM     18  C   UNL     1      38.304 -24.474 -13.449  0.00  0.00    +0.001 C 
ATOM     19  C   UNL     1      38.787 -25.604 -14.110  0.00  0.00    +0.000 C 
ENDBRANCH   5  14
BRANCH  10  21
ATOM     20  N   UNL     1      28.612 -22.037 -16.714  0.00  0.00    -0.195 NA
ATOM     21  C   UNL     1      29.540 -22.513 -16.205  0.00  0.00    +0.087 C 
ENDBRANCH  10  21
BRANCH   1  22
ATOM     22  C   UNL     1      33.858 -21.635 -19.426  0.00  0.00    +0.099 C 
BRANCH  22  23
ATOM     23  C   UNL     1      34.687 -20.408 -19.800  0.00  0.00    +0.020 C 
ATOM     24  C   UNL     1      36.177 -20.765 -19.882  0.00  0.00    +0.002 C 
ATOM     25  C   UNL     1      34.197 -19.805 -21.123  0.00  0.00    +0.002 C 
ATOM     26  C   UNL     1      37.023 -19.566 -20.306  0.00  0.00    +0.000 C 
ATOM     27  C   UNL     1      35.045 -18.607 -21.545  0.00  0.00    +0.000 C 
ATOM     28  C   UNL     1      36.527 -18.964 -21.617  0.00  0.00    +0.000 C 
ENDBRANCH  22  23
ENDBRANCH   1  22
TORSDOF 4
ENDMDL
MODEL 3
REMARK VINA RESULT:     -10.7      1.477      5.569
REMARK  Name = 24779675
REMARK  4 active torsions:
REMARK  status: ('A' for Active; 'I' for Inactive)
REMARK    1  A    between atoms: N_1  and  C_22
REMARK    2  A    between atoms: N_5  and  C_14
REMARK    3  A    between atoms: C_10  and  C_21
REMARK    4  A    between atoms: C_22  and  C_23
REMARK                            x       y       z     vdW  Elec       q    Type
REMARK                         _______ _______ _______ _____ _____    ______ ____
ROOT
ATOM      1  N   UNL     1      34.480 -22.293 -17.829  0.00  0.00    -0.259 N 
ATOM      2  N   UNL     1      35.400 -23.041 -15.861  0.00  0.00    -0.314 NA
ATOM      3  N   UNL     1      33.027 -22.981 -16.131  0.00  0.00    -0.295 NA
ATOM      4  N   UNL     1      33.924 -23.730 -14.162  0.00  0.00    -0.123 N 
ATOM      5  N   UNL     1      31.575 -23.685 -14.394  0.00  0.00    -0.274 N 
ATOM      6  N   UNL     1      33.855 -24.218 -12.911  0.00  0.00    -0.170 NA
ATOM      7  C   UNL     1      34.330 -22.782 -16.580  0.00  0.00    +0.203 C 
ATOM      8  C   UNL     1      35.196 -23.530 -14.616  0.00  0.00    +0.219 C 
ATOM      9  C   UNL     1      32.809 -23.450 -14.936  0.00  0.00    +0.279 C 
ATOM     10  C   UNL     1      36.020 -23.918 -13.584  0.00  0.00    +0.203 C 
ATOM     11  C   UNL     1      35.141 -24.332 -12.563  0.00  0.00    +0.116 C 
ATOM     12  H   UNL     1      33.672 -22.104 -18.358  0.00  0.00    +0.160 HD
ATOM     13  H   UNL     1      31.558 -24.041 -13.477  0.00  0.00    +0.156 HD
ENDROOT
BRANCH   5  14
ATOM     14  C   UNL     1      30.337 -23.472 -15.004  0.00  0.00    +0.051 C 
ATOM     15  C   UNL     1      29.772 -24.467 -15.801  0.00  0.00    +0.015 C 
ATOM     16  C   UNL     1      29.666 -22.263 -14.817  0.00  0.00    +0.015 C 
ATOM     17  C   UNL     1      28.536 -24.255 -16.412  0.00  0.00    +0.001 C 
ATOM     18  C   UNL     1      28.430 -22.051 -15.427  0.00  0.00    +0.001 C 
ATOM     19  C   UNL     1      27.865 -23.046 -16.225  0.00  0.00    +0.000 C 
ENDBRANCH   5  14
BRANCH  10  21
ATOM     20  N   UNL     1      38.601 -23.878 -13.570  0.00  0.00    -0.195 NA
ATOM     21  C   UNL     1      37.440 -23.895 -13.576  0.00  0.00    +0.087 C 
ENDBRANCH  10  21
BRANCH   1  22
ATOM     22  C   UNL     1      35.764 -22.036 -18.426  0.00  0.00    +0.099 C 
BRANCH  22  23
ATOM     23  C   UNL     1      35.581 -21.251 -19.723  0.00  0.00    +0.020 C 
ATOM     24  C   UNL     1      34.174 -20.641 -19.792  0.00  0.00    +0.002 C 
ATOM     25  C   UNL     1      36.655 -20.163 -19.855  0.00  0.00    +0.002 C 
ATOM     26  C   UNL     1      33.983 -19.805 -21.056  0.00  0.00    +0.000 C 
ATOM     27  C   UNL     1      36.459 -19.328 -21.119  0.00  0.00    +0.000 C 
ATOM     28  C   UNL     1      35.057 -18.731 -21.188  0.00  0.00    +0.000 C 
ENDBRANCH  22  23
ENDBRANCH   1  22
TORSDOF 4
ENDMDL
MODEL 4
REMARK VINA RESULT:     -10.2      1.710      7.029
REMARK  Name = 24779675
REMARK  4 active torsions:
REMARK  status: ('A' for Active; 'I' for Inactive)
REMARK    1  A    between atoms: N_1  and  C_22
REMARK    2  A    between atoms: N_5  and  C_14
REMARK    3  A    between atoms: C_10  and  C_21
REMARK    4  A    between atoms: C_22  and  C_23
REMARK                            x       y       z     vdW  Elec       q    Type
REMARK                         _______ _______ _______ _____ _____    ______ ____
ROOT
ATOM      1  N   UNL     1      33.079 -22.775 -14.657  0.00  0.00    -0.259 N 
ATOM      2  N   UNL     1      35.094 -23.623 -13.952  0.00  0.00    -0.314 NA
ATOM      3  N   UNL     1      34.944 -22.455 -16.031  0.00  0.00    -0.295 NA
ATOM      4  N   UNL     1      36.962 -23.292 -15.345  0.00  0.00    -0.123 N 
ATOM      5  N   UNL     1      36.850 -22.144 -17.405  0.00  0.00    -0.274 N 
ATOM      6  N   UNL     1      38.280 -23.525 -15.473  0.00  0.00    -0.170 NA
ATOM      7  C   UNL     1      34.399 -22.969 -14.857  0.00  0.00    +0.203 C 
ATOM      8  C   UNL     1      36.414 -23.790 -14.199  0.00  0.00    +0.219 C 
ATOM      9  C   UNL     1      36.211 -22.607 -16.287  0.00  0.00    +0.279 C 
ATOM     10  C   UNL     1      37.453 -24.393 -13.527  0.00  0.00    +0.203 C 
ATOM     11  C   UNL     1      38.575 -24.199 -14.357  0.00  0.00    +0.116 C 
ATOM     12  H   UNL     1      32.569 -22.284 -15.341  0.00  0.00    +0.160 HD
ATOM     13  H   UNL     1      37.815 -22.330 -17.470  0.00  0.00    +0.156 HD
ENDROOT
BRANCH   5  14
ATOM     14  C   UNL     1      36.280 -21.435 -18.464  0.00  0.00    +0.051 C 
ATOM     15  C   UNL     1      37.052 -20.532 -19.195  0.00  0.00    +0.015 C 
ATOM     16  C   UNL     1      34.937 -21.629 -18.790  0.00  0.00    +0.015 C 
ATOM     17  C   UNL     1      36.481 -19.822 -20.252  0.00  0.00    +0.001 C 
ATOM     18  C   UNL     1      34.367 -20.919 -19.847  0.00  0.00    +0.001 C 
ATOM     19  C   UNL     1      35.139 -20.016 -20.578  0.00  0.00    +0.000 C 
ENDBRANCH   5  14
BRANCH  10  21
ATOM     20  N   UNL     1      37.326 -25.604 -11.250  0.00  0.00    -0.195 NA
ATOM     21  C   UNL     1      37.382 -25.059 -12.274  0.00  0.00    +0.087 C 
ENDBRANCH  10  21
BRANCH   1  22
ATOM     22  C   UNL     1      32.379 -23.249 -13.492  0.00  0.00    +0.099 C 
BRANCH  22  23
ATOM     23  C   UNL     1      30.907 -23.472 -13.831  0.00  0.00    +0.020 C 
ATOM     24  C   UNL     1      30.455 -22.509 -14.937  0.00  0.00    +0.002 C 
ATOM     25  C   UNL     1      30.659 -24.929 -14.241  0.00  0.00    +0.002 C 
ATOM     26  C   UNL     1      28.999 -22.747 -15.333  0.00  0.00    +0.000 C 
ATOM     27  C   UNL     1      29.203 -25.164 -14.637  0.00  0.00    +0.000 C 
ATOM     28  C   UNL     1      28.754 -24.199 -15.731  0.00  0.00    +0.000 C 
ENDBRANCH  22  23
ENDBRANCH   1  22
TORSDOF 4
ENDMDL
MODEL 5
REMARK VINA RESULT:     -10.2      1.703      5.533
REMARK  Name = 24779675
REMARK  4 active torsions:
REMARK  status: ('A' for Active; 'I' for Inactive)
REMARK    1  A    between atoms: N_1  and  C_22
REMARK    2  A    between atoms: N_5  and  C_14
REMARK    3  A    between atoms: C_10  and  C_21
REMARK    4  A    between atoms: C_22  and  C_23
REMARK                            x       y       z     vdW  Elec       q    Type
REMARK                         _______ _______ _______ _____ _____    ______ ____
ROOT
ATOM      1  N   UNL     1      35.775 -22.060 -17.296  0.00  0.00    -0.259 N 
ATOM      2  N   UNL     1      37.128 -23.302 -15.916  0.00  0.00    -0.314 NA
ATOM      3  N   UNL     1      34.766 -23.264 -15.563  0.00  0.00    -0.295 NA
ATOM      4  N   UNL     1      36.098 -24.508 -14.178  0.00  0.00    -0.123 N 
ATOM      5  N   UNL     1      33.767 -24.494 -13.800  0.00  0.00    -0.274 N 
ATOM      6  N   UNL     1      36.325 -25.336 -13.143  0.00  0.00    -0.170 NA
ATOM      7  C   UNL     1      35.923 -22.892 -16.243  0.00  0.00    +0.203 C 
ATOM      8  C   UNL     1      37.223 -24.135 -14.854  0.00  0.00    +0.219 C 
ATOM      9  C   UNL     1      34.836 -24.064 -14.538  0.00  0.00    +0.279 C 
ATOM     10  C   UNL     1      38.264 -24.769 -14.213  0.00  0.00    +0.203 C 
ATOM     11  C   UNL     1      37.652 -25.492 -13.170  0.00  0.00    +0.116 C 
ATOM     12  H   UNL     1      34.868 -21.760 -17.531  0.00  0.00    +0.160 HD
ATOM     13  H   UNL     1      33.966 -25.099 -13.049  0.00  0.00    +0.156 HD
ENDROOT
BRANCH   5  14
ATOM     14  C   UNL     1      32.424 -24.166 -13.998  0.00  0.00    +0.051 C 
ATOM     15  C   UNL     1      31.449 -25.162 -13.953  0.00  0.00    +0.015 C 
ATOM     16  C   UNL     1      32.059 -22.841 -14.241  0.00  0.00    +0.015 C 
ATOM     17  C   UNL     1      30.107 -24.835 -14.152  0.00  0.00    +0.001 C 
ATOM     18  C   UNL     1      30.717 -22.514 -14.440  0.00  0.00    +0.001 C 
ATOM     19  C   UNL     1      29.742 -23.510 -14.396  0.00  0.00    +0.000 C 
ENDBRANCH   5  14
BRANCH  10  21
ATOM     20  N   UNL     1      40.768 -24.630 -14.822  0.00  0.00    -0.195 NA
ATOM     21  C   UNL     1      39.642 -24.691 -14.549  0.00  0.00    +0.087 C 
ENDBRANCH  10  21
BRANCH   1  22
ATOM     22  C   UNL     1      36.879 -21.591 -18.091  0.00  0.00    +0.099 C 
BRANCH  22  23
ATOM     23  C   UNL     1      36.364 -21.078 -19.435  0.00  0.00    +0.020 C 
ATOM     24  C   UNL     1      34.841 -20.892 -19.395  0.00  0.00    +0.002 C 
ATOM     25  C   UNL     1      37.064 -19.769 -19.820  0.00  0.00    +0.002 C 
ATOM     26  C   UNL     1      34.307 -20.329 -20.710  0.00  0.00    +0.000 C 
ATOM     27  C   UNL     1      36.526 -19.207 -21.134  0.00  0.00    +0.000 C 
ATOM     28  C   UNL     1      35.011 -19.032 -21.095  0.00  0.00    +0.000 C 
ENDBRANCH  22  23
ENDBRANCH   1  22
TORSDOF 4
ENDMDL
MODEL 6
REMARK VINA RESULT:     -10.1      0.775      1.175
REMARK  Name = 24779675
REMARK  4 active torsions:
REMARK  status: ('A' for Active; 'I' for Inactive)
REMARK    1  A    between atoms: N_1  and  C_22
REMARK    2  A    between atoms: N_5  and  C_14
REMARK    3  A    between atoms: C_10  and  C_21
REMARK    4  A    between atoms: C_22  and  C_23
REMARK                            x       y       z     vdW  Elec       q    Type
REMARK                         _______ _______ _______ _____ _____    ______ ____
ROOT
ATOM      1  N   UNL     1      34.701 -22.423 -17.743  0.00  0.00    -0.259 N 
ATOM      2  N   UNL     1      32.747 -23.032 -16.699  0.00  0.00    -0.314 NA
ATOM      3  N   UNL     1      34.853 -23.619 -15.738  0.00  0.00    -0.295 NA
ATOM      4  N   UNL     1      32.917 -24.233 -14.683  0.00  0.00    -0.123 N 
ATOM      5  N   UNL     1      34.981 -24.830 -13.704  0.00  0.00    -0.274 N 
ATOM      6  N   UNL     1      32.209 -24.814 -13.698  0.00  0.00    -0.170 NA
ATOM      7  C   UNL     1      34.062 -23.028 -16.720  0.00  0.00    +0.203 C 
ATOM      8  C   UNL     1      32.153 -23.650 -15.652  0.00  0.00    +0.219 C 
ATOM      9  C   UNL     1      34.302 -24.219 -14.723  0.00  0.00    +0.279 C 
ATOM     10  C   UNL     1      30.848 -23.865 -15.272  0.00  0.00    +0.203 C 
ATOM     11  C   UNL     1      30.944 -24.585 -14.064  0.00  0.00    +0.116 C 
ATOM     12  H   UNL     1      35.685 -22.427 -17.746  0.00  0.00    +0.160 HD
ATOM     13  H   UNL     1      34.435 -25.246 -12.999  0.00  0.00    +0.156 HD
ENDROOT
BRANCH   5  14
ATOM     14  C   UNL     1      36.366 -24.925 -13.559  0.00  0.00    +0.051 C 
ATOM     15  C   UNL     1      36.997 -26.164 -13.679  0.00  0.00    +0.015 C 
ATOM     16  C   UNL     1      37.120 -23.782 -13.294  0.00  0.00    +0.015 C 
ATOM     17  C   UNL     1      38.381 -26.260 -13.532  0.00  0.00    +0.001 C 
ATOM     18  C   UNL     1      38.504 -23.878 -13.148  0.00  0.00    +0.001 C 
ATOM     19  C   UNL     1      39.134 -25.116 -13.267  0.00  0.00    +0.000 C 
ENDBRANCH   5  14
BRANCH  10  21
ATOM     20  N   UNL     1      28.727 -23.101 -16.529  0.00  0.00    -0.195 NA
ATOM     21  C   UNL     1      29.680 -23.445 -15.963  0.00  0.00    +0.087 C 
ENDBRANCH  10  21
BRANCH   1  22
ATOM     22  C   UNL     1      34.015 -21.773 -18.828  0.00  0.00    +0.099 C 
BRANCH  22  23
ATOM     23  C   UNL     1      35.034 -21.204 -19.813  0.00  0.00    +0.020 C 
ATOM     24  C   UNL     1      34.480 -19.948 -20.500  0.00  0.00    +0.002 C 
ATOM     25  C   UNL     1      36.361 -20.899 -19.106  0.00  0.00    +0.002 C 
ATOM     26  C   UNL     1      35.501 -19.328 -21.452  0.00  0.00    +0.000 C 
ATOM     27  C   UNL     1      37.379 -20.278 -20.060  0.00  0.00    +0.000 C 
ATOM     28  C   UNL     1      36.822 -19.035 -20.747  0.00  0.00    +0.000 C 
ENDBRANCH  22  23
ENDBRANCH   1  22
TORSDOF 4
ENDMDL
MODEL 7
REMARK VINA RESULT:      -9.9      1.301      6.653
REMARK  Name = 24779675
REMARK  4 active torsions:
REMARK  status: ('A' for Active; 'I' for Inactive)
REMARK    1  A    between atoms: N_1  and  C_22
REMARK    2  A    between atoms: N_5  and  C_14
REMARK    3  A    between atoms: C_10  and  C_21
REMARK    4  A    between atoms: C_22  and  C_23
REMARK                            x       y       z     vdW  Elec       q    Type
REMARK                         _______ _______ _______ _____ _____    ______ ____
ROOT
ATOM      1  N   UNL     1      35.444 -23.911 -15.795  0.00  0.00    -0.259 N 
ATOM      2  N   UNL     1      33.191 -23.910 -15.346  0.00  0.00    -0.314 NA
ATOM      3  N   UNL     1      34.047 -22.661 -17.194  0.00  0.00    -0.295 NA
ATOM      4  N   UNL     1      31.799 -22.648 -16.763  0.00  0.00    -0.123 N 
ATOM      5  N   UNL     1      32.610 -21.403 -18.598  0.00  0.00    -0.274 N 
ATOM      6  N   UNL     1      30.526 -22.284 -16.997  0.00  0.00    -0.170 NA
ATOM      7  C   UNL     1      34.193 -23.503 -16.094  0.00  0.00    +0.203 C 
ATOM      8  C   UNL     1      31.957 -23.473 -15.687  0.00  0.00    +0.219 C 
ATOM      9  C   UNL     1      32.868 -22.229 -17.538  0.00  0.00    +0.279 C 
ATOM     10  C   UNL     1      30.691 -23.664 -15.181  0.00  0.00    +0.203 C 
ATOM     11  C   UNL     1      29.853 -22.910 -16.026  0.00  0.00    +0.116 C 
ATOM     12  H   UNL     1      36.186 -23.600 -16.362  0.00  0.00    +0.160 HD
ATOM     13  H   UNL     1      31.669 -21.154 -18.742  0.00  0.00    +0.156 HD
ENDROOT
BRANCH   5  14
ATOM     14  C   UNL     1      33.540 -20.874 -19.495  0.00  0.00    +0.051 C 
ATOM     15  C   UNL     1      34.896 -21.170 -19.349  0.00  0.00    +0.015 C 
ATOM     16  C   UNL     1      33.114 -20.050 -20.536  0.00  0.00    +0.015 C 
ATOM     17  C   UNL     1      35.826 -20.641 -20.244  0.00  0.00    +0.001 C 
ATOM     18  C   UNL     1      34.044 -19.522 -21.432  0.00  0.00    +0.001 C 
ATOM     19  C   UNL     1      35.400 -19.817 -21.286  0.00  0.00    +0.000 C 
ENDBRANCH   5  14
BRANCH  10  21
ATOM     20  N   UNL     1      30.047 -25.095 -13.131  0.00  0.00    -0.195 NA
ATOM     21  C   UNL     1      30.336 -24.452 -14.053  0.00  0.00    +0.087 C 
ENDBRANCH  10  21
BRANCH   1  22
ATOM     22  C   UNL     1      35.747 -24.780 -14.689  0.00  0.00    +0.099 C 
BRANCH  22  23
ATOM     23  C   UNL     1      36.907 -24.200 -13.881  0.00  0.00    +0.020 C 
ATOM     24  C   UNL     1      36.383 -23.340 -12.723  0.00  0.00    +0.002 C 
ATOM     25  C   UNL     1      37.819 -25.318 -13.362  0.00  0.00    +0.002 C 
ATOM     26  C   UNL     1      37.523 -22.791 -11.868  0.00  0.00    +0.000 C 
ATOM     27  C   UNL     1      38.957 -24.766 -12.506  0.00  0.00    +0.000 C 
ATOM     28  C   UNL     1      38.433 -23.904 -11.361  0.00  0.00    +0.000 C 
ENDBRANCH  22  23
ENDBRANCH   1  22
TORSDOF 4
ENDMDL
MODEL 8
REMARK VINA RESULT:      -9.7      1.149      6.372
REMARK  Name = 24779675
REMARK  4 active torsions:
REMARK  status: ('A' for Active; 'I' for Inactive)
REMARK    1  A    between atoms: N_1  and  C_22
REMARK    2  A    between atoms: N_5  and  C_14
REMARK    3  A    between atoms: C_10  and  C_21
REMARK    4  A    between atoms: C_22  and  C_23
REMARK                            x       y       z     vdW  Elec       q    Type
REMARK                         _______ _______ _______ _____ _____    ______ ____
ROOT
ATOM      1  N   UNL     1      35.745 -22.896 -14.630  0.00  0.00    -0.259 N 
ATOM      2  N   UNL     1      33.517 -23.418 -14.425  0.00  0.00    -0.314 NA
ATOM      3  N   UNL     1      34.329 -22.388 -16.421  0.00  0.00    -0.295 NA
ATOM      4  N   UNL     1      32.106 -22.901 -16.236  0.00  0.00    -0.123 N 
ATOM      5  N   UNL     1      32.875 -21.884 -18.224  0.00  0.00    -0.274 N 
ATOM      6  N   UNL     1      30.837 -22.955 -16.678  0.00  0.00    -0.170 NA
ATOM      7  C   UNL     1      34.497 -22.915 -15.143  0.00  0.00    +0.203 C 
ATOM      8  C   UNL     1      32.285 -23.414 -14.984  0.00  0.00    +0.219 C 
ATOM      9  C   UNL     1      33.152 -22.374 -16.977  0.00  0.00    +0.279 C 
ATOM     10  C   UNL     1      31.039 -23.836 -14.578  0.00  0.00    +0.203 C 
ATOM     11  C   UNL     1      30.190 -23.528 -15.660  0.00  0.00    +0.116 C 
ATOM     12  H   UNL     1      36.470 -22.517 -15.177  0.00  0.00    +0.160 HD
ATOM     13  H   UNL     1      31.937 -21.937 -18.519  0.00  0.00    +0.156 HD
ENDROOT
BRANCH   5  14
ATOM     14  C   UNL     1      33.780 -21.317 -19.122  0.00  0.00    +0.051 C 
ATOM     15  C   UNL     1      35.129 -21.666 -19.067  0.00  0.00    +0.015 C 
ATOM     16  C   UNL     1      33.335 -20.400 -20.075  0.00  0.00    +0.015 C 
ATOM     17  C   UNL     1      36.035 -21.099 -19.963  0.00  0.00    +0.001 C 
ATOM     18  C   UNL     1      34.241 -19.833 -20.972  0.00  0.00    +0.001 C 
ATOM     19  C   UNL     1      35.590 -20.182 -20.916  0.00  0.00    +0.000 C 
ENDBRANCH   5  14
BRANCH  10  21
ATOM     20  N   UNL     1      30.442 -24.939 -12.323  0.00  0.00    -0.195 NA
ATOM     21  C   UNL     1      30.710 -24.443 -13.337  0.00  0.00    +0.087 C 
ENDBRANCH  10  21
BRANCH   1  22
ATOM     22  C   UNL     1      36.068 -23.404 -13.323  0.00  0.00    +0.099 C 
BRANCH  22  23
ATOM     23  C   UNL     1      36.861 -24.703 -13.457  0.00  0.00    +0.020 C 
ATOM     24  C   UNL     1      36.753 -25.258 -14.885  0.00  0.00    +0.002 C 
ATOM     25  C   UNL     1      38.328 -24.486 -13.065  0.00  0.00    +0.002 C 
ATOM     26  C   UNL     1      37.581 -26.529 -15.060  0.00  0.00    +0.000 C 
ATOM     27  C   UNL     1      39.153 -25.759 -13.243  0.00  0.00    +0.000 C 
ATOM     28  C   UNL     1      39.037 -26.312 -14.660  0.00  0.00    +0.000 C 
ENDBRANCH  22  23
ENDBRANCH   1  22
TORSDOF 4
ENDMDL
MODEL 9
REMARK VINA RESULT:      -9.1      1.976      7.303
REMARK  Name = 24779675
REMARK  4 active torsions:
REMARK  status: ('A' for Active; 'I' for Inactive)
REMARK    1  A    between atoms: N_1  and  C_22
REMARK    2  A    between atoms: N_5  and  C_14
REMARK    3  A    between atoms: C_10  and  C_21
REMARK    4  A    between atoms: C_22  and  C_23
REMARK                            x       y       z     vdW  Elec       q    Type
REMARK                         _______ _______ _______ _____ _____    ______ ____
ROOT
ATOM      1  N   UNL     1      32.567 -22.695 -17.576  0.00  0.00    -0.259 N 
ATOM      2  N   UNL     1      34.446 -23.112 -16.321  0.00  0.00    -0.314 NA
ATOM      3  N   UNL     1      34.585 -21.732 -18.265  0.00  0.00    -0.295 NA
ATOM      4  N   UNL     1      36.467 -22.136 -17.027  0.00  0.00    -0.123 N 
ATOM      5  N   UNL     1      36.641 -20.766 -18.943  0.00  0.00    -0.274 N 
ATOM      6  N   UNL     1      37.776 -22.016 -16.744  0.00  0.00    -0.170 NA
ATOM      7  C   UNL     1      33.888 -22.527 -17.358  0.00  0.00    +0.203 C 
ATOM      8  C   UNL     1      35.772 -22.912 -16.146  0.00  0.00    +0.219 C 
ATOM      9  C   UNL     1      35.861 -21.528 -18.115  0.00  0.00    +0.279 C 
ATOM     10  C   UNL     1      36.697 -23.331 -15.216  0.00  0.00    +0.203 C 
ATOM     11  C   UNL     1      37.911 -22.749 -15.635  0.00  0.00    +0.116 C 
ATOM     12  H   UNL     1      32.162 -22.252 -18.356  0.00  0.00    +0.160 HD
ATOM     13  H   UNL     1      37.595 -20.699 -18.710  0.00  0.00    +0.156 HD
ENDROOT
BRANCH   5  14
ATOM     14  C   UNL     1      36.227 -20.076 -20.083  0.00  0.00    +0.051 C 
ATOM     15  C   UNL     1      34.914 -20.203 -20.537  0.00  0.00    +0.015 C 
ATOM     16  C   UNL     1      37.126 -19.258 -20.768  0.00  0.00    +0.015 C 
ATOM     17  C   UNL     1      34.499 -19.514 -21.678  0.00  0.00    +0.001 C 
ATOM     18  C   UNL     1      36.711 -18.569 -21.908  0.00  0.00    +0.001 C 
ATOM     19  C   UNL     1      35.398 -18.697 -22.363  0.00  0.00    +0.000 C 
ENDBRANCH   5  14
BRANCH  10  21
ATOM     20  N   UNL     1      36.260 -24.850 -13.175  0.00  0.00    -0.195 NA
ATOM     21  C   UNL     1      36.456 -24.166 -14.093  0.00  0.00    +0.087 C 
ENDBRANCH  10  21
BRANCH   1  22
ATOM     22  C   UNL     1      31.722 -23.489 -16.724  0.00  0.00    +0.099 C 
BRANCH  22  23
ATOM     23  C   UNL     1      30.472 -22.693 -16.353  0.00  0.00    +0.020 C 
ATOM     24  C   UNL     1      29.237 -23.260 -17.066  0.00  0.00    +0.002 C 
ATOM     25  C   UNL     1      30.268 -22.682 -14.832  0.00  0.00    +0.002 C 
ATOM     26  C   UNL     1      27.965 -22.515 -16.670  0.00  0.00    +0.000 C 
ATOM     27  C   UNL     1      28.994 -21.937 -14.440  0.00  0.00    +0.000 C 
ATOM     28  C   UNL     1      27.770 -22.498 -15.157  0.00  0.00    +0.000 C 
ENDBRANCH  22  23
ENDBRANCH   1  22
TORSDOF 4
ENDMDL
