MODEL 1
REMARK VINA RESULT:     -12.3      0.000      0.000
REMARK  Name = 448890
REMARK  6 active torsions:
REMARK  status: ('A' for Active; 'I' for Inactive)
REMARK    1  A    between atoms: C_1  and  C_2
REMARK    2  A    between atoms: C_1  and  C_17
REMARK    3  A    between atoms: C_2  and  C_3
REMARK    4  A    between atoms: C_3  and  N_4
REMARK    5  A    between atoms: C_8  and  C_11
REMARK    6  A    between atoms: C_17  and  N_21
REMARK                            x       y       z     vdW  Elec       q    Type
REMARK                         _______ _______ _______ _____ _____    ______ ____
ROOT
ATOM      1  C   UNL     1      33.636 -14.132 -25.026  0.00  0.00    +0.022 C 
ENDROOT
BRANCH   1   2
ATOM      2  C   UNL     1      33.915 -15.635 -24.917  0.00  0.00    -0.021 C 
BRANCH   2   3
ATOM      3  C   UNL     1      35.395 -15.902 -24.646  0.00  0.00    -0.077 C 
BRANCH   3   4
ATOM      4  N   UNL     1      35.545 -16.982 -23.673  0.00  0.00    +0.390 N 
ATOM      5  C   UNL     1      35.322 -16.498 -22.307  0.00  0.00    -0.072 C 
ATOM      6  C   UNL     1      34.633 -18.093 -23.984  0.00  0.00    -0.051 C 
ATOM      7  C   UNL     1      35.649 -17.610 -21.300  0.00  0.00    +0.003 C 
ATOM      8  C   UNL     1      35.014 -18.935 -21.657  0.00  0.00    -0.031 C 
ATOM      9  C   UNL     1      34.548 -19.138 -22.904  0.00  0.00    -0.053 C 
ATOM     10  H   UNL     1      36.503 -17.326 -23.732  0.00  0.00    -0.079 HD
BRANCH   8  11
ATOM     11  C   UNL     1      34.931 -19.981 -20.609  0.00  0.00    -0.004 C 
ATOM     12  C   UNL     1      36.097 -20.506 -20.049  0.00  0.00    -0.000 C 
ATOM     13  C   UNL     1      33.686 -20.443 -20.178  0.00  0.00    -0.000 C 
ATOM     14  C   UNL     1      36.019 -21.490 -19.063  0.00  0.00    -0.000 C 
ATOM     15  C   UNL     1      33.607 -21.427 -19.192  0.00  0.00    -0.000 C 
ATOM     16  C   UNL     1      34.774 -21.951 -18.634  0.00  0.00    -0.000 C 
ENDBRANCH   8  11
ENDBRANCH   3   4
ENDBRANCH   2   3
ENDBRANCH   1   2
BRANCH   1  17
ATOM     17  C   UNL     1      34.543 -13.301 -24.123  0.00  0.00    +0.110 C 
BRANCH  17  21
ATOM     18  F   UNL     1      31.260  -9.610 -20.475  0.00  0.00    -0.204 F 
ATOM     19  O   UNL     1      34.686 -10.900 -25.587  0.00  0.00    -0.246 OA
ATOM     20  O   UNL     1      32.183  -8.538 -22.574  0.00  0.00    -0.267 OA
ATOM     21  N   UNL     1      33.918 -12.047 -23.709  0.00  0.00    -0.281 N 
ATOM     22  N   UNL     1      33.435  -9.758 -24.063  0.00  0.00    -0.274 N 
ATOM     23  C   UNL     1      33.179 -12.006 -22.486  0.00  0.00    +0.071 A 
ATOM     24  C   UNL     1      34.059 -10.915 -24.524  0.00  0.00    +0.330 A 
ATOM     25  C   UNL     1      32.573 -10.814 -22.073  0.00  0.00    +0.099 A 
ATOM     26  C   UNL     1      33.034 -13.138 -21.665  0.00  0.00    +0.018 C 
ATOM     27  C   UNL     1      32.698  -9.602 -22.902  0.00  0.00    +0.265 A 
ATOM     28  C   UNL     1      31.844 -10.747 -20.878  0.00  0.00    +0.146 C 
ATOM     29  C   UNL     1      32.307 -13.074 -20.474  0.00  0.00    +0.004 C 
ATOM     30  C   UNL     1      31.712 -11.880 -20.080  0.00  0.00    +0.030 C 
ATOM     31  H   UNL     1      33.529  -8.958 -24.629  0.00  0.00    +0.173 HD
ENDBRANCH  17  21
ENDBRANCH   1  17
TORSDOF 6
ENDMDL
MODEL 2
REMARK VINA RESULT:     -11.6      1.602      2.762
REMARK  Name = 448890
REMARK  6 active torsions:
REMARK  status: ('A' for Active; 'I' for Inactive)
REMARK    1  A    between atoms: C_1  and  C_2
REMARK    2  A    between atoms: C_1  and  C_17
REMARK    3  A    between atoms: C_2  and  C_3
REMARK    4  A    between atoms: C_3  and  N_4
REMARK    5  A    between atoms: C_8  and  C_11
REMARK    6  A    between atoms: C_17  and  N_21
REMARK                            x       y       z     vdW  Elec       q    Type
REMARK                         _______ _______ _______ _____ _____    ______ ____
ROOT
ATOM      1  C   UNL     1      33.805 -13.617 -24.795  0.00  0.00    +0.022 C 
ENDROOT
BRANCH   1   2
ATOM      2  C   UNL     1      33.857 -15.144 -24.676  0.00  0.00    -0.021 C 
BRANCH   2   3
ATOM      3  C   UNL     1      35.298 -15.651 -24.725  0.00  0.00    -0.077 C 
BRANCH   3   4
ATOM      4  N   UNL     1      35.481 -16.749 -23.778  0.00  0.00    +0.390 N 
ATOM      5  C   UNL     1      35.269 -16.297 -22.399  0.00  0.00    -0.072 C 
ATOM      6  C   UNL     1      34.585 -17.870 -24.099  0.00  0.00    -0.051 C 
ATOM      7  C   UNL     1      35.630 -17.424 -21.420  0.00  0.00    +0.003 C 
ATOM      8  C   UNL     1      35.015 -18.753 -21.796  0.00  0.00    -0.031 C 
ATOM      9  C   UNL     1      34.535 -18.939 -23.041  0.00  0.00    -0.053 C 
ATOM     10  H   UNL     1      36.445 -17.074 -23.857  0.00  0.00    -0.079 HD
BRANCH   8  11
ATOM     11  C   UNL     1      34.966 -19.821 -20.770  0.00  0.00    -0.004 C 
ATOM     12  C   UNL     1      33.736 -20.316 -20.330  0.00  0.00    -0.000 C 
ATOM     13  C   UNL     1      36.150 -20.339 -20.239  0.00  0.00    -0.000 C 
ATOM     14  C   UNL     1      33.690 -21.322 -19.365  0.00  0.00    -0.000 C 
ATOM     15  C   UNL     1      36.104 -21.344 -19.274  0.00  0.00    -0.000 C 
ATOM     16  C   UNL     1      34.875 -21.836 -18.836  0.00  0.00    -0.000 C 
ENDBRANCH   8  11
ENDBRANCH   3   4
ENDBRANCH   2   3
ENDBRANCH   1   2
BRANCH   1  17
ATOM     17  C   UNL     1      34.492 -12.915 -23.628  0.00  0.00    +0.110 C 
BRANCH  17  21
ATOM     18  F   UNL     1      33.124  -6.961 -23.005  0.00  0.00    -0.204 F 
ATOM     19  O   UNL     1      32.229 -13.097 -21.964  0.00  0.00    -0.246 OA
ATOM     20  O   UNL     1      31.595  -8.570 -21.789  0.00  0.00    -0.267 OA
ATOM     21  N   UNL     1      33.732 -11.764 -23.146  0.00  0.00    -0.281 N 
ATOM     22  N   UNL     1      31.947 -10.836 -21.901  0.00  0.00    -0.274 N 
ATOM     23  C   UNL     1      34.141 -10.448 -23.526  0.00  0.00    +0.071 A 
ATOM     24  C   UNL     1      32.620 -11.982 -22.321  0.00  0.00    +0.330 A 
ATOM     25  C   UNL     1      33.424  -9.334 -23.074  0.00  0.00    +0.099 A 
ATOM     26  C   UNL     1      35.254 -10.225 -24.354  0.00  0.00    +0.018 C 
ATOM     27  C   UNL     1      32.249  -9.520 -22.205  0.00  0.00    +0.265 A 
ATOM     28  C   UNL     1      33.804  -8.033 -23.434  0.00  0.00    +0.146 C 
ATOM     29  C   UNL     1      35.635  -8.929 -24.714  0.00  0.00    +0.004 C 
ATOM     30  C   UNL     1      34.911  -7.834 -24.254  0.00  0.00    +0.030 C 
ATOM     31  H   UNL     1      31.164 -10.980 -21.321  0.00  0.00    +0.173 HD
ENDBRANCH  17  21
ENDBRANCH   1  17
TORSDOF 6
ENDMDL
MODEL 3
REMARK VINA RESULT:     -11.4      1.568      2.416
REMARK  Name = 448890
REMARK  6 active torsions:
REMARK  status: ('A' for Active; 'I' for Inactive)
REMARK    1  A    between atoms: C_1  and  C_2
REMARK    2  A    between atoms: C_1  and  C_17
REMARK    3  A    between atoms: C_2  and  C_3
REMARK    4  A    between atoms: C_3  and  N_4
REMARK    5  A    between atoms: C_8  and  C_11
REMARK    6  A    between atoms: C_17  and  N_21
REMARK                            x       y       z     vdW  Elec       q    Type
REMARK                         _______ _______ _______ _____ _____    ______ ____
ROOT
ATOM      1  C   UNL     1      33.831 -13.784 -24.541  0.00  0.00    +0.022 C 
ENDROOT
BRANCH   1   2
ATOM      2  C   UNL     1      33.887 -15.315 -24.562  0.00  0.00    -0.021 C 
BRANCH   2   3
ATOM      3  C   UNL     1      35.331 -15.812 -24.592  0.00  0.00    -0.077 C 
BRANCH   3   4
ATOM      4  N   UNL     1      35.507 -16.916 -23.649  0.00  0.00    +0.390 N 
ATOM      5  C   UNL     1      35.356 -16.457 -22.265  0.00  0.00    -0.072 C 
ATOM      6  C   UNL     1      34.562 -18.005 -23.940  0.00  0.00    -0.051 C 
ATOM      7  C   UNL     1      35.709 -17.596 -21.296  0.00  0.00    +0.003 C 
ATOM      8  C   UNL     1      35.035 -18.902 -21.651  0.00  0.00    -0.031 C 
ATOM      9  C   UNL     1      34.509 -19.071 -22.880  0.00  0.00    -0.053 C 
ATOM     10  H   UNL     1      36.455 -17.275 -23.759  0.00  0.00    -0.079 HD
BRANCH   8  11
ATOM     11  C   UNL     1      34.982 -19.969 -20.622  0.00  0.00    -0.004 C 
ATOM     12  C   UNL     1      36.163 -20.488 -20.089  0.00  0.00    -0.000 C 
ATOM     13  C   UNL     1      33.749 -20.457 -20.183  0.00  0.00    -0.000 C 
ATOM     14  C   UNL     1      36.113 -21.491 -19.121  0.00  0.00    -0.000 C 
ATOM     15  C   UNL     1      33.699 -21.461 -19.215  0.00  0.00    -0.000 C 
ATOM     16  C   UNL     1      34.881 -21.978 -18.684  0.00  0.00    -0.000 C 
ENDBRANCH   8  11
ENDBRANCH   3   4
ENDBRANCH   2   3
ENDBRANCH   1   2
BRANCH   1  17
ATOM     17  C   UNL     1      34.487 -13.190 -23.298  0.00  0.00    +0.110 C 
BRANCH  17  21
ATOM     18  F   UNL     1      31.240  -8.239 -21.669  0.00  0.00    -0.204 F 
ATOM     19  O   UNL     1      33.134 -14.202 -21.046  0.00  0.00    -0.246 OA
ATOM     20  O   UNL     1      30.921 -10.286 -20.214  0.00  0.00    -0.267 OA
ATOM     21  N   UNL     1      33.547 -12.419 -22.488  0.00  0.00    -0.281 N 
ATOM     22  N   UNL     1      32.051 -12.234 -20.665  0.00  0.00    -0.274 N 
ATOM     23  C   UNL     1      33.278 -11.059 -22.837  0.00  0.00    +0.071 A 
ATOM     24  C   UNL     1      32.934 -13.033 -21.388  0.00  0.00    +0.330 A 
ATOM     25  C   UNL     1      32.380 -10.304 -22.073  0.00  0.00    +0.099 A 
ATOM     26  C   UNL     1      33.889 -10.438 -23.940  0.00  0.00    +0.018 C 
ATOM     27  C   UNL     1      31.715 -10.913 -20.909  0.00  0.00    +0.265 A 
ATOM     28  C   UNL     1      32.098  -8.969 -22.396  0.00  0.00    +0.146 C 
ATOM     29  C   UNL     1      33.610  -9.107 -24.263  0.00  0.00    +0.004 C 
ATOM     30  C   UNL     1      32.715  -8.373 -23.491  0.00  0.00    +0.030 C 
ATOM     31  H   UNL     1      31.615 -12.657 -19.890  0.00  0.00    +0.173 HD
ENDBRANCH  17  21
ENDBRANCH   1  17
TORSDOF 6
ENDMDL
MODEL 4
REMARK VINA RESULT:     -11.3      7.640     12.174
REMARK  Name = 448890
REMARK  6 active torsions:
REMARK  status: ('A' for Active; 'I' for Inactive)
REMARK    1  A    between atoms: C_1  and  C_2
REMARK    2  A    between atoms: C_1  and  C_17
REMARK    3  A    between atoms: C_2  and  C_3
REMARK    4  A    between atoms: C_3  and  N_4
REMARK    5  A    between atoms: C_8  and  C_11
REMARK    6  A    between atoms: C_17  and  N_21
REMARK                            x       y       z     vdW  Elec       q    Type
REMARK                         _______ _______ _______ _____ _____    ______ ____
ROOT
ATOM      1  C   UNL     1      32.545 -23.279 -16.023  0.00  0.00    +0.022 C 
ENDROOT
BRANCH   1   2
ATOM      2  C   UNL     1      32.608 -22.565 -17.377  0.00  0.00    -0.021 C 
BRANCH   2   3
ATOM      3  C   UNL     1      33.844 -22.992 -18.168  0.00  0.00    -0.077 C 
BRANCH   3   4
ATOM      4  N   UNL     1      34.050 -22.100 -19.307  0.00  0.00    +0.390 N 
ATOM      5  C   UNL     1      33.085 -20.996 -19.295  0.00  0.00    -0.072 C 
ATOM      6  C   UNL     1      35.427 -21.584 -19.322  0.00  0.00    -0.051 C 
ATOM      7  C   UNL     1      33.216 -20.174 -20.586  0.00  0.00    +0.003 C 
ATOM      8  C   UNL     1      34.648 -19.814 -20.913  0.00  0.00    -0.031 C 
ATOM      9  C   UNL     1      35.657 -20.478 -20.316  0.00  0.00    -0.053 C 
ATOM     10  H   UNL     1      33.899 -22.640 -20.159  0.00  0.00    -0.079 HD
BRANCH   8  11
ATOM     11  C   UNL     1      34.895 -18.734 -21.897  0.00  0.00    -0.004 C 
ATOM     12  C   UNL     1      34.568 -18.922 -23.242  0.00  0.00    -0.000 C 
ATOM     13  C   UNL     1      35.455 -17.523 -21.483  0.00  0.00    -0.000 C 
ATOM     14  C   UNL     1      34.800 -17.905 -24.168  0.00  0.00    -0.000 C 
ATOM     15  C   UNL     1      35.687 -16.506 -22.409  0.00  0.00    -0.000 C 
ATOM     16  C   UNL     1      35.359 -16.697 -23.752  0.00  0.00    -0.000 C 
ENDBRANCH   8  11
ENDBRANCH   3   4
ENDBRANCH   2   3
ENDBRANCH   1   2
BRANCH   1  17
ATOM     17  C   UNL     1      33.257 -22.504 -14.918  0.00  0.00    +0.110 C 
BRANCH  17  21
ATOM     18  F   UNL     1      38.947 -24.598 -13.944  0.00  0.00    -0.204 F 
ATOM     19  O   UNL     1      32.781 -24.248 -12.760  0.00  0.00    -0.246 OA
ATOM     20  O   UNL     1      37.161 -25.521 -12.406  0.00  0.00    -0.267 OA
ATOM     21  N   UNL     1      34.291 -23.297 -14.259  0.00  0.00    -0.281 N 
ATOM     22  N   UNL     1      34.972 -24.857 -12.616  0.00  0.00    -0.274 N 
ATOM     23  C   UNL     1      35.641 -23.203 -14.719  0.00  0.00    +0.071 A 
ATOM     24  C   UNL     1      33.931 -24.132 -13.192  0.00  0.00    +0.330 A 
ATOM     25  C   UNL     1      36.647 -23.956 -14.100  0.00  0.00    +0.099 A 
ATOM     26  C   UNL     1      36.008 -22.368 -15.788  0.00  0.00    +0.018 C 
ATOM     27  C   UNL     1      36.309 -24.846 -12.975  0.00  0.00    +0.265 A 
ATOM     28  C   UNL     1      37.978 -23.881 -14.531  0.00  0.00    +0.146 C 
ATOM     29  C   UNL     1      37.335 -22.291 -16.220  0.00  0.00    +0.004 C 
ATOM     30  C   UNL     1      38.319 -23.047 -15.592  0.00  0.00    +0.030 C 
ATOM     31  H   UNL     1      34.729 -25.446 -11.865  0.00  0.00    +0.173 HD
ENDBRANCH  17  21
ENDBRANCH   1  17
TORSDOF 6
ENDMDL
MODEL 5
REMARK VINA RESULT:     -11.3      7.200     11.471
REMARK  Name = 448890
REMARK  6 active torsions:
REMARK  status: ('A' for Active; 'I' for Inactive)
REMARK    1  A    between atoms: C_1  and  C_2
REMARK    2  A    between atoms: C_1  and  C_17
REMARK    3  A    between atoms: C_2  and  C_3
REMARK    4  A    between atoms: C_3  and  N_4
REMARK    5  A    between atoms: C_8  and  C_11
REMARK    6  A    between atoms: C_17  and  N_21
REMARK                            x       y       z     vdW  Elec       q    Type
REMARK                         _______ _______ _______ _____ _____    ______ ____
ROOT
ATOM      1  C   UNL     1      36.903 -21.830 -15.614  0.00  0.00    +0.022 C 
ENDROOT
BRANCH   1   2
ATOM      2  C   UNL     1      37.358 -21.115 -16.891  0.00  0.00    -0.021 C 
BRANCH   2   3
ATOM      3  C   UNL     1      36.645 -21.677 -18.120  0.00  0.00    -0.077 C 
BRANCH   3   4
ATOM      4  N   UNL     1      36.277 -20.595 -19.031  0.00  0.00    +0.390 N 
ATOM      5  C   UNL     1      37.361 -20.306 -19.974  0.00  0.00    -0.072 C 
ATOM      6  C   UNL     1      35.036 -20.920 -19.751  0.00  0.00    -0.051 C 
ATOM      7  C   UNL     1      37.013 -19.061 -20.804  0.00  0.00    +0.003 C 
ATOM      8  C   UNL     1      35.615 -19.106 -21.377  0.00  0.00    -0.031 C 
ATOM      9  C   UNL     1      34.715 -19.974 -20.877  0.00  0.00    -0.053 C 
ATOM     10  H   UNL     1      36.115 -19.756 -18.472  0.00  0.00    -0.079 HD
BRANCH   8  11
ATOM     11  C   UNL     1      35.277 -18.175 -22.481  0.00  0.00    -0.004 C 
ATOM     12  C   UNL     1      35.639 -16.829 -22.399  0.00  0.00    -0.000 C 
ATOM     13  C   UNL     1      34.594 -18.642 -23.607  0.00  0.00    -0.000 C 
ATOM     14  C   UNL     1      35.321 -15.954 -23.437  0.00  0.00    -0.000 C 
ATOM     15  C   UNL     1      34.276 -17.766 -24.645  0.00  0.00    -0.000 C 
ATOM     16  C   UNL     1      34.639 -16.422 -24.561  0.00  0.00    -0.000 C 
ENDBRANCH   8  11
ENDBRANCH   3   4
ENDBRANCH   2   3
ENDBRANCH   1   2
BRANCH   1  17
ATOM     17  C   UNL     1      36.396 -23.244 -15.883  0.00  0.00    +0.110 C 
BRANCH  17  21
ATOM     18  F   UNL     1      30.433 -23.727 -14.501  0.00  0.00    -0.204 F 
ATOM     19  O   UNL     1      36.572 -24.397 -13.321  0.00  0.00    -0.246 OA
ATOM     20  O   UNL     1      32.039 -24.558 -12.730  0.00  0.00    -0.267 OA
ATOM     21  N   UNL     1      35.243 -23.589 -15.056  0.00  0.00    -0.281 N 
ATOM     22  N   UNL     1      34.309 -24.459 -13.065  0.00  0.00    -0.274 N 
ATOM     23  C   UNL     1      33.927 -23.335 -15.553  0.00  0.00    +0.071 A 
ATOM     24  C   UNL     1      35.457 -24.159 -13.794  0.00  0.00    +0.330 A 
ATOM     25  C   UNL     1      32.809 -23.658 -14.775  0.00  0.00    +0.099 A 
ATOM     26  C   UNL     1      33.706 -22.763 -16.818  0.00  0.00    +0.018 C 
ATOM     27  C   UNL     1      32.992 -24.260 -13.442  0.00  0.00    +0.265 A 
ATOM     28  C   UNL     1      31.508 -23.420 -15.240  0.00  0.00    +0.146 C 
ATOM     29  C   UNL     1      32.410 -22.524 -17.284  0.00  0.00    +0.004 C 
ATOM     30  C   UNL     1      31.312 -22.852 -16.495  0.00  0.00    +0.030 C 
ATOM     31  H   UNL     1      34.450 -24.861 -12.177  0.00  0.00    +0.173 HD
ENDBRANCH  17  21
ENDBRANCH   1  17
TORSDOF 6
ENDMDL
MODEL 6
REMARK VINA RESULT:     -11.2      7.971     12.683
REMARK  Name = 448890
REMARK  6 active torsions:
REMARK  status: ('A' for Active; 'I' for Inactive)
REMARK    1  A    between atoms: C_1  and  C_2
REMARK    2  A    between atoms: C_1  and  C_17
REMARK    3  A    between atoms: C_2  and  C_3
REMARK    4  A    between atoms: C_3  and  N_4
REMARK    5  A    between atoms: C_8  and  C_11
REMARK    6  A    between atoms: C_17  and  N_21
REMARK                            x       y       z     vdW  Elec       q    Type
REMARK                         _______ _______ _______ _____ _____    ______ ____
ROOT
ATOM      1  C   UNL     1      33.548 -23.272 -15.875  0.00  0.00    +0.022 C 
ENDROOT
BRANCH   1   2
ATOM      2  C   UNL     1      33.517 -22.643 -17.272  0.00  0.00    -0.021 C 
BRANCH   2   3
ATOM      3  C   UNL     1      34.929 -22.483 -17.835  0.00  0.00    -0.077 C 
BRANCH   3   4
ATOM      4  N   UNL     1      34.992 -21.323 -18.722  0.00  0.00    +0.390 N 
ATOM      5  C   UNL     1      36.139 -21.415 -19.631  0.00  0.00    -0.072 C 
ATOM      6  C   UNL     1      33.740 -21.178 -19.480  0.00  0.00    -0.051 C 
ATOM      7  C   UNL     1      36.276 -20.111 -20.431  0.00  0.00    +0.003 C 
ATOM      8  C   UNL     1      34.969 -19.652 -21.039  0.00  0.00    -0.031 C 
ATOM      9  C   UNL     1      33.807 -20.159 -20.585  0.00  0.00    -0.053 C 
ATOM     10  H   UNL     1      35.116 -20.492 -18.143  0.00  0.00    -0.079 HD
BRANCH   8  11
ATOM     11  C   UNL     1      35.014 -18.640 -22.122  0.00  0.00    -0.004 C 
ATOM     12  C   UNL     1      34.575 -18.969 -23.406  0.00  0.00    -0.000 C 
ATOM     13  C   UNL     1      35.494 -17.355 -21.861  0.00  0.00    -0.000 C 
ATOM     14  C   UNL     1      34.617 -18.017 -24.425  0.00  0.00    -0.000 C 
ATOM     15  C   UNL     1      35.535 -16.403 -22.880  0.00  0.00    -0.000 C 
ATOM     16  C   UNL     1      35.097 -16.734 -24.162  0.00  0.00    -0.000 C 
ENDBRANCH   8  11
ENDBRANCH   3   4
ENDBRANCH   2   3
ENDBRANCH   1   2
BRANCH   1  17
ATOM     17  C   UNL     1      34.484 -22.536 -14.921  0.00  0.00    +0.110 C 
BRANCH  17  21
ATOM     18  F   UNL     1      39.226 -25.802 -12.787  0.00  0.00    -0.204 F 
ATOM     19  O   UNL     1      33.293 -23.723 -12.664  0.00  0.00    -0.246 OA
ATOM     20  O   UNL     1      37.084 -25.978 -11.451  0.00  0.00    -0.267 OA
ATOM     21  N   UNL     1      35.175 -23.443 -14.009  0.00  0.00    -0.281 N 
ATOM     22  N   UNL     1      35.202 -24.830 -12.093  0.00  0.00    -0.274 N 
ATOM     23  C   UNL     1      36.546 -23.769 -14.254  0.00  0.00    +0.071 A 
ATOM     24  C   UNL     1      34.475 -23.973 -12.917  0.00  0.00    +0.330 A 
ATOM     25  C   UNL     1      37.225 -24.637 -13.391  0.00  0.00    +0.099 A 
ATOM     26  C   UNL     1      37.253 -23.241 -15.348  0.00  0.00    +0.018 C 
ATOM     27  C   UNL     1      36.524 -25.215 -12.231  0.00  0.00    +0.265 A 
ATOM     28  C   UNL     1      38.569 -24.971 -13.608  0.00  0.00    +0.146 C 
ATOM     29  C   UNL     1      38.592 -23.573 -15.567  0.00  0.00    +0.004 C 
ATOM     30  C   UNL     1      39.250 -24.438 -14.699  0.00  0.00    +0.030 C 
ATOM     31  H   UNL     1      34.718 -25.206 -11.322  0.00  0.00    +0.173 HD
ENDBRANCH  17  21
ENDBRANCH   1  17
TORSDOF 6
ENDMDL
MODEL 7
REMARK VINA RESULT:     -11.2      1.625      2.290
REMARK  Name = 448890
REMARK  6 active torsions:
REMARK  status: ('A' for Active; 'I' for Inactive)
REMARK    1  A    between atoms: C_1  and  C_2
REMARK    2  A    between atoms: C_1  and  C_17
REMARK    3  A    between atoms: C_2  and  C_3
REMARK    4  A    between atoms: C_3  and  N_4
REMARK    5  A    between atoms: C_8  and  C_11
REMARK    6  A    between atoms: C_17  and  N_21
REMARK                            x       y       z     vdW  Elec       q    Type
REMARK                         _______ _______ _______ _____ _____    ______ ____
ROOT
ATOM      1  C   UNL     1      34.426 -12.804 -23.951  0.00  0.00    +0.022 C 
ENDROOT
BRANCH   1   2
ATOM      2  C   UNL     1      33.871 -14.189 -24.299  0.00  0.00    -0.021 C 
BRANCH   2   3
ATOM      3  C   UNL     1      34.989 -15.228 -24.369  0.00  0.00    -0.077 C 
BRANCH   3   4
ATOM      4  N   UNL     1      34.722 -16.323 -23.439  0.00  0.00    +0.390 N 
ATOM      5  C   UNL     1      35.063 -17.618 -24.036  0.00  0.00    -0.072 C 
ATOM      6  C   UNL     1      35.451 -16.125 -22.178  0.00  0.00    -0.051 C 
ATOM      7  C   UNL     1      34.617 -18.756 -23.104  0.00  0.00    +0.003 C 
ATOM      8  C   UNL     1      35.040 -18.542 -21.668  0.00  0.00    -0.031 C 
ATOM      9  C   UNL     1      35.424 -17.317 -21.259  0.00  0.00    -0.053 C 
ATOM     10  H   UNL     1      33.722 -16.325 -23.236  0.00  0.00    -0.079 HD
BRANCH   8  11
ATOM     11  C   UNL     1      35.011 -19.703 -20.746  0.00  0.00    -0.004 C 
ATOM     12  C   UNL     1      36.204 -20.260 -20.282  0.00  0.00    -0.000 C 
ATOM     13  C   UNL     1      33.788 -20.242 -20.338  0.00  0.00    -0.000 C 
ATOM     14  C   UNL     1      36.176 -21.351 -19.414  0.00  0.00    -0.000 C 
ATOM     15  C   UNL     1      33.760 -21.334 -19.470  0.00  0.00    -0.000 C 
ATOM     16  C   UNL     1      34.954 -21.889 -19.008  0.00  0.00    -0.000 C 
ENDBRANCH   8  11
ENDBRANCH   3   4
ENDBRANCH   2   3
ENDBRANCH   1   2
BRANCH   1  17
ATOM     17  C   UNL     1      33.870 -11.706 -24.852  0.00  0.00    +0.110 C 
BRANCH  17  21
ATOM     18  F   UNL     1      33.500  -6.594 -21.468  0.00  0.00    -0.204 F 
ATOM     19  O   UNL     1      36.023 -10.243 -25.925  0.00  0.00    -0.246 OA
ATOM     20  O   UNL     1      35.364  -6.643 -23.180  0.00  0.00    -0.267 OA
ATOM     21  N   UNL     1      34.259 -10.370 -24.407  0.00  0.00    -0.281 N 
ATOM     22  N   UNL     1      35.662  -8.470 -24.540  0.00  0.00    -0.274 N 
ATOM     23  C   UNL     1      33.517  -9.739 -23.361  0.00  0.00    +0.071 A 
ATOM     24  C   UNL     1      35.352  -9.741 -25.019  0.00  0.00    +0.330 A 
ATOM     25  C   UNL     1      33.875  -8.459 -22.920  0.00  0.00    +0.099 A 
ATOM     26  C   UNL     1      32.420 -10.365 -22.744  0.00  0.00    +0.018 C 
ATOM     27  C   UNL     1      35.018  -7.765 -23.538  0.00  0.00    +0.265 A 
ATOM     28  C   UNL     1      33.164  -7.820 -21.896  0.00  0.00    +0.146 C 
ATOM     29  C   UNL     1      31.709  -9.729 -21.722  0.00  0.00    +0.004 C 
ATOM     30  C   UNL     1      32.080  -8.457 -21.299  0.00  0.00    +0.030 C 
ATOM     31  H   UNL     1      36.429  -8.020 -24.964  0.00  0.00    +0.173 HD
ENDBRANCH  17  21
ENDBRANCH   1  17
TORSDOF 6
ENDMDL
MODEL 8
REMARK VINA RESULT:     -11.0      7.378     12.352
REMARK  Name = 448890
REMARK  6 active torsions:
REMARK  status: ('A' for Active; 'I' for Inactive)
REMARK    1  A    between atoms: C_1  and  C_2
REMARK    2  A    between atoms: C_1  and  C_17
REMARK    3  A    between atoms: C_2  and  C_3
REMARK    4  A    between atoms: C_3  and  N_4
REMARK    5  A    between atoms: C_8  and  C_11
REMARK    6  A    between atoms: C_17  and  N_21
REMARK                            x       y       z     vdW  Elec       q    Type
REMARK                         _______ _______ _______ _____ _____    ______ ____
ROOT
ATOM      1  C   UNL     1      34.069 -23.336 -15.431  0.00  0.00    +0.022 C 
ENDROOT
BRANCH   1   2
ATOM      2  C   UNL     1      33.311 -22.622 -16.556  0.00  0.00    -0.021 C 
BRANCH   2   3
ATOM      3  C   UNL     1      33.890 -22.981 -17.924  0.00  0.00    -0.077 C 
BRANCH   3   4
ATOM      4  N   UNL     1      34.213 -21.767 -18.671  0.00  0.00    +0.390 N 
ATOM      5  C   UNL     1      35.365 -21.980 -19.552  0.00  0.00    -0.072 C 
ATOM      6  C   UNL     1      33.049 -21.305 -19.442  0.00  0.00    -0.051 C 
ATOM      7  C   UNL     1      35.783 -20.649 -20.196  0.00  0.00    +0.003 C 
ATOM      8  C   UNL     1      34.617 -19.886 -20.783  0.00  0.00    -0.031 C 
ATOM      9  C   UNL     1      33.359 -20.206 -20.423  0.00  0.00    -0.053 C 
ATOM     10  H   UNL     1      34.462 -21.041 -17.999  0.00  0.00    -0.079 HD
BRANCH   8  11
ATOM     11  C   UNL     1      34.903 -18.793 -21.743  0.00  0.00    -0.004 C 
ATOM     12  C   UNL     1      35.379 -17.564 -21.284  0.00  0.00    -0.000 C 
ATOM     13  C   UNL     1      34.698 -18.990 -23.111  0.00  0.00    -0.000 C 
ATOM     14  C   UNL     1      35.649 -16.535 -22.187  0.00  0.00    -0.000 C 
ATOM     15  C   UNL     1      34.967 -17.962 -24.014  0.00  0.00    -0.000 C 
ATOM     16  C   UNL     1      35.443 -16.734 -23.553  0.00  0.00    -0.000 C 
ENDBRANCH   8  11
ENDBRANCH   3   4
ENDBRANCH   2   3
ENDBRANCH   1   2
BRANCH   1  17
ATOM     17  C   UNL     1      35.115 -22.443 -14.770  0.00  0.00    +0.110 C 
BRANCH  17  21
ATOM     18  F   UNL     1      39.884 -25.912 -13.057  0.00  0.00    -0.204 F 
ATOM     19  O   UNL     1      36.948 -21.811 -16.811  0.00  0.00    -0.246 OA
ATOM     20  O   UNL     1      40.224 -24.542 -15.158  0.00  0.00    -0.267 OA
ATOM     21  N   UNL     1      36.462 -23.000 -14.867  0.00  0.00    -0.281 N 
ATOM     22  N   UNL     1      38.554 -23.182 -15.956  0.00  0.00    -0.274 N 
ATOM     23  C   UNL     1      36.906 -23.929 -13.875  0.00  0.00    +0.071 A 
ATOM     24  C   UNL     1      37.285 -22.608 -15.932  0.00  0.00    +0.330 A 
ATOM     25  C   UNL     1      38.194 -24.473 -13.951  0.00  0.00    +0.099 A 
ATOM     26  C   UNL     1      36.085 -24.326 -12.805  0.00  0.00    +0.018 C 
ATOM     27  C   UNL     1      39.090 -24.086 -15.055  0.00  0.00    +0.265 A 
ATOM     28  C   UNL     1      38.653 -25.386 -12.992  0.00  0.00    +0.146 C 
ATOM     29  C   UNL     1      36.541 -25.235 -11.847  0.00  0.00    +0.004 C 
ATOM     30  C   UNL     1      37.823 -25.765 -11.940  0.00  0.00    +0.030 C 
ATOM     31  H   UNL     1      39.140 -22.912 -16.701  0.00  0.00    +0.173 HD
ENDBRANCH  17  21
ENDBRANCH   1  17
TORSDOF 6
ENDMDL
MODEL 9
REMARK VINA RESULT:     -10.9      4.270      9.034
REMARK  Name = 448890
REMARK  6 active torsions:
REMARK  status: ('A' for Active; 'I' for Inactive)
REMARK    1  A    between atoms: C_1  and  C_2
REMARK    2  A    between atoms: C_1  and  C_17
REMARK    3  A    between atoms: C_2  and  C_3
REMARK    4  A    between atoms: C_3  and  N_4
REMARK    5  A    between atoms: C_8  and  C_11
REMARK    6  A    between atoms: C_17  and  N_21
REMARK                            x       y       z     vdW  Elec       q    Type
REMARK                         _______ _______ _______ _____ _____    ______ ____
ROOT
ATOM      1  C   UNL     1      35.173 -19.202 -23.395  0.00  0.00    +0.022 C 
ENDROOT
BRANCH   1   2
ATOM      2  C   UNL     1      34.474 -18.376 -24.480  0.00  0.00    -0.021 C 
BRANCH   2   3
ATOM      3  C   UNL     1      35.175 -17.035 -24.687  0.00  0.00    -0.077 C 
BRANCH   3   4
ATOM      4  N   UNL     1      34.437 -15.968 -24.013  0.00  0.00    +0.390 N 
ATOM      5  C   UNL     1      35.301 -15.234 -23.083  0.00  0.00    -0.072 C 
ATOM      6  C   UNL     1      33.833 -15.053 -24.993  0.00  0.00    -0.051 C 
ATOM      7  C   UNL     1      34.463 -14.235 -22.271  0.00  0.00    +0.003 C 
ATOM      8  C   UNL     1      33.538 -13.404 -23.132  0.00  0.00    -0.031 C 
ATOM      9  C   UNL     1      33.261 -13.798 -24.390  0.00  0.00    -0.053 C 
ATOM     10  H   UNL     1      33.688 -16.399 -23.471  0.00  0.00    -0.079 HD
BRANCH   8  11
ATOM     11  C   UNL     1      32.956 -12.170 -22.551  0.00  0.00    -0.004 C 
ATOM     12  C   UNL     1      33.187 -10.933 -23.156  0.00  0.00    -0.000 C 
ATOM     13  C   UNL     1      32.173 -12.241 -21.396  0.00  0.00    -0.000 C 
ATOM     14  C   UNL     1      32.639  -9.773 -22.610  0.00  0.00    -0.000 C 
ATOM     15  C   UNL     1      31.625 -11.081 -20.850  0.00  0.00    -0.000 C 
ATOM     16  C   UNL     1      31.858  -9.846 -21.457  0.00  0.00    -0.000 C 
ENDBRANCH   8  11
ENDBRANCH   3   4
ENDBRANCH   2   3
ENDBRANCH   1   2
BRANCH   1  17
ATOM     17  C   UNL     1      35.202 -18.491 -22.045  0.00  0.00    +0.110 C 
BRANCH  17  21
ATOM     18  F   UNL     1      34.901 -22.619 -17.508  0.00  0.00    -0.204 F 
ATOM     19  O   UNL     1      37.915 -18.614 -21.304  0.00  0.00    -0.246 OA
ATOM     20  O   UNL     1      37.209 -21.709 -18.011  0.00  0.00    -0.267 OA
ATOM     21  N   UNL     1      35.726 -19.342 -20.979  0.00  0.00    -0.281 N 
ATOM     22  N   UNL     1      37.522 -20.155 -19.673  0.00  0.00    -0.274 N 
ATOM     23  C   UNL     1      34.825 -20.177 -20.247  0.00  0.00    +0.071 A 
ATOM     24  C   UNL     1      37.099 -19.317 -20.702  0.00  0.00    +0.330 A 
ATOM     25  C   UNL     1      35.309 -21.000 -19.223  0.00  0.00    +0.099 A 
ATOM     26  C   UNL     1      33.447 -20.206 -20.522  0.00  0.00    +0.018 C 
ATOM     27  C   UNL     1      36.746 -21.002 -18.900  0.00  0.00    +0.265 A 
ATOM     28  C   UNL     1      34.447 -21.828 -18.491  0.00  0.00    +0.146 C 
ATOM     29  C   UNL     1      32.586 -21.031 -19.793  0.00  0.00    +0.004 C 
ATOM     30  C   UNL     1      33.085 -21.841 -18.778  0.00  0.00    +0.030 C 
ATOM     31  H   UNL     1      38.486 -20.144 -19.471  0.00  0.00    +0.173 HD
ENDBRANCH  17  21
ENDBRANCH   1  17
TORSDOF 6
ENDMDL
