MODEL 1
REMARK VINA RESULT:     -12.7      0.000      0.000
REMARK  Name = 24767976
REMARK  5 active torsions:
REMARK  status: ('A' for Active; 'I' for Inactive)
REMARK    1  A    between atoms: C_1  and  N_9
REMARK    2  A    between atoms: C_2  and  O_19
REMARK    3  A    between atoms: C_10  and  C_14
REMARK    4  A    between atoms: O_19  and  C_27
REMARK    5  A    between atoms: C_31  and  C_33
REMARK                            x       y       z     vdW  Elec       q    Type
REMARK                         _______ _______ _______ _____ _____    ______ ____
ROOT
ATOM      1  C   UNL     1      35.118 -21.667 -18.462  0.00  0.00    +0.050 C 
ATOM      2  C   UNL     1      35.717 -20.273 -20.342  0.00  0.00    +0.148 C 
ATOM      3  C   UNL     1      33.768 -21.495 -18.764  0.00  0.00    -0.008 C 
ATOM      4  C   UNL     1      36.093 -21.056 -19.251  0.00  0.00    +0.052 C 
ATOM      5  C   UNL     1      33.391 -20.711 -19.856  0.00  0.00    +0.000 C 
ATOM      6  C   UNL     1      34.366 -20.100 -20.644  0.00  0.00    +0.037 C 
ATOM      7  C   UNL     1      32.702 -22.137 -17.936  0.00  0.00    +0.032 C 
ENDROOT
BRANCH   1   9
ATOM      8  O   UNL     1      37.173 -21.139 -16.344  0.00  0.00    -0.268 OA
ATOM      9  N   UNL     1      35.515 -22.449 -17.374  0.00  0.00    -0.279 N 
ATOM     10  C   UNL     1      36.485 -22.153 -16.410  0.00  0.00    +0.265 C 
ATOM     11  H   UNL     1      35.056 -23.314 -17.274  0.00  0.00    +0.155 HD
BRANCH  10  14
ATOM     12  N   UNL     1      35.737 -23.751 -14.591  0.00  0.00    -0.206 N 
ATOM     13  N   UNL     1      36.195 -24.686 -13.742  0.00  0.00    -0.182 NA
ATOM     14  C   UNL     1      36.704 -23.206 -15.383  0.00  0.00    +0.124 C 
ATOM     15  C   UNL     1      37.876 -23.827 -15.027  0.00  0.00    +0.037 C 
ATOM     16  C   UNL     1      37.502 -24.728 -14.013  0.00  0.00    +0.078 C 
ATOM     17  C   UNL     1      34.330 -23.423 -14.589  0.00  0.00    +0.140 C 
ATOM     18  C   UNL     1      38.374 -25.656 -13.272  0.00  0.00    +0.054 C 
ENDBRANCH  10  14
ENDBRANCH   1   9
BRANCH   2  19
ATOM     19  O   UNL     1      36.690 -19.663 -21.130  0.00  0.00    -0.435 OA
BRANCH  19  27
ATOM     20  N   UNL     1      34.354 -16.456 -24.695  0.00  0.00    -0.373 NA
ATOM     21  N   UNL     1      35.402 -16.865 -22.769  0.00  0.00    -0.173 N 
ATOM     22  N   UNL     1      36.024 -17.545 -21.766  0.00  0.00    -0.138 NA
ATOM     23  C   UNL     1      34.523 -15.289 -23.993  0.00  0.00    +0.187 C 
ATOM     24  C   UNL     1      35.167 -15.515 -22.801  0.00  0.00    +0.193 C 
ATOM     25  C   UNL     1      34.890 -17.395 -23.942  0.00  0.00    +0.204 C 
ATOM     26  C   UNL     1      35.018 -18.791 -24.131  0.00  0.00    +0.054 C 
ATOM     27  C   UNL     1      36.109 -18.814 -22.002  0.00  0.00    +0.245 C 
ATOM     28  C   UNL     1      35.617 -19.537 -23.194  0.00  0.00    +0.063 C 
ATOM     29  O   UNL     1      34.708 -12.548 -22.765  0.00  0.00    -0.275 OA
ATOM     30  N   UNL     1      34.089 -14.071 -24.458  0.00  0.00    -0.261 N 
ATOM     31  C   UNL     1      34.196 -12.805 -23.846  0.00  0.00    +0.227 C 
ATOM     32  H   UNL     1      33.644 -14.084 -25.335  0.00  0.00    +0.157 HD
BRANCH  31  33
ATOM     33  C   UNL     1      33.611 -11.679 -24.642  0.00  0.00    +0.077 C 
ATOM     34  C   UNL     1      34.528 -10.790 -25.430  0.00  0.00    +0.010 C 
ATOM     35  C   UNL     1      33.855 -10.268 -24.195  0.00  0.00    +0.010 C 
ENDBRANCH  31  33
ENDBRANCH  19  27
ENDBRANCH   2  19
TORSDOF 5
ENDMDL
MODEL 2
REMARK VINA RESULT:     -12.1      1.770      2.055
REMARK  Name = 24767976
REMARK  5 active torsions:
REMARK  status: ('A' for Active; 'I' for Inactive)
REMARK    1  A    between atoms: C_1  and  N_9
REMARK    2  A    between atoms: C_2  and  O_19
REMARK    3  A    between atoms: C_10  and  C_14
REMARK    4  A    between atoms: O_19  and  C_27
REMARK    5  A    between atoms: C_31  and  C_33
REMARK                            x       y       z     vdW  Elec       q    Type
REMARK                         _______ _______ _______ _____ _____    ______ ____
ROOT
ATOM      1  C   UNL     1      35.575 -20.972 -19.222  0.00  0.00    +0.050 C 
ATOM      2  C   UNL     1      35.885 -19.346 -20.980  0.00  0.00    +0.148 C 
ATOM      3  C   UNL     1      34.216 -21.040 -19.523  0.00  0.00    -0.008 C 
ATOM      4  C   UNL     1      36.410 -20.125 -19.950  0.00  0.00    +0.052 C 
ATOM      5  C   UNL     1      33.690 -20.261 -20.554  0.00  0.00    +0.000 C 
ATOM      6  C   UNL     1      34.525 -19.413 -21.283  0.00  0.00    +0.037 C 
ATOM      7  C   UNL     1      33.298 -21.939 -18.759  0.00  0.00    +0.032 C 
ENDROOT
BRANCH   1   9
ATOM      8  O   UNL     1      37.504 -20.228 -17.050  0.00  0.00    -0.268 OA
ATOM      9  N   UNL     1      36.120 -21.746 -18.194  0.00  0.00    -0.279 N 
ATOM     10  C   UNL     1      37.022 -21.346 -17.201  0.00  0.00    +0.265 C 
ATOM     11  H   UNL     1      35.836 -22.689 -18.165  0.00  0.00    +0.155 HD
BRANCH  10  14
ATOM     12  N   UNL     1      36.638 -23.027 -15.343  0.00  0.00    -0.206 N 
ATOM     13  N   UNL     1      37.263 -23.961 -14.607  0.00  0.00    -0.182 NA
ATOM     14  C   UNL     1      37.444 -22.414 -16.257  0.00  0.00    +0.124 C 
ATOM     15  C   UNL     1      38.683 -22.988 -16.108  0.00  0.00    +0.037 C 
ATOM     16  C   UNL     1      38.512 -23.933 -15.079  0.00  0.00    +0.078 C 
ATOM     17  C   UNL     1      35.236 -22.766 -15.111  0.00  0.00    +0.140 C 
ATOM     18  C   UNL     1      39.528 -24.837 -14.514  0.00  0.00    +0.054 C 
ENDBRANCH  10  14
ENDBRANCH   1   9
BRANCH   2  19
ATOM     19  O   UNL     1      36.718 -18.500 -21.708  0.00  0.00    -0.435 OA
BRANCH  19  27
ATOM     20  N   UNL     1      33.948 -14.428 -23.758  0.00  0.00    -0.373 NA
ATOM     21  N   UNL     1      34.806 -15.603 -22.068  0.00  0.00    -0.173 N 
ATOM     22  N   UNL     1      35.478 -16.577 -21.393  0.00  0.00    -0.138 NA
ATOM     23  C   UNL     1      33.626 -13.838 -22.562  0.00  0.00    +0.187 C 
ATOM     24  C   UNL     1      34.143 -14.545 -21.504  0.00  0.00    +0.193 C 
ATOM     25  C   UNL     1      34.660 -15.490 -23.440  0.00  0.00    +0.204 C 
ATOM     26  C   UNL     1      35.269 -16.487 -24.239  0.00  0.00    +0.054 C 
ATOM     27  C   UNL     1      36.010 -17.454 -22.181  0.00  0.00    +0.245 C 
ATOM     28  C   UNL     1      35.950 -17.481 -23.658  0.00  0.00    +0.063 C 
ATOM     29  O   UNL     1      32.723 -12.265 -20.160  0.00  0.00    -0.275 OA
ATOM     30  N   UNL     1      32.878 -12.688 -22.477  0.00  0.00    -0.261 N 
ATOM     31  C   UNL     1      32.476 -11.982 -21.325  0.00  0.00    +0.227 C 
ATOM     32  H   UNL     1      32.584 -12.307 -23.335  0.00  0.00    +0.157 HD
BRANCH  31  33
ATOM     33  C   UNL     1      31.662 -10.756 -21.601  0.00  0.00    +0.077 C 
ATOM     34  C   UNL     1      32.341  -9.541 -22.163  0.00  0.00    +0.010 C 
ATOM     35  C   UNL     1      31.860  -9.541 -20.742  0.00  0.00    +0.010 C 
ENDBRANCH  31  33
ENDBRANCH  19  27
ENDBRANCH   2  19
TORSDOF 5
ENDMDL
MODEL 3
REMARK VINA RESULT:     -12.0      3.774     12.741
REMARK  Name = 24767976
REMARK  5 active torsions:
REMARK  status: ('A' for Active; 'I' for Inactive)
REMARK    1  A    between atoms: C_1  and  N_9
REMARK    2  A    between atoms: C_2  and  O_19
REMARK    3  A    between atoms: C_10  and  C_14
REMARK    4  A    between atoms: O_19  and  C_27
REMARK    5  A    between atoms: C_31  and  C_33
REMARK                            x       y       z     vdW  Elec       q    Type
REMARK                         _______ _______ _______ _____ _____    ______ ____
ROOT
ATOM      1  C   UNL     1      32.653 -10.379 -22.525  0.00  0.00    +0.050 C 
ATOM      2  C   UNL     1      33.796 -12.365 -23.287  0.00  0.00    +0.148 C 
ATOM      3  C   UNL     1      32.043 -11.117 -21.512  0.00  0.00    -0.008 C 
ATOM      4  C   UNL     1      33.530 -11.003 -23.413  0.00  0.00    +0.052 C 
ATOM      5  C   UNL     1      32.310 -12.481 -21.386  0.00  0.00    +0.000 C 
ATOM      6  C   UNL     1      33.187 -13.105 -22.274  0.00  0.00    +0.037 C 
ATOM      7  C   UNL     1      31.100 -10.475 -20.548  0.00  0.00    +0.032 C 
ENDROOT
BRANCH   1   9
ATOM      8  O   UNL     1      34.516  -8.118 -23.165  0.00  0.00    -0.268 OA
ATOM      9  N   UNL     1      32.400  -9.012 -22.667  0.00  0.00    -0.279 N 
ATOM     10  C   UNL     1      33.312  -7.994 -22.968  0.00  0.00    +0.265 C 
ATOM     11  H   UNL     1      31.464  -8.731 -22.539  0.00  0.00    +0.155 HD
BRANCH  10  14
ATOM     12  N   UNL     1      32.376  -5.872 -21.944  0.00  0.00    -0.206 N 
ATOM     13  N   UNL     1      31.883  -4.664 -22.265  0.00  0.00    -0.182 NA
ATOM     14  C   UNL     1      32.740  -6.623 -23.024  0.00  0.00    +0.124 C 
ATOM     15  C   UNL     1      32.465  -5.852 -24.127  0.00  0.00    +0.037 C 
ATOM     16  C   UNL     1      31.941  -4.657 -23.599  0.00  0.00    +0.078 C 
ATOM     17  C   UNL     1      32.472  -6.250 -20.553  0.00  0.00    +0.140 C 
ATOM     18  C   UNL     1      31.478  -3.474 -24.345  0.00  0.00    +0.054 C 
ENDBRANCH  10  14
ENDBRANCH   1   9
BRANCH   2  19
ATOM     19  O   UNL     1      34.671 -12.989 -24.173  0.00  0.00    -0.435 OA
BRANCH  19  27
ATOM     20  N   UNL     1      34.553 -18.278 -23.488  0.00  0.00    -0.373 NA
ATOM     21  N   UNL     1      35.178 -16.210 -22.932  0.00  0.00    -0.173 N 
ATOM     22  N   UNL     1      35.306 -14.854 -22.969  0.00  0.00    -0.138 NA
ATOM     23  C   UNL     1      35.340 -18.309 -22.364  0.00  0.00    +0.187 C 
ATOM     24  C   UNL     1      35.739 -17.045 -22.001  0.00  0.00    +0.193 C 
ATOM     25  C   UNL     1      34.467 -17.005 -23.815  0.00  0.00    +0.204 C 
ATOM     26  C   UNL     1      33.795 -16.351 -24.876  0.00  0.00    +0.054 C 
ATOM     27  C   UNL     1      34.669 -14.320 -23.960  0.00  0.00    +0.245 C 
ATOM     28  C   UNL     1      33.868 -15.019 -24.988  0.00  0.00    +0.063 C 
ATOM     29  O   UNL     1      37.014 -18.781 -19.908  0.00  0.00    -0.275 OA
ATOM     30  N   UNL     1      35.665 -19.476 -21.715  0.00  0.00    -0.261 N 
ATOM     31  C   UNL     1      36.457 -19.652 -20.562  0.00  0.00    +0.227 C 
ATOM     32  H   UNL     1      35.295 -20.299 -22.108  0.00  0.00    +0.157 HD
BRANCH  31  33
ATOM     33  C   UNL     1      36.603 -21.075 -20.120  0.00  0.00    +0.077 C 
ATOM     34  C   UNL     1      35.470 -21.731 -19.386  0.00  0.00    +0.010 C 
ATOM     35  C   UNL     1      36.731 -21.374 -18.655  0.00  0.00    +0.010 C 
ENDBRANCH  31  33
ENDBRANCH  19  27
ENDBRANCH   2  19
TORSDOF 5
ENDMDL
MODEL 4
REMARK VINA RESULT:     -11.4      1.824     11.396
REMARK  Name = 24767976
REMARK  5 active torsions:
REMARK  status: ('A' for Active; 'I' for Inactive)
REMARK    1  A    between atoms: C_1  and  N_9
REMARK    2  A    between atoms: C_2  and  O_19
REMARK    3  A    between atoms: C_10  and  C_14
REMARK    4  A    between atoms: O_19  and  C_27
REMARK    5  A    between atoms: C_31  and  C_33
REMARK                            x       y       z     vdW  Elec       q    Type
REMARK                         _______ _______ _______ _____ _____    ______ ____
ROOT
ATOM      1  C   UNL     1      35.129 -19.000 -21.082  0.00  0.00    +0.050 C 
ATOM      2  C   UNL     1      34.342 -20.994 -19.968  0.00  0.00    +0.148 C 
ATOM      3  C   UNL     1      36.446 -19.369 -20.814  0.00  0.00    -0.008 C 
ATOM      4  C   UNL     1      34.076 -19.812 -20.659  0.00  0.00    +0.052 C 
ATOM      5  C   UNL     1      36.712 -20.552 -20.123  0.00  0.00    +0.000 C 
ATOM      6  C   UNL     1      35.660 -21.364 -19.699  0.00  0.00    +0.037 C 
ATOM      7  C   UNL     1      37.593 -18.518 -21.255  0.00  0.00    +0.032 C 
ENDROOT
BRANCH   1   9
ATOM      8  O   UNL     1      35.476 -18.320 -23.982  0.00  0.00    -0.268 OA
ATOM      9  N   UNL     1      34.842 -17.820 -21.774  0.00  0.00    -0.279 N 
ATOM     10  C   UNL     1      35.025 -17.555 -23.136  0.00  0.00    +0.265 C 
ATOM     11  H   UNL     1      34.466 -17.085 -21.237  0.00  0.00    +0.155 HD
BRANCH  10  14
ATOM     12  N   UNL     1      33.826 -15.887 -24.620  0.00  0.00    -0.206 N 
ATOM     13  N   UNL     1      33.645 -14.569 -24.809  0.00  0.00    -0.182 NA
ATOM     14  C   UNL     1      34.649 -16.185 -23.574  0.00  0.00    +0.124 C 
ATOM     15  C   UNL     1      35.033 -14.978 -23.042  0.00  0.00    +0.037 C 
ATOM     16  C   UNL     1      34.385 -14.019 -23.843  0.00  0.00    +0.078 C 
ATOM     17  C   UNL     1      33.165 -16.824 -25.499  0.00  0.00    +0.140 C 
ATOM     18  C   UNL     1      34.448 -12.553 -23.714  0.00  0.00    +0.054 C 
ENDBRANCH  10  14
ENDBRANCH   1   9
BRANCH   2  19
ATOM     19  O   UNL     1      33.292 -21.805 -19.545  0.00  0.00    -0.435 OA
BRANCH  19  27
ATOM     20  N   UNL     1      33.919 -23.360 -14.481  0.00  0.00    -0.373 NA
ATOM     21  N   UNL     1      34.680 -22.780 -16.496  0.00  0.00    -0.173 N 
ATOM     22  N   UNL     1      34.688 -22.386 -17.800  0.00  0.00    -0.138 NA
ATOM     23  C   UNL     1      35.290 -23.408 -14.499  0.00  0.00    +0.187 C 
ATOM     24  C   UNL     1      35.784 -23.055 -15.732  0.00  0.00    +0.193 C 
ATOM     25  C   UNL     1      33.569 -22.979 -15.693  0.00  0.00    +0.204 C 
ATOM     26  C   UNL     1      32.300 -22.753 -16.277  0.00  0.00    +0.054 C 
ATOM     27  C   UNL     1      33.499 -22.197 -18.272  0.00  0.00    +0.245 C 
ATOM     28  C   UNL     1      32.216 -22.364 -17.555  0.00  0.00    +0.063 C 
ATOM     29  O   UNL     1      38.271 -23.630 -14.150  0.00  0.00    -0.275 OA
ATOM     30  N   UNL     1      36.036 -23.769 -13.403  0.00  0.00    -0.261 N 
ATOM     31  C   UNL     1      37.438 -23.860 -13.283  0.00  0.00    +0.227 C 
ATOM     32  H   UNL     1      35.524 -23.993 -12.594  0.00  0.00    +0.157 HD
BRANCH  31  33
ATOM     33  C   UNL     1      37.920 -24.286 -11.931  0.00  0.00    +0.077 C 
ATOM     34  C   UNL     1      37.767 -25.722 -11.521  0.00  0.00    +0.010 C 
ATOM     35  C   UNL     1      36.913 -24.664 -10.884  0.00  0.00    +0.010 C 
ENDBRANCH  31  33
ENDBRANCH  19  27
ENDBRANCH   2  19
TORSDOF 5
ENDMDL
MODEL 5
REMARK VINA RESULT:     -11.1      1.774     11.021
REMARK  Name = 24767976
REMARK  5 active torsions:
REMARK  status: ('A' for Active; 'I' for Inactive)
REMARK    1  A    between atoms: C_1  and  N_9
REMARK    2  A    between atoms: C_2  and  O_19
REMARK    3  A    between atoms: C_10  and  C_14
REMARK    4  A    between atoms: O_19  and  C_27
REMARK    5  A    between atoms: C_31  and  C_33
REMARK                            x       y       z     vdW  Elec       q    Type
REMARK                         _______ _______ _______ _____ _____    ______ ____
ROOT
ATOM      1  C   UNL     1      35.050 -16.799 -23.173  0.00  0.00    +0.050 C 
ATOM      2  C   UNL     1      36.416 -18.512 -22.157  0.00  0.00    +0.148 C 
ATOM      3  C   UNL     1      34.555 -17.732 -24.082  0.00  0.00    -0.008 C 
ATOM      4  C   UNL     1      35.981 -17.188 -22.210  0.00  0.00    +0.052 C 
ATOM      5  C   UNL     1      34.990 -19.057 -24.029  0.00  0.00    +0.000 C 
ATOM      6  C   UNL     1      35.921 -19.447 -23.065  0.00  0.00    +0.037 C 
ATOM      7  C   UNL     1      33.557 -17.343 -25.125  0.00  0.00    +0.032 C 
ENDROOT
BRANCH   1   9
ATOM      8  O   UNL     1      34.845 -14.767 -20.977  0.00  0.00    -0.268 OA
ATOM      9  N   UNL     1      34.626 -15.468 -23.211  0.00  0.00    -0.279 N 
ATOM     10  C   UNL     1      34.549 -14.559 -22.149  0.00  0.00    +0.265 C 
ATOM     11  H   UNL     1      34.345 -15.128 -24.092  0.00  0.00    +0.155 HD
BRANCH  10  14
ATOM     12  N   UNL     1      33.010 -12.565 -21.862  0.00  0.00    -0.206 N 
ATOM     13  N   UNL     1      32.728 -11.356 -22.376  0.00  0.00    -0.182 NA
ATOM     14  C   UNL     1      34.027 -13.212 -22.501  0.00  0.00    +0.124 C 
ATOM     15  C   UNL     1      34.438 -12.367 -23.503  0.00  0.00    +0.037 C 
ATOM     16  C   UNL     1      33.603 -11.240 -23.378  0.00  0.00    +0.078 C 
ATOM     17  C   UNL     1      32.249 -13.049 -20.733  0.00  0.00    +0.140 C 
ATOM     18  C   UNL     1      33.611 -10.022 -24.204  0.00  0.00    +0.054 C 
ENDBRANCH  10  14
ENDBRANCH   1   9
BRANCH   2  19
ATOM     19  O   UNL     1      37.346 -18.901 -21.196  0.00  0.00    -0.435 OA
BRANCH  19  27
ATOM     20  N   UNL     1      34.898 -22.202 -17.794  0.00  0.00    -0.373 NA
ATOM     21  N   UNL     1      36.640 -21.002 -18.501  0.00  0.00    -0.173 N 
ATOM     22  N   UNL     1      37.400 -20.171 -19.268  0.00  0.00    -0.138 NA
ATOM     23  C   UNL     1      35.951 -22.345 -16.928  0.00  0.00    +0.187 C 
ATOM     24  C   UNL     1      37.039 -21.615 -17.342  0.00  0.00    +0.193 C 
ATOM     25  C   UNL     1      35.332 -21.389 -18.736  0.00  0.00    +0.204 C 
ATOM     26  C   UNL     1      34.704 -20.873 -19.895  0.00  0.00    +0.054 C 
ATOM     27  C   UNL     1      36.767 -19.736 -20.309  0.00  0.00    +0.245 C 
ATOM     28  C   UNL     1      35.378 -20.048 -20.705  0.00  0.00    +0.063 C 
ATOM     29  O   UNL     1      38.018 -22.905 -14.812  0.00  0.00    -0.275 OA
ATOM     30  N   UNL     1      35.886 -23.129 -15.801  0.00  0.00    -0.261 N 
ATOM     31  C   UNL     1      36.884 -23.364 -14.832  0.00  0.00    +0.227 C 
ATOM     32  H   UNL     1      35.029 -23.587 -15.649  0.00  0.00    +0.157 HD
BRANCH  31  33
ATOM     33  C   UNL     1      36.469 -24.279 -13.722  0.00  0.00    +0.077 C 
ATOM     34  C   UNL     1      35.909 -23.689 -12.461  0.00  0.00    +0.010 C 
ATOM     35  C   UNL     1      37.277 -24.306 -12.459  0.00  0.00    +0.010 C 
ENDBRANCH  31  33
ENDBRANCH  19  27
ENDBRANCH   2  19
TORSDOF 5
ENDMDL
MODEL 6
REMARK VINA RESULT:     -11.1      4.779     11.802
REMARK  Name = 24767976
REMARK  5 active torsions:
REMARK  status: ('A' for Active; 'I' for Inactive)
REMARK    1  A    between atoms: C_1  and  N_9
REMARK    2  A    between atoms: C_2  and  O_19
REMARK    3  A    between atoms: C_10  and  C_14
REMARK    4  A    between atoms: O_19  and  C_27
REMARK    5  A    between atoms: C_31  and  C_33
REMARK                            x       y       z     vdW  Elec       q    Type
REMARK                         _______ _______ _______ _____ _____    ______ ____
ROOT
ATOM      1  C   UNL     1      33.188 -22.986 -15.388  0.00  0.00    +0.050 C 
ATOM      2  C   UNL     1      33.517 -23.814 -13.144  0.00  0.00    +0.148 C 
ATOM      3  C   UNL     1      31.915 -23.554 -15.412  0.00  0.00    -0.008 C 
ATOM      4  C   UNL     1      33.990 -23.116 -14.254  0.00  0.00    +0.052 C 
ATOM      5  C   UNL     1      31.442 -24.252 -14.300  0.00  0.00    +0.000 C 
ATOM      6  C   UNL     1      32.244 -24.383 -13.166  0.00  0.00    +0.037 C 
ATOM      7  C   UNL     1      31.035 -23.430 -16.614  0.00  0.00    +0.032 C 
ENDROOT
BRANCH   1   9
ATOM      8  O   UNL     1      33.878 -23.939 -18.146  0.00  0.00    -0.268 OA
ATOM      9  N   UNL     1      33.679 -22.282 -16.491  0.00  0.00    -0.279 N 
ATOM     10  C   UNL     1      33.986 -22.779 -17.763  0.00  0.00    +0.265 C 
ATOM     11  H   UNL     1      33.828 -21.317 -16.356  0.00  0.00    +0.155 HD
BRANCH  10  14
ATOM     12  N   UNL     1      35.808 -21.328 -18.762  0.00  0.00    -0.206 N 
ATOM     13  N   UNL     1      36.037 -20.423 -19.729  0.00  0.00    -0.182 NA
ATOM     14  C   UNL     1      34.521 -21.780 -18.725  0.00  0.00    +0.124 C 
ATOM     15  C   UNL     1      33.864 -21.126 -19.737  0.00  0.00    +0.037 C 
ATOM     16  C   UNL     1      34.847 -20.304 -20.322  0.00  0.00    +0.078 C 
ATOM     17  C   UNL     1      36.891 -21.721 -17.890  0.00  0.00    +0.140 C 
ATOM     18  C   UNL     1      34.685 -19.383 -21.459  0.00  0.00    +0.054 C 
ENDBRANCH  10  14
ENDBRANCH   1   9
BRANCH   2  19
ATOM     19  O   UNL     1      34.317 -23.945 -12.011  0.00  0.00    -0.435 OA
BRANCH  19  27
ATOM     20  N   UNL     1      39.371 -25.052 -13.310  0.00  0.00    -0.373 NA
ATOM     21  N   UNL     1      37.163 -25.308 -13.499  0.00  0.00    -0.173 N 
ATOM     22  N   UNL     1      35.828 -25.139 -13.284  0.00  0.00    -0.138 NA
ATOM     23  C   UNL     1      39.085 -25.995 -14.265  0.00  0.00    +0.187 C 
ATOM     24  C   UNL     1      37.729 -26.171 -14.400  0.00  0.00    +0.193 C 
ATOM     25  C   UNL     1      38.200 -24.649 -12.860  0.00  0.00    +0.204 C 
ATOM     26  C   UNL     1      37.850 -23.697 -11.873  0.00  0.00    +0.054 C 
ATOM     27  C   UNL     1      35.578 -24.257 -12.372  0.00  0.00    +0.245 C 
ATOM     28  C   UNL     1      36.560 -23.468 -11.597  0.00  0.00    +0.063 C 
ATOM     29  O   UNL     1      38.861 -28.096 -16.408  0.00  0.00    -0.275 OA
ATOM     30  N   UNL     1      40.060 -26.656 -14.973  0.00  0.00    -0.261 N 
ATOM     31  C   UNL     1      39.910 -27.639 -15.973  0.00  0.00    +0.227 C 
ATOM     32  H   UNL     1      40.987 -26.411 -14.753  0.00  0.00    +0.157 HD
BRANCH  31  33
ATOM     33  C   UNL     1      41.198 -28.149 -16.541  0.00  0.00    +0.077 C 
ATOM     34  C   UNL     1      41.284 -29.582 -16.978  0.00  0.00    +0.010 C 
ATOM     35  C   UNL     1      42.008 -29.129 -15.744  0.00  0.00    +0.010 C 
ENDBRANCH  31  33
ENDBRANCH  19  27
ENDBRANCH   2  19
TORSDOF 5
ENDMDL
MODEL 7
REMARK VINA RESULT:     -10.7      4.277      7.783
REMARK  Name = 24767976
REMARK  5 active torsions:
REMARK  status: ('A' for Active; 'I' for Inactive)
REMARK    1  A    between atoms: C_1  and  N_9
REMARK    2  A    between atoms: C_2  and  O_19
REMARK    3  A    between atoms: C_10  and  C_14
REMARK    4  A    between atoms: O_19  and  C_27
REMARK    5  A    between atoms: C_31  and  C_33
REMARK                            x       y       z     vdW  Elec       q    Type
REMARK                         _______ _______ _______ _____ _____    ______ ____
ROOT
ATOM      1  C   UNL     1      36.719 -25.002 -13.409  0.00  0.00    +0.050 C 
ATOM      2  C   UNL     1      34.360 -24.486 -13.454  0.00  0.00    +0.148 C 
ATOM      3  C   UNL     1      36.882 -24.169 -12.303  0.00  0.00    -0.008 C 
ATOM      4  C   UNL     1      35.459 -25.161 -13.985  0.00  0.00    +0.052 C 
ATOM      5  C   UNL     1      35.782 -23.493 -11.772  0.00  0.00    +0.000 C 
ATOM      6  C   UNL     1      34.521 -23.652 -12.347  0.00  0.00    +0.037 C 
ATOM      7  C   UNL     1      38.220 -23.980 -11.666  0.00  0.00    +0.032 C 
ENDROOT
BRANCH   1   9
ATOM      8  O   UNL     1      36.878 -26.787 -15.814  0.00  0.00    -0.268 OA
ATOM      9  N   UNL     1      37.808 -25.688 -13.955  0.00  0.00    -0.279 N 
ATOM     10  C   UNL     1      37.826 -26.513 -15.086  0.00  0.00    +0.265 C 
ATOM     11  H   UNL     1      38.667 -25.579 -13.486  0.00  0.00    +0.155 HD
BRANCH  10  14
ATOM     12  N   UNL     1      40.336 -26.776 -14.845  0.00  0.00    -0.206 N 
ATOM     13  N   UNL     1      41.379 -27.488 -15.303  0.00  0.00    -0.182 NA
ATOM     14  C   UNL     1      39.142 -27.130 -15.402  0.00  0.00    +0.124 C 
ATOM     15  C   UNL     1      39.424 -28.143 -16.285  0.00  0.00    +0.037 C 
ATOM     16  C   UNL     1      40.816 -28.322 -16.182  0.00  0.00    +0.078 C 
ATOM     17  C   UNL     1      40.561 -25.750 -13.854  0.00  0.00    +0.140 C 
ATOM     18  C   UNL     1      41.653 -29.288 -16.913  0.00  0.00    +0.054 C 
ENDBRANCH  10  14
ENDBRANCH   1   9
BRANCH   2  19
ATOM     19  O   UNL     1      33.101 -24.643 -14.028  0.00  0.00    -0.435 OA
BRANCH  19  27
ATOM     20  N   UNL     1      32.547 -21.685 -18.432  0.00  0.00    -0.373 NA
ATOM     21  N   UNL     1      33.751 -22.770 -16.899  0.00  0.00    -0.173 N 
ATOM     22  N   UNL     1      34.058 -23.517 -15.802  0.00  0.00    -0.138 NA
ATOM     23  C   UNL     1      33.885 -21.570 -18.714  0.00  0.00    +0.187 C 
ATOM     24  C   UNL     1      34.649 -22.230 -17.782  0.00  0.00    +0.193 C 
ATOM     25  C   UNL     1      32.486 -22.412 -17.335  0.00  0.00    +0.204 C 
ATOM     26  C   UNL     1      31.386 -22.863 -16.567  0.00  0.00    +0.054 C 
ATOM     27  C   UNL     1      33.010 -23.896 -15.146  0.00  0.00    +0.245 C 
ATOM     28  C   UNL     1      31.598 -23.603 -15.472  0.00  0.00    +0.063 C 
ATOM     29  O   UNL     1      36.705 -21.097 -19.655  0.00  0.00    -0.275 OA
ATOM     30  N   UNL     1      34.359 -20.873 -19.800  0.00  0.00    -0.261 N 
ATOM     31  C   UNL     1      35.696 -20.676 -20.205  0.00  0.00    +0.227 C 
ATOM     32  H   UNL     1      33.675 -20.457 -20.371  0.00  0.00    +0.157 HD
BRANCH  31  33
ATOM     33  C   UNL     1      35.853 -19.859 -21.450  0.00  0.00    +0.077 C 
ATOM     34  C   UNL     1      36.249 -18.416 -21.330  0.00  0.00    +0.010 C 
ATOM     35  C   UNL     1      34.853 -18.779 -21.745  0.00  0.00    +0.010 C 
ENDBRANCH  31  33
ENDBRANCH  19  27
ENDBRANCH   2  19
TORSDOF 5
ENDMDL
MODEL 8
REMARK VINA RESULT:     -10.6      2.186      3.491
REMARK  Name = 24767976
REMARK  5 active torsions:
REMARK  status: ('A' for Active; 'I' for Inactive)
REMARK    1  A    between atoms: C_1  and  N_9
REMARK    2  A    between atoms: C_2  and  O_19
REMARK    3  A    between atoms: C_10  and  C_14
REMARK    4  A    between atoms: O_19  and  C_27
REMARK    5  A    between atoms: C_31  and  C_33
REMARK                            x       y       z     vdW  Elec       q    Type
REMARK                         _______ _______ _______ _____ _____    ______ ____
ROOT
ATOM      1  C   UNL     1      35.037 -21.165 -18.973  0.00  0.00    +0.050 C 
ATOM      2  C   UNL     1      35.476 -20.231 -21.156  0.00  0.00    +0.148 C 
ATOM      3  C   UNL     1      36.404 -21.179 -18.703  0.00  0.00    -0.008 C 
ATOM      4  C   UNL     1      34.572 -20.691 -20.200  0.00  0.00    +0.052 C 
ATOM      5  C   UNL     1      37.309 -20.719 -19.660  0.00  0.00    +0.000 C 
ATOM      6  C   UNL     1      36.844 -20.245 -20.887  0.00  0.00    +0.037 C 
ATOM      7  C   UNL     1      36.930 -21.682 -17.397  0.00  0.00    +0.032 C 
ENDROOT
BRANCH   1   9
ATOM      8  O   UNL     1      33.805 -23.876 -18.616  0.00  0.00    -0.268 OA
ATOM      9  N   UNL     1      34.115 -21.621 -18.027  0.00  0.00    -0.279 N 
ATOM     10  C   UNL     1      33.570 -22.904 -17.905  0.00  0.00    +0.265 C 
ATOM     11  H   UNL     1      33.811 -20.958 -17.365  0.00  0.00    +0.155 HD
BRANCH  10  14
ATOM     12  N   UNL     1      32.862 -23.571 -15.564  0.00  0.00    -0.206 N 
ATOM     13  N   UNL     1      31.794 -23.624 -14.750  0.00  0.00    -0.182 NA
ATOM     14  C   UNL     1      32.584 -23.076 -16.805  0.00  0.00    +0.124 C 
ATOM     15  C   UNL     1      31.242 -22.786 -16.802  0.00  0.00    +0.037 C 
ATOM     16  C   UNL     1      30.807 -23.143 -15.512  0.00  0.00    +0.078 C 
ATOM     17  C   UNL     1      34.145 -24.021 -15.076  0.00  0.00    +0.140 C 
ATOM     18  C   UNL     1      29.445 -23.039 -14.964  0.00  0.00    +0.054 C 
ENDBRANCH  10  14
ENDBRANCH   1   9
BRANCH   2  19
ATOM     19  O   UNL     1      35.013 -19.758 -22.382  0.00  0.00    -0.435 OA
BRANCH  19  27
ATOM     20  N   UNL     1      35.055 -14.427 -22.197  0.00  0.00    -0.373 NA
ATOM     21  N   UNL     1      34.732 -16.383 -23.220  0.00  0.00    -0.173 N 
ATOM     22  N   UNL     1      34.670 -17.727 -23.427  0.00  0.00    -0.138 NA
ATOM     23  C   UNL     1      34.640 -14.221 -23.488  0.00  0.00    +0.187 C 
ATOM     24  C   UNL     1      34.435 -15.413 -24.141  0.00  0.00    +0.193 C 
ATOM     25  C   UNL     1      35.105 -15.736 -22.053  0.00  0.00    +0.204 C 
ATOM     26  C   UNL     1      35.462 -16.547 -20.950  0.00  0.00    +0.054 C 
ATOM     27  C   UNL     1      35.008 -18.410 -22.381  0.00  0.00    +0.245 C 
ATOM     28  C   UNL     1      35.428 -17.880 -21.067  0.00  0.00    +0.063 C 
ATOM     29  O   UNL     1      33.755 -13.372 -26.237  0.00  0.00    -0.275 OA
ATOM     30  N   UNL     1      34.465 -12.967 -24.023  0.00  0.00    -0.261 N 
ATOM     31  C   UNL     1      34.047 -12.613 -25.322  0.00  0.00    +0.227 C 
ATOM     32  H   UNL     1      34.656 -12.215 -23.418  0.00  0.00    +0.157 HD
BRANCH  31  33
ATOM     33  C   UNL     1      33.961 -11.138 -25.567  0.00  0.00    +0.077 C 
ATOM     34  C   UNL     1      35.186 -10.294 -25.370  0.00  0.00    +0.010 C 
ATOM     35  C   UNL     1      34.045 -10.199 -24.400  0.00  0.00    +0.010 C 
ENDBRANCH  31  33
ENDBRANCH  19  27
ENDBRANCH   2  19
TORSDOF 5
ENDMDL
MODEL 9
REMARK VINA RESULT:     -10.5      2.313      3.763
REMARK  Name = 24767976
REMARK  5 active torsions:
REMARK  status: ('A' for Active; 'I' for Inactive)
REMARK    1  A    between atoms: C_1  and  N_9
REMARK    2  A    between atoms: C_2  and  O_19
REMARK    3  A    between atoms: C_10  and  C_14
REMARK    4  A    between atoms: O_19  and  C_27
REMARK    5  A    between atoms: C_31  and  C_33
REMARK                            x       y       z     vdW  Elec       q    Type
REMARK                         _______ _______ _______ _____ _____    ______ ____
ROOT
ATOM      1  C   UNL     1      34.058 -23.036 -15.964  0.00  0.00    +0.050 C 
ATOM      2  C   UNL     1      34.313 -22.757 -18.349  0.00  0.00    +0.148 C 
ATOM      3  C   UNL     1      32.749 -22.562 -16.048  0.00  0.00    -0.008 C 
ATOM      4  C   UNL     1      34.840 -23.134 -17.115  0.00  0.00    +0.052 C 
ATOM      5  C   UNL     1      32.222 -22.184 -17.284  0.00  0.00    +0.000 C 
ATOM      6  C   UNL     1      33.005 -22.282 -18.435  0.00  0.00    +0.037 C 
ATOM      7  C   UNL     1      31.888 -22.446 -14.832  0.00  0.00    +0.032 C 
ENDROOT
BRANCH   1   9
ATOM      8  O   UNL     1      35.702 -25.436 -15.238  0.00  0.00    -0.268 OA
ATOM      9  N   UNL     1      34.603 -23.419 -14.736  0.00  0.00    -0.279 N 
ATOM     10  C   UNL     1      35.367 -24.557 -14.451  0.00  0.00    +0.265 C 
ATOM     11  H   UNL     1      34.427 -22.815 -13.978  0.00  0.00    +0.155 HD
BRANCH  10  14
ATOM     12  N   UNL     1      36.833 -25.454 -12.588  0.00  0.00    -0.206 N 
ATOM     13  N   UNL     1      36.998 -25.422 -11.255  0.00  0.00    -0.182 NA
ATOM     14  C   UNL     1      35.782 -24.705 -13.031  0.00  0.00    +0.124 C 
ATOM     15  C   UNL     1      35.222 -24.144 -11.910  0.00  0.00    +0.037 C 
ATOM     16  C   UNL     1      36.012 -24.620 -10.846  0.00  0.00    +0.078 C 
ATOM     17  C   UNL     1      37.738 -26.241 -13.393  0.00  0.00    +0.140 C 
ATOM     18  C   UNL     1      35.854 -24.328  -9.411  0.00  0.00    +0.054 C 
ENDBRANCH  10  14
ENDBRANCH   1   9
BRANCH   2  19
ATOM     19  O   UNL     1      35.094 -22.854 -19.499  0.00  0.00    -0.435 OA
BRANCH  19  27
ATOM     20  N   UNL     1      36.710 -17.989 -20.976  0.00  0.00    -0.373 NA
ATOM     21  N   UNL     1      35.393 -19.783 -21.128  0.00  0.00    -0.173 N 
ATOM     22  N   UNL     1      34.863 -21.012 -20.872  0.00  0.00    -0.138 NA
ATOM     23  C   UNL     1      35.788 -17.815 -21.977  0.00  0.00    +0.187 C 
ATOM     24  C   UNL     1      34.964 -18.908 -22.092  0.00  0.00    +0.193 C 
ATOM     25  C   UNL     1      36.456 -19.182 -20.476  0.00  0.00    +0.204 C 
ATOM     26  C   UNL     1      37.068 -19.911 -19.429  0.00  0.00    +0.054 C 
ATOM     27  C   UNL     1      35.467 -21.624 -19.906  0.00  0.00    +0.245 C 
ATOM     28  C   UNL     1      36.610 -21.128 -19.110  0.00  0.00    +0.063 C 
ATOM     29  O   UNL     1      33.941 -17.067 -24.232  0.00  0.00    -0.275 OA
ATOM     30  N   UNL     1      35.731 -16.676 -22.745  0.00  0.00    -0.261 N 
ATOM     31  C   UNL     1      34.845 -16.366 -23.797  0.00  0.00    +0.227 C 
ATOM     32  H   UNL     1      36.398 -15.985 -22.532  0.00  0.00    +0.157 HD
BRANCH  31  33
ATOM     33  C   UNL     1      35.066 -15.023 -24.420  0.00  0.00    +0.077 C 
ATOM     34  C   UNL     1      34.587 -13.797 -23.698  0.00  0.00    +0.010 C 
ATOM     35  C   UNL     1      33.885 -14.258 -24.942  0.00  0.00    +0.010 C 
ENDBRANCH  31  33
ENDBRANCH  19  27
ENDBRANCH   2  19
TORSDOF 5
ENDMDL
