MODEL 1
REMARK VINA RESULT:     -12.2      0.000      0.000
REMARK  Name = 51049992
REMARK  10 active torsions:
REMARK  status: ('A' for Active; 'I' for Inactive)
REMARK    1  A    between atoms: C_1  and  C_7
REMARK    2  A    between atoms: C_6  and  C_23
REMARK    3  A    between atoms: C_7  and  N_8
REMARK    4  A    between atoms: C_23  and  O_24
REMARK    5  A    between atoms: O_24  and  C_25
REMARK    6  A    between atoms: C_26  and  C_31
REMARK    7  A    between atoms: C_31  and  C_32
REMARK    8  A    between atoms: C_31  and  C_35
REMARK    9  A    between atoms: C_35  and  C_37
REMARK   10  A    between atoms: C_37  and  O_38
REMARK                            x       y       z     vdW  Elec       q    Type
REMARK                         _______ _______ _______ _____ _____    ______ ____
ROOT
ATOM      1  C   UNL     1      34.163 -13.307 -23.462  0.00  0.00    -0.043 C 
ATOM      2  C   UNL     1      33.307 -13.465 -22.371  0.00  0.00    -0.007 C 
ATOM      3  C   UNL     1      34.271 -12.065 -24.088  0.00  0.00    -0.007 C 
ATOM      4  C   UNL     1      32.561 -12.382 -21.908  0.00  0.00    -0.001 C 
ATOM      5  C   UNL     1      33.525 -10.982 -23.624  0.00  0.00    -0.001 C 
ATOM      6  C   UNL     1      32.670 -11.140 -22.534  0.00  0.00    +0.021 C 
ENDROOT
BRANCH   1   7
ATOM      7  C   UNL     1      34.967 -14.477 -23.962  0.00  0.00    -0.050 C 
BRANCH   7   8
ATOM      8  N   UNL     1      34.709 -15.688 -23.183  0.00  0.00    +0.390 N 
ATOM      9  C   UNL     1      35.427 -18.113 -21.669  0.00  0.00    +0.033 C 
ATOM     10  C   UNL     1      34.977 -16.806 -20.990  0.00  0.00    -0.015 C 
ATOM     11  C   UNL     1      34.907 -18.156 -23.117  0.00  0.00    -0.015 C 
ATOM     12  C   UNL     1      35.225 -16.870 -23.887  0.00  0.00    -0.076 C 
ATOM     13  C   UNL     1      35.293 -15.571 -21.841  0.00  0.00    -0.076 C 
ATOM     14  C   UNL     1      34.997 -19.333 -20.880  0.00  0.00    -0.019 C 
ATOM     15  C   UNL     1      36.944 -18.283 -21.612  0.00  0.00    -0.023 C 
ATOM     16  C   UNL     1      36.130 -20.049 -20.464  0.00  0.00    -0.004 C 
ATOM     17  C   UNL     1      37.326 -19.376 -20.932  0.00  0.00    -0.005 C 
ATOM     18  C   UNL     1      33.723 -19.772 -20.558  0.00  0.00    -0.004 C 
ATOM     19  C   UNL     1      36.013 -21.213 -19.722  0.00  0.00    -0.000 C 
ATOM     20  C   UNL     1      33.595 -20.945 -19.809  0.00  0.00    -0.000 C 
ATOM     21  C   UNL     1      34.730 -21.659 -19.395  0.00  0.00    -0.000 C 
ATOM     22  H   UNL     1      33.702 -15.802 -23.078  0.00  0.00    -0.079 HD
ENDBRANCH   7   8
ENDBRANCH   1   7
BRANCH   6  23
ATOM     23  C   UNL     1      31.875  -9.981 -22.036  0.00  0.00    +0.232 C 
BRANCH  23  24
ATOM     24  O   UNL     1      32.756  -8.991 -21.518  0.00  0.00    -0.471 OA
BRANCH  24  25
ATOM     25  C   UNL     1      32.923  -7.859 -22.270  0.00  0.00    +0.139 C 
ATOM     26  C   UNL     1      33.263  -5.551 -23.799  0.00  0.00    -0.010 C 
ATOM     27  C   UNL     1      34.207  -7.399 -22.563  0.00  0.00    +0.037 C 
ATOM     28  C   UNL     1      31.809  -7.164 -22.742  0.00  0.00    +0.037 C 
ATOM     29  C   UNL     1      34.377  -6.245 -23.328  0.00  0.00    -0.000 C 
ATOM     30  C   UNL     1      31.979  -6.010 -23.506  0.00  0.00    -0.000 C 
BRANCH  26  31
ATOM     31  C   UNL     1      33.444  -4.317 -24.618  0.00  0.00    +0.097 C 
BRANCH  31  32
ATOM     32  C   UNL     1      34.494  -4.496 -25.658  0.00  0.00    -0.087 C 
ATOM     33  C   UNL     1      35.329  -4.647 -26.509  0.00  0.00    -0.090 C 
ATOM     34  C   UNL     1      36.345  -4.832 -27.544  0.00  0.00    +0.090 C 
ENDBRANCH  31  32
BRANCH  31  35
ATOM     35  C   UNL     1      32.119  -3.846 -25.276  0.00  0.00    +0.127 C 
BRANCH  35  37
ATOM     36  O   UNL     1      30.340  -2.265 -24.735  0.00  0.00    -0.250 OA
ATOM     37  C   UNL     1      31.505  -2.621 -24.627  0.00  0.00    +0.315 C 
BRANCH  37  38
ATOM     38  O   UNL     1      32.419  -1.949 -23.878  0.00  0.00    -0.480 OA
ATOM     39  H   UNL     1      33.331  -2.140 -23.968  0.00  0.00    +0.295 HD
ENDBRANCH  37  38
ENDBRANCH  35  37
ENDBRANCH  31  35
ENDBRANCH  26  31
ENDBRANCH  24  25
ENDBRANCH  23  24
ENDBRANCH   6  23
TORSDOF 10
ENDMDL
MODEL 2
REMARK VINA RESULT:     -12.2      5.969     14.515
REMARK  Name = 51049992
REMARK  10 active torsions:
REMARK  status: ('A' for Active; 'I' for Inactive)
REMARK    1  A    between atoms: C_1  and  C_7
REMARK    2  A    between atoms: C_6  and  C_23
REMARK    3  A    between atoms: C_7  and  N_8
REMARK    4  A    between atoms: C_23  and  O_24
REMARK    5  A    between atoms: O_24  and  C_25
REMARK    6  A    between atoms: C_26  and  C_31
REMARK    7  A    between atoms: C_31  and  C_32
REMARK    8  A    between atoms: C_31  and  C_35
REMARK    9  A    between atoms: C_35  and  C_37
REMARK   10  A    between atoms: C_37  and  O_38
REMARK                            x       y       z     vdW  Elec       q    Type
REMARK                         _______ _______ _______ _____ _____    ______ ____
ROOT
ATOM      1  C   UNL     1      35.546 -17.777 -22.983  0.00  0.00    -0.043 C 
ATOM      2  C   UNL     1      36.817 -17.798 -22.408  0.00  0.00    -0.007 C 
ATOM      3  C   UNL     1      34.566 -18.664 -22.537  0.00  0.00    -0.007 C 
ATOM      4  C   UNL     1      37.107 -18.703 -21.387  0.00  0.00    -0.001 C 
ATOM      5  C   UNL     1      34.855 -19.569 -21.516  0.00  0.00    -0.001 C 
ATOM      6  C   UNL     1      36.126 -19.589 -20.941  0.00  0.00    +0.021 C 
ENDROOT
BRANCH   1   7
ATOM      7  C   UNL     1      35.235 -16.800 -24.084  0.00  0.00    -0.050 C 
BRANCH   7   8
ATOM      8  N   UNL     1      34.486 -15.644 -23.590  0.00  0.00    +0.390 N 
ATOM      9  C   UNL     1      33.783 -12.789 -23.378  0.00  0.00    +0.033 C 
ATOM     10  C   UNL     1      32.947 -13.798 -24.186  0.00  0.00    -0.015 C 
ATOM     11  C   UNL     1      34.604 -13.530 -22.306  0.00  0.00    -0.015 C 
ATOM     12  C   UNL     1      35.381 -14.716 -22.886  0.00  0.00    -0.076 C 
ATOM     13  C   UNL     1      33.787 -14.975 -24.695  0.00  0.00    -0.076 C 
ATOM     14  C   UNL     1      32.922 -11.700 -22.774  0.00  0.00    -0.019 C 
ATOM     15  C   UNL     1      34.677 -11.945 -24.285  0.00  0.00    -0.023 C 
ATOM     16  C   UNL     1      33.307 -10.453 -23.289  0.00  0.00    -0.004 C 
ATOM     17  C   UNL     1      34.399 -10.634 -24.226  0.00  0.00    -0.005 C 
ATOM     18  C   UNL     1      31.891 -11.799 -21.853  0.00  0.00    -0.004 C 
ATOM     19  C   UNL     1      32.673  -9.285 -22.898  0.00  0.00    -0.000 C 
ATOM     20  C   UNL     1      31.245 -10.626 -21.452  0.00  0.00    -0.000 C 
ATOM     21  C   UNL     1      31.633  -9.380 -21.969  0.00  0.00    -0.000 C 
ATOM     22  H   UNL     1      33.784 -15.967 -22.926  0.00  0.00    -0.079 HD
ENDBRANCH   7   8
ENDBRANCH   1   7
BRANCH   6  23
ATOM     23  C   UNL     1      36.434 -20.555 -19.848  0.00  0.00    +0.232 C 
BRANCH  23  24
ATOM     24  O   UNL     1      35.460 -21.592 -19.845  0.00  0.00    -0.471 OA
BRANCH  24  25
ATOM     25  C   UNL     1      35.003 -22.006 -18.622  0.00  0.00    +0.139 C 
ATOM     26  C   UNL     1      34.073 -22.851 -16.131  0.00  0.00    -0.010 C 
ATOM     27  C   UNL     1      35.869 -22.039 -17.528  0.00  0.00    +0.037 C 
ATOM     28  C   UNL     1      33.673 -22.396 -18.469  0.00  0.00    +0.037 C 
ATOM     29  C   UNL     1      35.403 -22.461 -16.282  0.00  0.00    -0.000 C 
ATOM     30  C   UNL     1      33.208 -22.819 -17.224  0.00  0.00    -0.000 C 
BRANCH  26  31
ATOM     31  C   UNL     1      33.575 -23.302 -14.799  0.00  0.00    +0.097 C 
BRANCH  31  32
ATOM     32  C   UNL     1      32.142 -23.701 -14.855  0.00  0.00    -0.087 C 
ATOM     33  C   UNL     1      30.984 -24.019 -14.918  0.00  0.00    -0.090 C 
ATOM     34  C   UNL     1      29.576 -24.404 -14.994  0.00  0.00    +0.090 C 
ENDBRANCH  31  32
BRANCH  31  35
ATOM     35  C   UNL     1      34.426 -24.461 -14.213  0.00  0.00    +0.127 C 
BRANCH  35  37
ATOM     36  O   UNL     1      36.101 -23.334 -12.841  0.00  0.00    -0.250 OA
ATOM     37  C   UNL     1      35.158 -24.107 -12.933  0.00  0.00    +0.315 C 
BRANCH  37  38
ATOM     38  O   UNL     1      34.623 -24.753 -11.863  0.00  0.00    -0.480 OA
ATOM     39  H   UNL     1      34.205 -24.266 -11.182  0.00  0.00    +0.295 HD
ENDBRANCH  37  38
ENDBRANCH  35  37
ENDBRANCH  31  35
ENDBRANCH  26  31
ENDBRANCH  24  25
ENDBRANCH  23  24
ENDBRANCH   6  23
TORSDOF 10
ENDMDL
MODEL 3
REMARK VINA RESULT:     -11.8      5.963     14.968
REMARK  Name = 51049992
REMARK  10 active torsions:
REMARK  status: ('A' for Active; 'I' for Inactive)
REMARK    1  A    between atoms: C_1  and  C_7
REMARK    2  A    between atoms: C_6  and  C_23
REMARK    3  A    between atoms: C_7  and  N_8
REMARK    4  A    between atoms: C_23  and  O_24
REMARK    5  A    between atoms: O_24  and  C_25
REMARK    6  A    between atoms: C_26  and  C_31
REMARK    7  A    between atoms: C_31  and  C_32
REMARK    8  A    between atoms: C_31  and  C_35
REMARK    9  A    between atoms: C_35  and  C_37
REMARK   10  A    between atoms: C_37  and  O_38
REMARK                            x       y       z     vdW  Elec       q    Type
REMARK                         _______ _______ _______ _____ _____    ______ ____
ROOT
ATOM      1  C   UNL     1      35.469 -17.977 -22.704  0.00  0.00    -0.043 C 
ATOM      2  C   UNL     1      36.630 -18.164 -21.952  0.00  0.00    -0.007 C 
ATOM      3  C   UNL     1      34.360 -18.796 -22.489  0.00  0.00    -0.007 C 
ATOM      4  C   UNL     1      36.680 -19.168 -20.985  0.00  0.00    -0.001 C 
ATOM      5  C   UNL     1      34.411 -19.800 -21.522  0.00  0.00    -0.001 C 
ATOM      6  C   UNL     1      35.571 -19.986 -20.771  0.00  0.00    +0.021 C 
ENDROOT
BRANCH   1   7
ATOM      7  C   UNL     1      35.415 -16.893 -23.747  0.00  0.00    -0.050 C 
BRANCH   7   8
ATOM      8  N   UNL     1      34.615 -15.751 -23.304  0.00  0.00    +0.390 N 
ATOM      9  C   UNL     1      33.814 -12.917 -23.182  0.00  0.00    +0.033 C 
ATOM     10  C   UNL     1      33.037 -13.971 -23.991  0.00  0.00    -0.015 C 
ATOM     11  C   UNL     1      34.623 -13.606 -22.068  0.00  0.00    -0.015 C 
ATOM     12  C   UNL     1      35.456 -14.779 -22.594  0.00  0.00    -0.076 C 
ATOM     13  C   UNL     1      33.930 -15.130 -24.446  0.00  0.00    -0.076 C 
ATOM     14  C   UNL     1      32.899 -11.843 -22.631  0.00  0.00    -0.019 C 
ATOM     15  C   UNL     1      34.710 -12.065 -24.081  0.00  0.00    -0.023 C 
ATOM     16  C   UNL     1      33.261 -10.596 -23.164  0.00  0.00    -0.004 C 
ATOM     17  C   UNL     1      34.387 -10.763 -24.061  0.00  0.00    -0.005 C 
ATOM     18  C   UNL     1      31.843 -11.954 -21.741  0.00  0.00    -0.004 C 
ATOM     19  C   UNL     1      32.577  -9.441 -22.820  0.00  0.00    -0.000 C 
ATOM     20  C   UNL     1      31.148 -10.795 -21.388  0.00  0.00    -0.000 C 
ATOM     21  C   UNL     1      31.512  -9.549 -21.923  0.00  0.00    -0.000 C 
ATOM     22  H   UNL     1      33.902 -16.082 -22.654  0.00  0.00    -0.079 HD
ENDBRANCH   7   8
ENDBRANCH   1   7
BRANCH   6  23
ATOM     23  C   UNL     1      35.624 -21.058 -19.735  0.00  0.00    +0.232 C 
BRANCH  23  24
ATOM     24  O   UNL     1      36.513 -20.667 -18.695  0.00  0.00    -0.471 OA
BRANCH  24  25
ATOM     25  C   UNL     1      36.570 -21.480 -17.594  0.00  0.00    +0.139 C 
ATOM     26  C   UNL     1      36.687 -23.138 -15.354  0.00  0.00    -0.010 C 
ATOM     27  C   UNL     1      37.753 -21.580 -16.861  0.00  0.00    +0.037 C 
ATOM     28  C   UNL     1      35.446 -22.210 -17.207  0.00  0.00    +0.037 C 
ATOM     29  C   UNL     1      37.811 -22.409 -15.740  0.00  0.00    -0.000 C 
ATOM     30  C   UNL     1      35.505 -23.039 -16.087  0.00  0.00    -0.000 C 
BRANCH  26  31
ATOM     31  C   UNL     1      36.749 -24.025 -14.156  0.00  0.00    +0.097 C 
BRANCH  31  32
ATOM     32  C   UNL     1      38.079 -24.681 -14.025  0.00  0.00    -0.087 C 
ATOM     33  C   UNL     1      39.147 -25.223 -13.932  0.00  0.00    -0.090 C 
ATOM     34  C   UNL     1      40.446 -25.884 -13.816  0.00  0.00    +0.090 C 
ENDBRANCH  31  32
BRANCH  31  35
ATOM     35  C   UNL     1      36.398 -23.270 -12.845  0.00  0.00    +0.127 C 
BRANCH  35  37
ATOM     36  O   UNL     1      37.101 -24.308 -10.751  0.00  0.00    -0.250 OA
ATOM     37  C   UNL     1      36.262 -24.168 -11.630  0.00  0.00    +0.315 C 
BRANCH  37  38
ATOM     38  O   UNL     1      35.063 -24.807 -11.619  0.00  0.00    -0.480 OA
ATOM     39  H   UNL     1      34.274 -24.321 -11.483  0.00  0.00    +0.295 HD
ENDBRANCH  37  38
ENDBRANCH  35  37
ENDBRANCH  31  35
ENDBRANCH  26  31
ENDBRANCH  24  25
ENDBRANCH  23  24
ENDBRANCH   6  23
TORSDOF 10
ENDMDL
MODEL 4
REMARK VINA RESULT:     -11.8      4.933     13.767
REMARK  Name = 51049992
REMARK  10 active torsions:
REMARK  status: ('A' for Active; 'I' for Inactive)
REMARK    1  A    between atoms: C_1  and  C_7
REMARK    2  A    between atoms: C_6  and  C_23
REMARK    3  A    between atoms: C_7  and  N_8
REMARK    4  A    between atoms: C_23  and  O_24
REMARK    5  A    between atoms: O_24  and  C_25
REMARK    6  A    between atoms: C_26  and  C_31
REMARK    7  A    between atoms: C_31  and  C_32
REMARK    8  A    between atoms: C_31  and  C_35
REMARK    9  A    between atoms: C_35  and  C_37
REMARK   10  A    between atoms: C_37  and  O_38
REMARK                            x       y       z     vdW  Elec       q    Type
REMARK                         _______ _______ _______ _____ _____    ______ ____
ROOT
ATOM      1  C   UNL     1      34.432 -14.116 -23.590  0.00  0.00    -0.043 C 
ATOM      2  C   UNL     1      34.775 -15.296 -24.251  0.00  0.00    -0.007 C 
ATOM      3  C   UNL     1      34.506 -14.050 -22.199  0.00  0.00    -0.007 C 
ATOM      4  C   UNL     1      35.193 -16.408 -23.521  0.00  0.00    -0.001 C 
ATOM      5  C   UNL     1      34.924 -15.162 -21.468  0.00  0.00    -0.001 C 
ATOM      6  C   UNL     1      35.267 -16.341 -22.129  0.00  0.00    +0.021 C 
ENDROOT
BRANCH   1   7
ATOM      7  C   UNL     1      33.981 -12.916 -24.379  0.00  0.00    -0.050 C 
BRANCH   7   8
ATOM      8  N   UNL     1      33.825 -11.734 -23.530  0.00  0.00    +0.390 N 
ATOM      9  C   UNL     1      32.750  -9.098 -22.767  0.00  0.00    +0.033 C 
ATOM     10  C   UNL     1      32.266 -10.413 -22.131  0.00  0.00    -0.015 C 
ATOM     11  C   UNL     1      34.162  -9.287 -23.351  0.00  0.00    -0.015 C 
ATOM     12  C   UNL     1      34.259 -10.527 -24.246  0.00  0.00    -0.076 C 
ATOM     13  C   UNL     1      32.435 -11.611 -23.073  0.00  0.00    -0.076 C 
ATOM     14  C   UNL     1      32.697  -7.945 -21.785  0.00  0.00    -0.019 C 
ATOM     15  C   UNL     1      31.770  -8.589 -23.823  0.00  0.00    -0.023 C 
ATOM     16  C   UNL     1      31.813  -6.963 -22.257  0.00  0.00    -0.004 C 
ATOM     17  C   UNL     1      31.251  -7.388 -23.524  0.00  0.00    -0.005 C 
ATOM     18  C   UNL     1      33.368  -7.778 -20.585  0.00  0.00    -0.004 C 
ATOM     19  C   UNL     1      31.582  -5.800 -21.542  0.00  0.00    -0.000 C 
ATOM     20  C   UNL     1      33.142  -6.607 -19.856  0.00  0.00    -0.000 C 
ATOM     21  C   UNL     1      32.256  -5.626 -20.330  0.00  0.00    -0.000 C 
ATOM     22  H   UNL     1      34.417 -11.840 -22.707  0.00  0.00    -0.079 HD
ENDBRANCH   7   8
ENDBRANCH   1   7
BRANCH   6  23
ATOM     23  C   UNL     1      35.716 -17.530 -21.349  0.00  0.00    +0.232 C 
BRANCH  23  24
ATOM     24  O   UNL     1      35.037 -18.689 -21.819  0.00  0.00    -0.471 OA
BRANCH  24  25
ATOM     25  C   UNL     1      34.686 -19.622 -20.879  0.00  0.00    +0.139 C 
ATOM     26  C   UNL     1      33.972 -21.520 -18.964  0.00  0.00    -0.010 C 
ATOM     27  C   UNL     1      33.341 -19.840 -20.580  0.00  0.00    +0.037 C 
ATOM     28  C   UNL     1      35.674 -20.353 -20.219  0.00  0.00    +0.037 C 
ATOM     29  C   UNL     1      32.984 -20.790 -19.623  0.00  0.00    -0.000 C 
ATOM     30  C   UNL     1      35.317 -21.302 -19.261  0.00  0.00    -0.000 C 
BRANCH  26  31
ATOM     31  C   UNL     1      33.591 -22.536 -17.940  0.00  0.00    +0.097 C 
BRANCH  31  32
ATOM     32  C   UNL     1      34.630 -22.666 -16.882  0.00  0.00    -0.087 C 
ATOM     33  C   UNL     1      35.478 -22.758 -16.035  0.00  0.00    -0.090 C 
ATOM     34  C   UNL     1      36.511 -22.871 -15.007  0.00  0.00    +0.090 C 
ENDBRANCH  31  32
BRANCH  31  35
ATOM     35  C   UNL     1      32.211 -22.234 -17.295  0.00  0.00    +0.127 C 
BRANCH  35  37
ATOM     36  O   UNL     1      31.659 -24.243 -16.023  0.00  0.00    -0.250 OA
ATOM     37  C   UNL     1      31.917 -23.048 -16.049  0.00  0.00    +0.315 C 
BRANCH  37  38
ATOM     38  O   UNL     1      31.989 -22.281 -14.930  0.00  0.00    -0.480 OA
ATOM     39  H   UNL     1      31.281 -21.710 -14.707  0.00  0.00    +0.295 HD
ENDBRANCH  37  38
ENDBRANCH  35  37
ENDBRANCH  31  35
ENDBRANCH  26  31
ENDBRANCH  24  25
ENDBRANCH  23  24
ENDBRANCH   6  23
TORSDOF 10
ENDMDL
MODEL 5
REMARK VINA RESULT:     -11.8      3.759     13.480
REMARK  Name = 51049992
REMARK  10 active torsions:
REMARK  status: ('A' for Active; 'I' for Inactive)
REMARK    1  A    between atoms: C_1  and  C_7
REMARK    2  A    between atoms: C_6  and  C_23
REMARK    3  A    between atoms: C_7  and  N_8
REMARK    4  A    between atoms: C_23  and  O_24
REMARK    5  A    between atoms: O_24  and  C_25
REMARK    6  A    between atoms: C_26  and  C_31
REMARK    7  A    between atoms: C_31  and  C_32
REMARK    8  A    between atoms: C_31  and  C_35
REMARK    9  A    between atoms: C_35  and  C_37
REMARK   10  A    between atoms: C_37  and  O_38
REMARK                            x       y       z     vdW  Elec       q    Type
REMARK                         _______ _______ _______ _____ _____    ______ ____
ROOT
ATOM      1  C   UNL     1      32.912 -11.077 -22.551  0.00  0.00    -0.043 C 
ATOM      2  C   UNL     1      33.692 -10.982 -23.704  0.00  0.00    -0.007 C 
ATOM      3  C   UNL     1      32.667 -12.325 -21.978  0.00  0.00    -0.007 C 
ATOM      4  C   UNL     1      34.227 -12.133 -24.282  0.00  0.00    -0.001 C 
ATOM      5  C   UNL     1      33.201 -13.476 -22.556  0.00  0.00    -0.001 C 
ATOM      6  C   UNL     1      33.981 -13.380 -23.708  0.00  0.00    +0.021 C 
ENDROOT
BRANCH   1   7
ATOM      7  C   UNL     1      32.335  -9.835 -21.928  0.00  0.00    -0.050 C 
BRANCH   7   8
ATOM      8  N   UNL     1      32.620  -8.642 -22.727  0.00  0.00    +0.390 N 
ATOM      9  C   UNL     1      32.566  -5.768 -23.377  0.00  0.00    +0.033 C 
ATOM     10  C   UNL     1      33.811  -6.473 -22.809  0.00  0.00    -0.015 C 
ATOM     11  C   UNL     1      31.649  -6.797 -24.063  0.00  0.00    -0.015 C 
ATOM     12  C   UNL     1      31.370  -8.012 -23.172  0.00  0.00    -0.076 C 
ATOM     13  C   UNL     1      33.450  -7.700 -21.965  0.00  0.00    -0.076 C 
ATOM     14  C   UNL     1      32.938  -4.635 -24.311  0.00  0.00    -0.019 C 
ATOM     15  C   UNL     1      31.821  -4.985 -22.296  0.00  0.00    -0.023 C 
ATOM     16  C   UNL     1      32.456  -3.421 -23.796  0.00  0.00    -0.004 C 
ATOM     17  C   UNL     1      31.767  -3.667 -22.545  0.00  0.00    -0.005 C 
ATOM     18  C   UNL     1      33.638  -4.670 -25.506  0.00  0.00    -0.004 C 
ATOM     19  C   UNL     1      32.663  -2.224 -24.462  0.00  0.00    -0.000 C 
ATOM     20  C   UNL     1      33.852  -3.468 -26.185  0.00  0.00    -0.000 C 
ATOM     21  C   UNL     1      33.369  -2.255 -25.668  0.00  0.00    -0.000 C 
ATOM     22  H   UNL     1      33.143  -8.920 -23.556  0.00  0.00    -0.079 HD
ENDBRANCH   7   8
ENDBRANCH   1   7
BRANCH   6  23
ATOM     23  C   UNL     1      34.555 -14.610 -24.324  0.00  0.00    +0.232 C 
BRANCH  23  24
ATOM     24  O   UNL     1      35.586 -15.122 -23.487  0.00  0.00    -0.471 OA
BRANCH  24  25
ATOM     25  C   UNL     1      35.364 -16.346 -22.914  0.00  0.00    +0.139 C 
ATOM     26  C   UNL     1      34.915 -18.840 -21.747  0.00  0.00    -0.010 C 
ATOM     27  C   UNL     1      35.536 -16.516 -21.540  0.00  0.00    +0.037 C 
ATOM     28  C   UNL     1      34.967 -17.425 -23.704  0.00  0.00    +0.037 C 
ATOM     29  C   UNL     1      35.311 -17.763 -20.956  0.00  0.00    -0.000 C 
ATOM     30  C   UNL     1      34.743 -18.672 -23.121  0.00  0.00    -0.000 C 
BRANCH  26  31
ATOM     31  C   UNL     1      34.674 -20.174 -21.124  0.00  0.00    +0.097 C 
BRANCH  31  32
ATOM     32  C   UNL     1      35.637 -20.448 -20.022  0.00  0.00    -0.087 C 
ATOM     33  C   UNL     1      36.403 -20.680 -19.125  0.00  0.00    -0.090 C 
ATOM     34  C   UNL     1      37.332 -20.961 -18.032  0.00  0.00    +0.090 C 
ENDBRANCH  31  32
BRANCH  31  35
ATOM     35  C   UNL     1      33.218 -20.331 -20.608  0.00  0.00    +0.127 C 
BRANCH  35  37
ATOM     36  O   UNL     1      33.507 -22.557 -19.650  0.00  0.00    -0.250 OA
ATOM     37  C   UNL     1      33.039 -21.429 -19.578  0.00  0.00    +0.315 C 
BRANCH  37  38
ATOM     38  O   UNL     1      32.289 -21.003 -18.527  0.00  0.00    -0.480 OA
ATOM     39  H   UNL     1      31.454 -20.608 -18.678  0.00  0.00    +0.295 HD
ENDBRANCH  37  38
ENDBRANCH  35  37
ENDBRANCH  31  35
ENDBRANCH  26  31
ENDBRANCH  24  25
ENDBRANCH  23  24
ENDBRANCH   6  23
TORSDOF 10
ENDMDL
MODEL 6
REMARK VINA RESULT:     -11.8      5.930     14.509
REMARK  Name = 51049992
REMARK  10 active torsions:
REMARK  status: ('A' for Active; 'I' for Inactive)
REMARK    1  A    between atoms: C_1  and  C_7
REMARK    2  A    between atoms: C_6  and  C_23
REMARK    3  A    between atoms: C_7  and  N_8
REMARK    4  A    between atoms: C_23  and  O_24
REMARK    5  A    between atoms: O_24  and  C_25
REMARK    6  A    between atoms: C_26  and  C_31
REMARK    7  A    between atoms: C_31  and  C_32
REMARK    8  A    between atoms: C_31  and  C_35
REMARK    9  A    between atoms: C_35  and  C_37
REMARK   10  A    between atoms: C_37  and  O_38
REMARK                            x       y       z     vdW  Elec       q    Type
REMARK                         _______ _______ _______ _____ _____    ______ ____
ROOT
ATOM      1  C   UNL     1      35.518 -17.782 -22.935  0.00  0.00    -0.043 C 
ATOM      2  C   UNL     1      36.761 -17.857 -22.307  0.00  0.00    -0.007 C 
ATOM      3  C   UNL     1      34.494 -18.652 -22.560  0.00  0.00    -0.007 C 
ATOM      4  C   UNL     1      36.980 -18.802 -21.305  0.00  0.00    -0.001 C 
ATOM      5  C   UNL     1      34.713 -19.597 -21.557  0.00  0.00    -0.001 C 
ATOM      6  C   UNL     1      35.956 -19.671 -20.930  0.00  0.00    +0.021 C 
ENDROOT
BRANCH   1   7
ATOM      7  C   UNL     1      35.282 -16.762 -24.017  0.00  0.00    -0.050 C 
BRANCH   7   8
ATOM      8  N   UNL     1      34.524 -15.612 -23.525  0.00  0.00    +0.390 N 
ATOM      9  C   UNL     1      33.782 -12.765 -23.333  0.00  0.00    +0.033 C 
ATOM     10  C   UNL     1      32.949 -13.795 -24.118  0.00  0.00    -0.015 C 
ATOM     11  C   UNL     1      34.628 -13.482 -22.265  0.00  0.00    -0.015 C 
ATOM     12  C   UNL     1      35.415 -14.663 -22.843  0.00  0.00    -0.076 C 
ATOM     13  C   UNL     1      33.799 -14.965 -24.626  0.00  0.00    -0.076 C 
ATOM     14  C   UNL     1      32.913 -11.682 -22.728  0.00  0.00    -0.019 C 
ATOM     15  C   UNL     1      34.651 -11.918 -24.262  0.00  0.00    -0.023 C 
ATOM     16  C   UNL     1      33.273 -10.435 -23.263  0.00  0.00    -0.004 C 
ATOM     17  C   UNL     1      34.354 -10.611 -24.213  0.00  0.00    -0.005 C 
ATOM     18  C   UNL     1      31.897 -11.785 -21.792  0.00  0.00    -0.004 C 
ATOM     19  C   UNL     1      32.627  -9.273 -22.874  0.00  0.00    -0.000 C 
ATOM     20  C   UNL     1      31.240 -10.618 -21.394  0.00  0.00    -0.000 C 
ATOM     21  C   UNL     1      31.602  -9.372 -21.930  0.00  0.00    -0.000 C 
ATOM     22  H   UNL     1      33.836 -15.938 -22.847  0.00  0.00    -0.079 HD
ENDBRANCH   7   8
ENDBRANCH   1   7
BRANCH   6  23
ATOM     23  C   UNL     1      36.189 -20.679 -19.856  0.00  0.00    +0.232 C 
BRANCH  23  24
ATOM     24  O   UNL     1      35.024 -21.480 -19.698  0.00  0.00    -0.471 OA
BRANCH  24  25
ATOM     25  C   UNL     1      34.823 -22.040 -18.464  0.00  0.00    +0.139 C 
ATOM     26  C   UNL     1      34.414 -23.184 -15.952  0.00  0.00    -0.010 C 
ATOM     27  C   UNL     1      35.840 -22.011 -17.510  0.00  0.00    +0.037 C 
ATOM     28  C   UNL     1      33.601 -22.642 -18.162  0.00  0.00    +0.037 C 
ATOM     29  C   UNL     1      35.636 -22.583 -16.254  0.00  0.00    -0.000 C 
ATOM     30  C   UNL     1      33.397 -23.214 -16.906  0.00  0.00    -0.000 C 
BRANCH  26  31
ATOM     31  C   UNL     1      34.195 -23.795 -14.610  0.00  0.00    +0.097 C 
BRANCH  31  32
ATOM     32  C   UNL     1      35.331 -23.519 -13.687  0.00  0.00    -0.087 C 
ATOM     33  C   UNL     1      36.240 -23.281 -12.938  0.00  0.00    -0.090 C 
ATOM     34  C   UNL     1      37.346 -22.989 -12.029  0.00  0.00    +0.090 C 
ENDBRANCH  31  32
BRANCH  31  35
ATOM     35  C   UNL     1      32.861 -23.335 -13.962  0.00  0.00    +0.127 C 
BRANCH  35  37
ATOM     36  O   UNL     1      31.846 -25.188 -12.742  0.00  0.00    -0.250 OA
ATOM     37  C   UNL     1      31.869 -24.456 -13.721  0.00  0.00    +0.315 C 
BRANCH  37  38
ATOM     38  O   UNL     1      30.972 -24.549 -14.738  0.00  0.00    -0.480 OA
ATOM     39  H   UNL     1      30.847 -23.826 -15.320  0.00  0.00    +0.295 HD
ENDBRANCH  37  38
ENDBRANCH  35  37
ENDBRANCH  31  35
ENDBRANCH  26  31
ENDBRANCH  24  25
ENDBRANCH  23  24
ENDBRANCH   6  23
TORSDOF 10
ENDMDL
MODEL 7
REMARK VINA RESULT:     -11.6      1.581      2.835
REMARK  Name = 51049992
REMARK  10 active torsions:
REMARK  status: ('A' for Active; 'I' for Inactive)
REMARK    1  A    between atoms: C_1  and  C_7
REMARK    2  A    between atoms: C_6  and  C_23
REMARK    3  A    between atoms: C_7  and  N_8
REMARK    4  A    between atoms: C_23  and  O_24
REMARK    5  A    between atoms: O_24  and  C_25
REMARK    6  A    between atoms: C_26  and  C_31
REMARK    7  A    between atoms: C_31  and  C_32
REMARK    8  A    between atoms: C_31  and  C_35
REMARK    9  A    between atoms: C_35  and  C_37
REMARK   10  A    between atoms: C_37  and  O_38
REMARK                            x       y       z     vdW  Elec       q    Type
REMARK                         _______ _______ _______ _____ _____    ______ ____
ROOT
ATOM      1  C   UNL     1      34.774 -15.630 -24.401  0.00  0.00    -0.043 C 
ATOM      2  C   UNL     1      35.331 -15.018 -23.278  0.00  0.00    -0.007 C 
ATOM      3  C   UNL     1      33.816 -14.956 -25.159  0.00  0.00    -0.007 C 
ATOM      4  C   UNL     1      34.931 -13.732 -22.914  0.00  0.00    -0.001 C 
ATOM      5  C   UNL     1      33.416 -13.671 -24.795  0.00  0.00    -0.001 C 
ATOM      6  C   UNL     1      33.974 -13.059 -23.672  0.00  0.00    +0.021 C 
ENDROOT
BRANCH   1   7
ATOM      7  C   UNL     1      35.206 -17.018 -24.793  0.00  0.00    -0.050 C 
BRANCH   7   8
ATOM      8  N   UNL     1      35.506 -17.845 -23.625  0.00  0.00    +0.390 N 
ATOM      9  C   UNL     1      34.874 -19.569 -21.318  0.00  0.00    +0.033 C 
ATOM     10  C   UNL     1      35.412 -20.120 -22.651  0.00  0.00    -0.015 C 
ATOM     11  C   UNL     1      35.260 -18.085 -21.172  0.00  0.00    -0.015 C 
ATOM     12  C   UNL     1      34.902 -17.266 -22.417  0.00  0.00    -0.076 C 
ATOM     13  C   UNL     1      35.049 -19.224 -23.840  0.00  0.00    -0.076 C 
ATOM     14  C   UNL     1      35.345 -20.392 -20.137  0.00  0.00    -0.019 C 
ATOM     15  C   UNL     1      33.364 -19.771 -21.194  0.00  0.00    -0.023 C 
ATOM     16  C   UNL     1      34.239 -20.951 -19.480  0.00  0.00    -0.004 C 
ATOM     17  C   UNL     1      33.022 -20.549 -20.157  0.00  0.00    -0.005 C 
ATOM     18  C   UNL     1      36.633 -20.627 -19.683  0.00  0.00    -0.004 C 
ATOM     19  C   UNL     1      34.396 -21.752 -18.361  0.00  0.00    -0.000 C 
ATOM     20  C   UNL     1      36.802 -21.434 -18.555  0.00  0.00    -0.000 C 
ATOM     21  C   UNL     1      35.693 -21.992 -17.900  0.00  0.00    -0.000 C 
ATOM     22  H   UNL     1      36.516 -17.868 -23.489  0.00  0.00    -0.079 HD
ENDBRANCH   7   8
ENDBRANCH   1   7
BRANCH   6  23
ATOM     23  C   UNL     1      33.548 -11.683 -23.285  0.00  0.00    +0.232 C 
BRANCH  23  24
ATOM     24  O   UNL     1      34.532 -10.747 -23.709  0.00  0.00    -0.471 OA
BRANCH  24  25
ATOM     25  C   UNL     1      34.193  -9.421 -23.640  0.00  0.00    +0.139 C 
ATOM     26  C   UNL     1      33.502  -6.722 -23.503  0.00  0.00    -0.010 C 
ATOM     27  C   UNL     1      32.883  -9.051 -23.338  0.00  0.00    +0.037 C 
ATOM     28  C   UNL     1      35.158  -8.441 -23.874  0.00  0.00    +0.037 C 
ATOM     29  C   UNL     1      32.537  -7.701 -23.269  0.00  0.00    -0.000 C 
ATOM     30  C   UNL     1      34.812  -7.092 -23.805  0.00  0.00    -0.000 C 
BRANCH  26  31
ATOM     31  C   UNL     1      33.134  -5.279 -23.429  0.00  0.00    +0.097 C 
BRANCH  31  32
ATOM     32  C   UNL     1      33.628  -4.524 -24.613  0.00  0.00    -0.087 C 
ATOM     33  C   UNL     1      34.012  -3.917 -25.577  0.00  0.00    -0.090 C 
ATOM     34  C   UNL     1      34.478  -3.181 -26.750  0.00  0.00    +0.090 C 
ENDBRANCH  31  32
BRANCH  31  35
ATOM     35  C   UNL     1      31.604  -5.067 -23.265  0.00  0.00    +0.127 C 
BRANCH  35  37
ATOM     36  O   UNL     1      31.179  -5.273 -20.871  0.00  0.00    -0.250 OA
ATOM     37  C   UNL     1      31.187  -4.593 -21.887  0.00  0.00    +0.315 C 
BRANCH  37  38
ATOM     38  O   UNL     1      30.826  -3.282 -21.904  0.00  0.00    -0.480 OA
ATOM     39  H   UNL     1      30.530  -2.868 -21.119  0.00  0.00    +0.295 HD
ENDBRANCH  37  38
ENDBRANCH  35  37
ENDBRANCH  31  35
ENDBRANCH  26  31
ENDBRANCH  24  25
ENDBRANCH  23  24
ENDBRANCH   6  23
TORSDOF 10
ENDMDL
MODEL 8
REMARK VINA RESULT:     -11.5      4.759      9.230
REMARK  Name = 51049992
REMARK  10 active torsions:
REMARK  status: ('A' for Active; 'I' for Inactive)
REMARK    1  A    between atoms: C_1  and  C_7
REMARK    2  A    between atoms: C_6  and  C_23
REMARK    3  A    between atoms: C_7  and  N_8
REMARK    4  A    between atoms: C_23  and  O_24
REMARK    5  A    between atoms: O_24  and  C_25
REMARK    6  A    between atoms: C_26  and  C_31
REMARK    7  A    between atoms: C_31  and  C_32
REMARK    8  A    between atoms: C_31  and  C_35
REMARK    9  A    between atoms: C_35  and  C_37
REMARK   10  A    between atoms: C_37  and  O_38
REMARK                            x       y       z     vdW  Elec       q    Type
REMARK                         _______ _______ _______ _____ _____    ______ ____
ROOT
ATOM      1  C   UNL     1      33.868 -21.464 -19.019  0.00  0.00    -0.043 C 
ATOM      2  C   UNL     1      33.065 -20.648 -19.817  0.00  0.00    -0.007 C 
ATOM      3  C   UNL     1      35.257 -21.393 -19.125  0.00  0.00    -0.007 C 
ATOM      4  C   UNL     1      33.651 -19.763 -20.721  0.00  0.00    -0.001 C 
ATOM      5  C   UNL     1      35.843 -20.507 -20.029  0.00  0.00    -0.001 C 
ATOM      6  C   UNL     1      35.041 -19.692 -20.827  0.00  0.00    +0.021 C 
ENDROOT
BRANCH   1   7
ATOM      7  C   UNL     1      33.234 -22.420 -18.044  0.00  0.00    -0.050 C 
BRANCH   7   8
ATOM      8  N   UNL     1      34.025 -22.552 -16.819  0.00  0.00    +0.390 N 
ATOM      9  C   UNL     1      35.732 -23.943 -14.861  0.00  0.00    +0.033 C 
ATOM     10  C   UNL     1      36.283 -22.922 -15.872  0.00  0.00    -0.015 C 
ATOM     11  C   UNL     1      34.230 -23.696 -14.633  0.00  0.00    -0.015 C 
ATOM     12  C   UNL     1      33.452 -23.588 -15.948  0.00  0.00    -0.076 C 
ATOM     13  C   UNL     1      35.427 -22.843 -17.142  0.00  0.00    -0.076 C 
ATOM     14  C   UNL     1      36.510 -23.922 -13.561  0.00  0.00    -0.019 C 
ATOM     15  C   UNL     1      36.004 -25.379 -15.307  0.00  0.00    -0.023 C 
ATOM     16  C   UNL     1      37.108 -25.173 -13.348  0.00  0.00    -0.004 C 
ATOM     17  C   UNL     1      36.779 -26.059 -14.447  0.00  0.00    -0.005 C 
ATOM     18  C   UNL     1      36.675 -22.893 -12.648  0.00  0.00    -0.004 C 
ATOM     19  C   UNL     1      37.881 -25.420 -12.225  0.00  0.00    -0.000 C 
ATOM     20  C   UNL     1      37.451 -23.132 -11.511  0.00  0.00    -0.000 C 
ATOM     21  C   UNL     1      38.049 -24.385 -11.301  0.00  0.00    -0.000 C 
ATOM     22  H   UNL     1      33.997 -21.668 -16.313  0.00  0.00    -0.079 HD
ENDBRANCH   7   8
ENDBRANCH   1   7
BRANCH   6  23
ATOM     23  C   UNL     1      35.668 -18.743 -21.790  0.00  0.00    +0.232 C 
BRANCH  23  24
ATOM     24  O   UNL     1      35.964 -17.520 -21.125  0.00  0.00    -0.471 OA
BRANCH  24  25
ATOM     25  C   UNL     1      35.365 -16.390 -21.615  0.00  0.00    +0.139 C 
ATOM     26  C   UNL     1      34.142 -14.090 -22.612  0.00  0.00    -0.010 C 
ATOM     27  C   UNL     1      34.870 -15.426 -20.737  0.00  0.00    +0.037 C 
ATOM     28  C   UNL     1      35.248 -16.204 -22.992  0.00  0.00    +0.037 C 
ATOM     29  C   UNL     1      34.259 -14.276 -21.235  0.00  0.00    -0.000 C 
ATOM     30  C   UNL     1      34.636 -15.054 -23.491  0.00  0.00    -0.000 C 
BRANCH  26  31
ATOM     31  C   UNL     1      33.488 -12.860 -23.147  0.00  0.00    +0.097 C 
BRANCH  31  32
ATOM     32  C   UNL     1      32.675 -12.173 -22.106  0.00  0.00    -0.087 C 
ATOM     33  C   UNL     1      32.014 -11.607 -21.277  0.00  0.00    -0.090 C 
ATOM     34  C   UNL     1      31.212 -10.916 -20.270  0.00  0.00    +0.090 C 
ENDBRANCH  31  32
BRANCH  31  35
ATOM     35  C   UNL     1      34.512 -11.868 -23.762  0.00  0.00    +0.127 C 
BRANCH  35  37
ATOM     36  O   UNL     1      33.662 -12.316 -26.005  0.00  0.00    -0.250 OA
ATOM     37  C   UNL     1      34.322 -11.621 -25.246  0.00  0.00    +0.315 C 
BRANCH  37  38
ATOM     38  O   UNL     1      34.975 -10.498 -25.647  0.00  0.00    -0.480 OA
ATOM     39  H   UNL     1      34.806 -10.135 -26.493  0.00  0.00    +0.295 HD
ENDBRANCH  37  38
ENDBRANCH  35  37
ENDBRANCH  31  35
ENDBRANCH  26  31
ENDBRANCH  24  25
ENDBRANCH  23  24
ENDBRANCH   6  23
TORSDOF 10
ENDMDL
MODEL 9
REMARK VINA RESULT:     -11.5      4.202     13.543
REMARK  Name = 51049992
REMARK  10 active torsions:
REMARK  status: ('A' for Active; 'I' for Inactive)
REMARK    1  A    between atoms: C_1  and  C_7
REMARK    2  A    between atoms: C_6  and  C_23
REMARK    3  A    between atoms: C_7  and  N_8
REMARK    4  A    between atoms: C_23  and  O_24
REMARK    5  A    between atoms: O_24  and  C_25
REMARK    6  A    between atoms: C_26  and  C_31
REMARK    7  A    between atoms: C_31  and  C_32
REMARK    8  A    between atoms: C_31  and  C_35
REMARK    9  A    between atoms: C_35  and  C_37
REMARK   10  A    between atoms: C_37  and  O_38
REMARK                            x       y       z     vdW  Elec       q    Type
REMARK                         _______ _______ _______ _____ _____    ______ ____
ROOT
ATOM      1  C   UNL     1      33.305 -13.060 -21.838  0.00  0.00    -0.043 C 
ATOM      2  C   UNL     1      33.155 -13.420 -23.178  0.00  0.00    -0.007 C 
ATOM      3  C   UNL     1      34.157 -13.793 -21.011  0.00  0.00    -0.007 C 
ATOM      4  C   UNL     1      33.857 -14.510 -23.690  0.00  0.00    -0.001 C 
ATOM      5  C   UNL     1      34.859 -14.884 -21.524  0.00  0.00    -0.001 C 
ATOM      6  C   UNL     1      34.708 -15.243 -22.863  0.00  0.00    +0.021 C 
ENDROOT
BRANCH   1   7
ATOM      7  C   UNL     1      32.547 -11.883 -21.286  0.00  0.00    -0.050 C 
BRANCH   7   8
ATOM      8  N   UNL     1      32.982 -10.623 -21.891  0.00  0.00    +0.390 N 
ATOM      9  C   UNL     1      32.629  -8.037 -23.260  0.00  0.00    +0.033 C 
ATOM     10  C   UNL     1      32.904  -8.152 -21.749  0.00  0.00    -0.015 C 
ATOM     11  C   UNL     1      33.128  -9.303 -23.980  0.00  0.00    -0.015 C 
ATOM     12  C   UNL     1      32.624 -10.587 -23.315  0.00  0.00    -0.076 C 
ATOM     13  C   UNL     1      32.408  -9.481 -21.168  0.00  0.00    -0.076 C 
ATOM     14  C   UNL     1      33.234  -6.779 -23.847  0.00  0.00    -0.019 C 
ATOM     15  C   UNL     1      31.150  -7.775 -23.544  0.00  0.00    -0.023 C 
ATOM     16  C   UNL     1      32.218  -5.965 -24.370  0.00  0.00    -0.004 C 
ATOM     17  C   UNL     1      30.934  -6.608 -24.169  0.00  0.00    -0.005 C 
ATOM     18  C   UNL     1      34.561  -6.386 -23.914  0.00  0.00    -0.004 C 
ATOM     19  C   UNL     1      32.505  -4.749 -24.968  0.00  0.00    -0.000 C 
ATOM     20  C   UNL     1      34.861  -5.161 -24.516  0.00  0.00    -0.000 C 
ATOM     21  C   UNL     1      33.842  -4.350 -25.038  0.00  0.00    -0.000 C 
ATOM     22  H   UNL     1      33.997 -10.559 -21.822  0.00  0.00    -0.079 HD
ENDBRANCH   7   8
ENDBRANCH   1   7
BRANCH   6  23
ATOM     23  C   UNL     1      35.461 -16.407 -23.412  0.00  0.00    +0.232 C 
BRANCH  23  24
ATOM     24  O   UNL     1      36.448 -16.818 -22.472  0.00  0.00    -0.471 OA
BRANCH  24  25
ATOM     25  C   UNL     1      36.183 -17.956 -21.757  0.00  0.00    +0.139 C 
ATOM     26  C   UNL     1      35.645 -20.276 -20.304  0.00  0.00    -0.010 C 
ATOM     27  C   UNL     1      37.198 -18.571 -21.024  0.00  0.00    +0.037 C 
ATOM     28  C   UNL     1      34.899 -18.502 -21.764  0.00  0.00    +0.037 C 
ATOM     29  C   UNL     1      36.929 -19.731 -20.297  0.00  0.00    -0.000 C 
ATOM     30  C   UNL     1      34.630 -19.662 -21.038  0.00  0.00    -0.000 C 
BRANCH  26  31
ATOM     31  C   UNL     1      35.356 -21.516 -19.527  0.00  0.00    +0.097 C 
BRANCH  31  32
ATOM     32  C   UNL     1      36.226 -21.626 -18.324  0.00  0.00    -0.087 C 
ATOM     33  C   UNL     1      36.941 -21.723 -17.362  0.00  0.00    -0.090 C 
ATOM     34  C   UNL     1      37.809 -21.843 -16.193  0.00  0.00    +0.090 C 
ENDBRANCH  31  32
BRANCH  31  35
ATOM     35  C   UNL     1      33.863 -21.619 -19.114  0.00  0.00    +0.127 C 
BRANCH  35  37
ATOM     36  O   UNL     1      33.065 -22.764 -17.112  0.00  0.00    -0.250 OA
ATOM     37  C   UNL     1      33.543 -22.814 -18.236  0.00  0.00    +0.315 C 
BRANCH  37  38
ATOM     38  O   UNL     1      33.844 -23.982 -18.863  0.00  0.00    -0.480 OA
ATOM     39  H   UNL     1      34.636 -24.059 -19.355  0.00  0.00    +0.295 HD
ENDBRANCH  37  38
ENDBRANCH  35  37
ENDBRANCH  31  35
ENDBRANCH  26  31
ENDBRANCH  24  25
ENDBRANCH  23  24
ENDBRANCH   6  23
TORSDOF 10
ENDMDL
