MODEL 1
REMARK VINA RESULT:     -11.7      0.000      0.000
REMARK  Name = 24779724
REMARK  3 active torsions:
REMARK  status: ('A' for Active; 'I' for Inactive)
REMARK    1  A    between atoms: C_5  and  C_12
REMARK    2  A    between atoms: C_7  and  S_16
REMARK    3  A    between atoms: S_16  and  C_19
REMARK                            x       y       z     vdW  Elec       q    Type
REMARK                         _______ _______ _______ _____ _____    ______ ____
ROOT
ATOM      1  N   UNL     1      34.705 -21.255 -18.958  0.00  0.00    -0.186 N 
ATOM      2  N   UNL     1      35.726 -21.618 -18.142  0.00  0.00    -0.162 NA
ATOM      3  N   UNL     1      32.698 -21.041 -19.824  0.00  0.00    -0.126 NA
ATOM      4  N   UNL     1      33.590 -20.333 -20.604  0.00  0.00    -0.120 NA
ATOM      5  C   UNL     1      35.359 -22.367 -17.141  0.00  0.00    +0.104 C 
ATOM      6  C   UNL     1      33.377 -21.590 -18.839  0.00  0.00    +0.187 A 
ATOM      7  C   UNL     1      34.784 -20.473 -20.074  0.00  0.00    +0.217 A 
ATOM      8  C   UNL     1      33.952 -22.826 -16.897  0.00  0.00    +0.024 C 
ATOM      9  C   UNL     1      33.012 -22.416 -17.757  0.00  0.00    +0.042 C 
ENDROOT
BRANCH   5  12
ATOM     10  N   UNL     1      37.400 -23.867 -14.539  0.00  0.00    -0.208 N 
ATOM     11  N   UNL     1      38.358 -23.071 -15.045  0.00  0.00    -0.176 NA
ATOM     12  C   UNL     1      36.386 -22.827 -16.172  0.00  0.00    +0.056 C 
ATOM     13  C   UNL     1      36.200 -23.758 -15.179  0.00  0.00    +0.087 C 
ATOM     14  C   UNL     1      37.733 -22.439 -16.041  0.00  0.00    +0.121 C 
ATOM     15  C   UNL     1      37.699 -24.727 -13.419  0.00  0.00    +0.140 C 
ENDBRANCH   5  12
BRANCH   7  16
ATOM     16  S   UNL     1      36.309 -19.766 -20.677  0.00  0.00    -0.051 S 
BRANCH  16  19
ATOM     17  N   UNL     1      34.313 -16.288 -25.071  0.00  0.00    -0.248 NA
ATOM     18  C   UNL     1      35.134 -16.510 -22.817  0.00  0.00    -0.003 C 
ATOM     19  C   UNL     1      35.714 -18.716 -21.987  0.00  0.00    +0.011 C 
ATOM     20  C   UNL     1      34.768 -17.057 -24.064  0.00  0.00    +0.060 C 
ATOM     21  C   UNL     1      35.604 -17.343 -21.788  0.00  0.00    +0.060 C 
ATOM     22  C   UNL     1      35.354 -19.261 -23.212  0.00  0.00    -0.017 C 
ATOM     23  C   UNL     1      34.887 -18.434 -24.236  0.00  0.00    +0.072 C 
ATOM     24  C   UNL     1      35.014 -15.125 -22.644  0.00  0.00    -0.001 C 
ATOM     25  C   UNL     1      34.546 -14.330 -23.680  0.00  0.00    +0.020 C 
ATOM     26  C   UNL     1      34.212 -14.956 -24.864  0.00  0.00    +0.098 C 
ENDBRANCH  16  19
ENDBRANCH   7  16
TORSDOF 3
ENDMDL
MODEL 2
REMARK VINA RESULT:     -10.7      1.239      1.882
REMARK  Name = 24779724
REMARK  3 active torsions:
REMARK  status: ('A' for Active; 'I' for Inactive)
REMARK    1  A    between atoms: C_5  and  C_12
REMARK    2  A    between atoms: C_7  and  S_16
REMARK    3  A    between atoms: S_16  and  C_19
REMARK                            x       y       z     vdW  Elec       q    Type
REMARK                         _______ _______ _______ _____ _____    ______ ____
ROOT
ATOM      1  N   UNL     1      34.657 -21.989 -18.139  0.00  0.00    -0.186 N 
ATOM      2  N   UNL     1      35.626 -22.417 -17.292  0.00  0.00    -0.162 NA
ATOM      3  N   UNL     1      32.691 -21.588 -19.033  0.00  0.00    -0.126 NA
ATOM      4  N   UNL     1      33.663 -21.058 -19.857  0.00  0.00    -0.120 NA
ATOM      5  C   UNL     1      35.169 -23.037 -16.241  0.00  0.00    +0.104 C 
ATOM      6  C   UNL     1      33.298 -22.144 -18.005  0.00  0.00    +0.187 A 
ATOM      7  C   UNL     1      34.831 -21.308 -19.309  0.00  0.00    +0.217 A 
ATOM      8  C   UNL     1      33.716 -23.294 -15.973  0.00  0.00    +0.024 C 
ATOM      9  C   UNL     1      32.833 -22.834 -16.868  0.00  0.00    +0.042 C 
ENDROOT
BRANCH   5  12
ATOM     10  N   UNL     1      37.182 -24.836 -13.812  0.00  0.00    -0.208 N 
ATOM     11  N   UNL     1      37.872 -23.684 -13.759  0.00  0.00    -0.176 NA
ATOM     12  C   UNL     1      36.132 -23.550 -15.233  0.00  0.00    +0.056 C 
ATOM     13  C   UNL     1      36.130 -24.807 -14.680  0.00  0.00    +0.087 C 
ATOM     14  C   UNL     1      37.227 -22.903 -14.629  0.00  0.00    +0.121 C 
ATOM     15  C   UNL     1      37.586 -25.952 -12.992  0.00  0.00    +0.140 C 
ENDBRANCH   5  12
BRANCH   7  16
ATOM     16  S   UNL     1      36.432 -20.847 -19.953  0.00  0.00    -0.051 S 
BRANCH  16  19
ATOM     17  N   UNL     1      35.020 -16.242 -23.445  0.00  0.00    -0.248 NA
ATOM     18  C   UNL     1      34.959 -18.613 -23.019  0.00  0.00    -0.003 C 
ATOM     19  C   UNL     1      36.004 -19.475 -21.005  0.00  0.00    +0.011 C 
ATOM     20  C   UNL     1      35.329 -17.298 -22.669  0.00  0.00    +0.060 C 
ATOM     21  C   UNL     1      35.298 -19.692 -22.185  0.00  0.00    +0.060 C 
ATOM     22  C   UNL     1      36.372 -18.183 -20.655  0.00  0.00    -0.017 C 
ATOM     23  C   UNL     1      36.035 -17.110 -21.483  0.00  0.00    +0.072 C 
ATOM     24  C   UNL     1      34.249 -18.802 -24.212  0.00  0.00    -0.001 C 
ATOM     25  C   UNL     1      33.929 -17.717 -25.014  0.00  0.00    +0.020 C 
ATOM     26  C   UNL     1      34.334 -16.468 -24.588  0.00  0.00    +0.098 C 
ENDBRANCH  16  19
ENDBRANCH   7  16
TORSDOF 3
ENDMDL
MODEL 3
REMARK VINA RESULT:     -10.6      3.006      4.324
REMARK  Name = 24779724
REMARK  3 active torsions:
REMARK  status: ('A' for Active; 'I' for Inactive)
REMARK    1  A    between atoms: C_5  and  C_12
REMARK    2  A    between atoms: C_7  and  S_16
REMARK    3  A    between atoms: S_16  and  C_19
REMARK                            x       y       z     vdW  Elec       q    Type
REMARK                         _______ _______ _______ _____ _____    ______ ____
ROOT
ATOM      1  N   UNL     1      33.027 -23.234 -15.823  0.00  0.00    -0.186 N 
ATOM      2  N   UNL     1      34.106 -23.760 -15.192  0.00  0.00    -0.162 NA
ATOM      3  N   UNL     1      31.066 -22.318 -16.195  0.00  0.00    -0.126 NA
ATOM      4  N   UNL     1      31.689 -22.528 -17.408  0.00  0.00    -0.120 NA
ATOM      5  C   UNL     1      33.999 -23.780 -13.893  0.00  0.00    +0.104 C 
ATOM      6  C   UNL     1      31.877 -22.744 -15.250  0.00  0.00    +0.187 A 
ATOM      7  C   UNL     1      32.858 -23.078 -17.168  0.00  0.00    +0.217 A 
ATOM      8  C   UNL     1      32.799 -23.297 -13.134  0.00  0.00    +0.024 C 
ATOM      9  C   UNL     1      31.782 -22.794 -13.845  0.00  0.00    +0.042 C 
ENDROOT
BRANCH   5  12
ATOM     10  N   UNL     1      37.018 -25.229 -12.491  0.00  0.00    -0.208 N 
ATOM     11  N   UNL     1      36.405 -24.990 -11.318  0.00  0.00    -0.176 NA
ATOM     12  C   UNL     1      35.119 -24.328 -13.086  0.00  0.00    +0.056 C 
ATOM     13  C   UNL     1      36.289 -24.851 -13.580  0.00  0.00    +0.087 C 
ATOM     14  C   UNL     1      35.247 -24.439 -11.688  0.00  0.00    +0.121 C 
ATOM     15  C   UNL     1      38.328 -25.835 -12.505  0.00  0.00    +0.140 C 
ENDBRANCH   5  12
BRANCH   7  16
ATOM     16  S   UNL     1      34.078 -23.562 -18.379  0.00  0.00    -0.051 S 
BRANCH  16  19
ATOM     17  N   UNL     1      34.921 -18.430 -21.266  0.00  0.00    -0.248 NA
ATOM     18  C   UNL     1      35.847 -20.342 -20.128  0.00  0.00    -0.003 C 
ATOM     19  C   UNL     1      34.342 -22.027 -19.243  0.00  0.00    +0.011 C 
ATOM     20  C   UNL     1      34.753 -19.594 -20.611  0.00  0.00    +0.060 C 
ATOM     21  C   UNL     1      35.634 -21.552 -19.448  0.00  0.00    +0.060 C 
ATOM     22  C   UNL     1      33.260 -21.296 -19.714  0.00  0.00    -0.017 C 
ATOM     23  C   UNL     1      33.471 -20.092 -20.391  0.00  0.00    +0.072 C 
ATOM     24  C   UNL     1      37.136 -19.841 -20.350  0.00  0.00    -0.001 C 
ATOM     25  C   UNL     1      37.314 -18.642 -21.025  0.00  0.00    +0.020 C 
ATOM     26  C   UNL     1      36.182 -17.981 -21.459  0.00  0.00    +0.098 C 
ENDBRANCH  16  19
ENDBRANCH   7  16
TORSDOF 3
ENDMDL
MODEL 4
REMARK VINA RESULT:     -10.4      6.202     11.874
REMARK  Name = 24779724
REMARK  3 active torsions:
REMARK  status: ('A' for Active; 'I' for Inactive)
REMARK    1  A    between atoms: C_5  and  C_12
REMARK    2  A    between atoms: C_7  and  S_16
REMARK    3  A    between atoms: S_16  and  C_19
REMARK                            x       y       z     vdW  Elec       q    Type
REMARK                         _______ _______ _______ _____ _____    ______ ____
ROOT
ATOM      1  N   UNL     1      32.709 -11.239 -22.031  0.00  0.00    -0.186 N 
ATOM      2  N   UNL     1      32.905 -10.019 -22.589  0.00  0.00    -0.162 NA
ATOM      3  N   UNL     1      32.044 -12.834 -20.675  0.00  0.00    -0.126 NA
ATOM      4  N   UNL     1      32.775 -13.405 -21.698  0.00  0.00    -0.120 NA
ATOM      5  C   UNL     1      32.345  -9.044 -21.930  0.00  0.00    +0.104 C 
ATOM      6  C   UNL     1      32.010 -11.535 -20.884  0.00  0.00    +0.187 A 
ATOM      7  C   UNL     1      33.166 -12.438 -22.497  0.00  0.00    +0.217 A 
ATOM      8  C   UNL     1      31.570  -9.214 -20.658  0.00  0.00    +0.024 C 
ATOM      9  C   UNL     1      31.430 -10.459 -20.184  0.00  0.00    +0.042 C 
ENDROOT
BRANCH   5  12
ATOM     10  N   UNL     1      32.068  -5.718 -23.363  0.00  0.00    -0.208 N 
ATOM     11  N   UNL     1      33.351  -5.612 -22.979  0.00  0.00    -0.176 NA
ATOM     12  C   UNL     1      32.483  -7.656 -22.443  0.00  0.00    +0.056 C 
ATOM     13  C   UNL     1      31.502  -6.924 -23.066  0.00  0.00    +0.087 C 
ATOM     14  C   UNL     1      33.599  -6.798 -22.417  0.00  0.00    +0.121 C 
ATOM     15  C   UNL     1      31.423  -4.610 -24.025  0.00  0.00    +0.140 C 
ENDBRANCH   5  12
BRANCH   7  16
ATOM     16  S   UNL     1      34.144 -12.611 -23.982  0.00  0.00    -0.051 S 
BRANCH  16  19
ATOM     17  N   UNL     1      34.466 -18.529 -24.498  0.00  0.00    -0.248 NA
ATOM     18  C   UNL     1      35.170 -16.505 -23.396  0.00  0.00    -0.003 C 
ATOM     19  C   UNL     1      34.247 -14.383 -24.128  0.00  0.00    +0.011 C 
ATOM     20  C   UNL     1      34.407 -17.190 -24.364  0.00  0.00    +0.060 C 
ATOM     21  C   UNL     1      35.085 -15.107 -23.284  0.00  0.00    +0.060 C 
ATOM     22  C   UNL     1      33.493 -15.052 -25.084  0.00  0.00    -0.017 C 
ATOM     23  C   UNL     1      33.578 -16.441 -25.195  0.00  0.00    +0.072 C 
ATOM     24  C   UNL     1      36.005 -17.259 -22.560  0.00  0.00    -0.001 C 
ATOM     25  C   UNL     1      36.068 -18.638 -22.695  0.00  0.00    +0.020 C 
ATOM     26  C   UNL     1      35.284 -19.219 -23.672  0.00  0.00    +0.098 C 
ENDBRANCH  16  19
ENDBRANCH   7  16
TORSDOF 3
ENDMDL
MODEL 5
REMARK VINA RESULT:     -10.4      2.218      9.323
REMARK  Name = 24779724
REMARK  3 active torsions:
REMARK  status: ('A' for Active; 'I' for Inactive)
REMARK    1  A    between atoms: C_5  and  C_12
REMARK    2  A    between atoms: C_7  and  S_16
REMARK    3  A    between atoms: S_16  and  C_19
REMARK                            x       y       z     vdW  Elec       q    Type
REMARK                         _______ _______ _______ _____ _____    ______ ____
ROOT
ATOM      1  N   UNL     1      35.511 -20.046 -20.433  0.00  0.00    -0.186 N 
ATOM      2  N   UNL     1      34.824 -19.456 -21.442  0.00  0.00    -0.162 NA
ATOM      3  N   UNL     1      37.123 -20.605 -19.050  0.00  0.00    -0.126 NA
ATOM      4  N   UNL     1      35.986 -21.306 -18.704  0.00  0.00    -0.120 NA
ATOM      5  C   UNL     1      35.533 -18.611 -22.137  0.00  0.00    +0.104 C 
ATOM      6  C   UNL     1      36.828 -19.852 -20.089  0.00  0.00    +0.187 A 
ATOM      7  C   UNL     1      35.034 -20.962 -19.540  0.00  0.00    +0.217 A 
ATOM      8  C   UNL     1      36.981 -18.312 -21.888  0.00  0.00    +0.024 C 
ATOM      9  C   UNL     1      37.574 -18.946 -20.868  0.00  0.00    +0.042 C 
ENDROOT
BRANCH   5  12
ATOM     10  N   UNL     1      34.167 -16.323 -24.605  0.00  0.00    -0.208 N 
ATOM     11  N   UNL     1      33.755 -17.455 -25.201  0.00  0.00    -0.176 NA
ATOM     12  C   UNL     1      34.891 -17.893 -23.268  0.00  0.00    +0.056 C 
ATOM     13  C   UNL     1      34.852 -16.531 -23.443  0.00  0.00    +0.087 C 
ATOM     14  C   UNL     1      34.200 -18.410 -24.381  0.00  0.00    +0.121 C 
ATOM     15  C   UNL     1      33.869 -15.046 -25.206  0.00  0.00    +0.140 C 
ENDBRANCH   5  12
BRANCH   7  16
ATOM     16  S   UNL     1      33.353 -21.567 -19.551  0.00  0.00    -0.051 S 
BRANCH  16  19
ATOM     17  N   UNL     1      32.963 -23.926 -14.104  0.00  0.00    -0.248 NA
ATOM     18  C   UNL     1      31.893 -22.851 -15.977  0.00  0.00    -0.003 C 
ATOM     19  C   UNL     1      33.225 -22.272 -17.921  0.00  0.00    +0.011 C 
ATOM     20  C   UNL     1      33.029 -23.388 -15.337  0.00  0.00    +0.060 C 
ATOM     21  C   UNL     1      31.999 -22.297 -17.263  0.00  0.00    +0.060 C 
ATOM     22  C   UNL     1      34.348 -22.798 -17.296  0.00  0.00    -0.017 C 
ATOM     23  C   UNL     1      34.243 -23.349 -16.017  0.00  0.00    +0.072 C 
ATOM     24  C   UNL     1      30.671 -22.890 -15.292  0.00  0.00    -0.001 C 
ATOM     25  C   UNL     1      30.599 -23.444 -14.022  0.00  0.00    +0.020 C 
ATOM     26  C   UNL     1      31.764 -23.944 -13.478  0.00  0.00    +0.098 C 
ENDBRANCH  16  19
ENDBRANCH   7  16
TORSDOF 3
ENDMDL
MODEL 6
REMARK VINA RESULT:     -10.1      3.568      6.213
REMARK  Name = 24779724
REMARK  3 active torsions:
REMARK  status: ('A' for Active; 'I' for Inactive)
REMARK    1  A    between atoms: C_5  and  C_12
REMARK    2  A    between atoms: C_7  and  S_16
REMARK    3  A    between atoms: S_16  and  C_19
REMARK                            x       y       z     vdW  Elec       q    Type
REMARK                         _______ _______ _______ _____ _____    ______ ____
ROOT
ATOM      1  N   UNL     1      33.083 -23.056 -16.207  0.00  0.00    -0.186 N 
ATOM      2  N   UNL     1      31.785 -23.048 -16.598  0.00  0.00    -0.162 NA
ATOM      3  N   UNL     1      34.894 -22.918 -14.971  0.00  0.00    -0.126 NA
ATOM      4  N   UNL     1      35.267 -23.236 -16.261  0.00  0.00    -0.120 NA
ATOM      5  C   UNL     1      30.948 -22.777 -15.636  0.00  0.00    +0.104 C 
ATOM      6  C   UNL     1      33.582 -22.812 -14.949  0.00  0.00    +0.187 A 
ATOM      7  C   UNL     1      34.174 -23.313 -16.986  0.00  0.00    +0.217 A 
ATOM      8  C   UNL     1      31.348 -22.473 -14.224  0.00  0.00    +0.024 C 
ATOM      9  C   UNL     1      32.655 -22.505 -13.933  0.00  0.00    +0.042 C 
ENDROOT
BRANCH   5  12
ATOM     10  N   UNL     1      27.354 -22.309 -15.856  0.00  0.00    -0.208 N 
ATOM     11  N   UNL     1      27.468 -23.116 -16.924  0.00  0.00    -0.176 NA
ATOM     12  C   UNL     1      29.494 -22.743 -15.937  0.00  0.00    +0.056 C 
ATOM     13  C   UNL     1      28.539 -22.055 -15.229  0.00  0.00    +0.087 C 
ATOM     14  C   UNL     1      28.776 -23.378 -16.969  0.00  0.00    +0.121 C 
ATOM     15  C   UNL     1      26.057 -21.802 -15.475  0.00  0.00    +0.140 C 
ENDBRANCH   5  12
BRANCH   7  16
ATOM     16  S   UNL     1      34.074 -23.695 -18.728  0.00  0.00    -0.051 S 
BRANCH  16  19
ATOM     17  N   UNL     1      34.934 -18.330 -21.150  0.00  0.00    -0.248 NA
ATOM     18  C   UNL     1      35.854 -20.355 -20.224  0.00  0.00    -0.003 C 
ATOM     19  C   UNL     1      34.342 -22.091 -19.453  0.00  0.00    +0.011 C 
ATOM     20  C   UNL     1      34.762 -19.547 -20.601  0.00  0.00    +0.060 C 
ATOM     21  C   UNL     1      35.637 -21.620 -19.653  0.00  0.00    +0.060 C 
ATOM     22  C   UNL     1      33.262 -21.300 -19.822  0.00  0.00    -0.017 C 
ATOM     23  C   UNL     1      33.477 -20.042 -20.389  0.00  0.00    +0.072 C 
ATOM     24  C   UNL     1      37.147 -19.857 -20.437  0.00  0.00    -0.001 C 
ATOM     25  C   UNL     1      37.328 -18.604 -21.003  0.00  0.00    +0.020 C 
ATOM     26  C   UNL     1      36.198 -17.887 -21.339  0.00  0.00    +0.098 C 
ENDBRANCH  16  19
ENDBRANCH   7  16
TORSDOF 3
ENDMDL
MODEL 7
REMARK VINA RESULT:     -10.0      5.444     10.049
REMARK  Name = 24779724
REMARK  3 active torsions:
REMARK  status: ('A' for Active; 'I' for Inactive)
REMARK    1  A    between atoms: C_5  and  C_12
REMARK    2  A    between atoms: C_7  and  S_16
REMARK    3  A    between atoms: S_16  and  C_19
REMARK                            x       y       z     vdW  Elec       q    Type
REMARK                         _______ _______ _______ _____ _____    ______ ____
ROOT
ATOM      1  N   UNL     1      34.624 -23.035 -16.053  0.00  0.00    -0.186 N 
ATOM      2  N   UNL     1      33.386 -23.327 -15.582  0.00  0.00    -0.162 NA
ATOM      3  N   UNL     1      36.255 -22.316 -17.336  0.00  0.00    -0.126 NA
ATOM      4  N   UNL     1      36.804 -22.859 -16.192  0.00  0.00    -0.120 NA
ATOM      5  C   UNL     1      32.421 -22.967 -16.381  0.00  0.00    +0.104 C 
ATOM      6  C   UNL     1      34.946 -22.427 -17.243  0.00  0.00    +0.187 A 
ATOM      7  C   UNL     1      35.817 -23.285 -15.438  0.00  0.00    +0.217 A 
ATOM      8  C   UNL     1      32.624 -22.312 -17.714  0.00  0.00    +0.024 C 
ATOM      9  C   UNL     1      33.884 -22.064 -18.094  0.00  0.00    +0.042 C 
ENDROOT
BRANCH   5  12
ATOM     10  N   UNL     1      28.865 -23.026 -15.647  0.00  0.00    -0.208 N 
ATOM     11  N   UNL     1      29.151 -24.226 -15.113  0.00  0.00    -0.176 NA
ATOM     12  C   UNL     1      31.016 -23.227 -15.975  0.00  0.00    +0.056 C 
ATOM     13  C   UNL     1      29.949 -22.387 -16.176  0.00  0.00    +0.087 C 
ATOM     14  C   UNL     1      30.465 -24.343 -15.316  0.00  0.00    +0.121 C 
ATOM     15  C   UNL     1      27.509 -22.533 -15.620  0.00  0.00    +0.140 C 
ENDBRANCH   5  12
BRANCH   7  16
ATOM     16  S   UNL     1      35.957 -24.075 -13.842  0.00  0.00    -0.051 S 
BRANCH  16  19
ATOM     17  N   UNL     1      41.175 -26.883 -14.363  0.00  0.00    -0.248 NA
ATOM     18  C   UNL     1      38.895 -26.598 -15.090  0.00  0.00    -0.003 C 
ATOM     19  C   UNL     1      37.515 -24.921 -14.007  0.00  0.00    +0.011 C 
ATOM     20  C   UNL     1      39.986 -26.260 -14.262  0.00  0.00    +0.060 C 
ATOM     21  C   UNL     1      37.668 -25.927 -14.956  0.00  0.00    +0.060 C 
ATOM     22  C   UNL     1      38.585 -24.583 -13.188  0.00  0.00    -0.017 C 
ATOM     23  C   UNL     1      39.805 -25.250 -13.320  0.00  0.00    +0.072 C 
ATOM     24  C   UNL     1      39.078 -27.614 -16.037  0.00  0.00    -0.001 C 
ATOM     25  C   UNL     1      40.302 -28.258 -16.144  0.00  0.00    +0.020 C 
ATOM     26  C   UNL     1      41.310 -27.858 -15.290  0.00  0.00    +0.098 C 
ENDBRANCH  16  19
ENDBRANCH   7  16
TORSDOF 3
ENDMDL
MODEL 8
REMARK VINA RESULT:      -9.9      2.598      9.336
REMARK  Name = 24779724
REMARK  3 active torsions:
REMARK  status: ('A' for Active; 'I' for Inactive)
REMARK    1  A    between atoms: C_5  and  C_12
REMARK    2  A    between atoms: C_7  and  S_16
REMARK    3  A    between atoms: S_16  and  C_19
REMARK                            x       y       z     vdW  Elec       q    Type
REMARK                         _______ _______ _______ _____ _____    ______ ____
ROOT
ATOM      1  N   UNL     1      34.950 -17.263 -23.738  0.00  0.00    -0.186 N 
ATOM      2  N   UNL     1      34.914 -15.973 -23.323  0.00  0.00    -0.162 NA
ATOM      3  N   UNL     1      34.547 -19.110 -24.857  0.00  0.00    -0.126 NA
ATOM      4  N   UNL     1      35.488 -19.383 -23.885  0.00  0.00    -0.120 NA
ATOM      5  C   UNL     1      34.092 -15.225 -24.003  0.00  0.00    +0.104 C 
ATOM      6  C   UNL     1      34.231 -17.836 -24.761  0.00  0.00    +0.187 A 
ATOM      7  C   UNL     1      35.716 -18.270 -23.225  0.00  0.00    +0.217 A 
ATOM      8  C   UNL     1      33.232 -15.715 -25.129  0.00  0.00    +0.024 C 
ATOM      9  C   UNL     1      33.337 -17.006 -25.467  0.00  0.00    +0.042 C 
ENDROOT
BRANCH   5  12
ATOM     10  N   UNL     1      34.031 -11.605 -23.720  0.00  0.00    -0.208 N 
ATOM     11  N   UNL     1      33.519 -11.861 -22.504  0.00  0.00    -0.176 NA
ATOM     12  C   UNL     1      33.966 -13.788 -23.648  0.00  0.00    +0.056 C 
ATOM     13  C   UNL     1      34.317 -12.725 -24.444  0.00  0.00    +0.087 C 
ATOM     14  C   UNL     1      33.481 -13.195 -22.466  0.00  0.00    +0.121 C 
ATOM     15  C   UNL     1      34.229 -10.239 -24.141  0.00  0.00    +0.140 C 
ENDBRANCH   5  12
BRANCH   7  16
ATOM     16  S   UNL     1      36.847 -18.051 -21.860  0.00  0.00    -0.051 S 
BRANCH  16  19
ATOM     17  N   UNL     1      35.120 -22.386 -18.171  0.00  0.00    -0.248 NA
ATOM     18  C   UNL     1      34.543 -20.634 -19.721  0.00  0.00    -0.003 C 
ATOM     19  C   UNL     1      36.320 -19.347 -20.759  0.00  0.00    +0.011 C 
ATOM     20  C   UNL     1      35.490 -21.401 -19.011  0.00  0.00    +0.060 C 
ATOM     21  C   UNL     1      34.964 -19.614 -20.590  0.00  0.00    +0.060 C 
ATOM     22  C   UNL     1      37.258 -20.098 -20.062  0.00  0.00    -0.017 C 
ATOM     23  C   UNL     1      36.839 -21.113 -19.198  0.00  0.00    +0.072 C 
ATOM     24  C   UNL     1      33.185 -20.924 -19.532  0.00  0.00    -0.001 C 
ATOM     25  C   UNL     1      32.801 -21.939 -18.667  0.00  0.00    +0.020 C 
ATOM     26  C   UNL     1      33.800 -22.634 -18.016  0.00  0.00    +0.098 C 
ENDBRANCH  16  19
ENDBRANCH   7  16
TORSDOF 3
ENDMDL
MODEL 9
REMARK VINA RESULT:      -9.9      2.071      9.540
REMARK  Name = 24779724
REMARK  3 active torsions:
REMARK  status: ('A' for Active; 'I' for Inactive)
REMARK    1  A    between atoms: C_5  and  C_12
REMARK    2  A    between atoms: C_7  and  S_16
REMARK    3  A    between atoms: S_16  and  C_19
REMARK                            x       y       z     vdW  Elec       q    Type
REMARK                         _______ _______ _______ _____ _____    ______ ____
ROOT
ATOM      1  N   UNL     1      35.207 -21.529 -18.418  0.00  0.00    -0.186 N 
ATOM      2  N   UNL     1      35.776 -20.660 -19.290  0.00  0.00    -0.162 NA
ATOM      3  N   UNL     1      33.746 -22.828 -17.417  0.00  0.00    -0.126 NA
ATOM      4  N   UNL     1      34.943 -22.908 -16.735  0.00  0.00    -0.120 NA
ATOM      5  C   UNL     1      34.968 -20.253 -20.229  0.00  0.00    +0.104 C 
ATOM      6  C   UNL     1      33.914 -21.998 -18.425  0.00  0.00    +0.187 A 
ATOM      7  C   UNL     1      35.804 -22.125 -17.345  0.00  0.00    +0.217 A 
ATOM      8  C   UNL     1      33.532 -20.665 -20.350  0.00  0.00    +0.024 C 
ATOM      9  C   UNL     1      33.060 -21.527 -19.441  0.00  0.00    +0.042 C 
ENDROOT
BRANCH   5  12
ATOM     10  N   UNL     1      35.627 -17.996 -22.996  0.00  0.00    -0.208 N 
ATOM     11  N   UNL     1      36.831 -17.875 -22.412  0.00  0.00    -0.176 NA
ATOM     12  C   UNL     1      35.475 -19.302 -21.251  0.00  0.00    +0.056 C 
ATOM     13  C   UNL     1      34.778 -18.840 -22.340  0.00  0.00    +0.087 C 
ATOM     14  C   UNL     1      36.732 -18.674 -21.346  0.00  0.00    +0.121 C 
ATOM     15  C   UNL     1      35.340 -17.265 -24.207  0.00  0.00    +0.140 C 
ENDBRANCH   5  12
BRANCH   7  16
ATOM     16  S   UNL     1      37.508 -21.849 -16.886  0.00  0.00    -0.051 S 
BRANCH  16  19
ATOM     17  N   UNL     1      38.034 -25.358 -12.111  0.00  0.00    -0.248 NA
ATOM     18  C   UNL     1      36.923 -23.534 -13.228  0.00  0.00    -0.003 C 
ATOM     19  C   UNL     1      37.656 -22.895 -15.452  0.00  0.00    +0.011 C 
ATOM     20  C   UNL     1      37.897 -24.554 -13.181  0.00  0.00    +0.060 C 
ATOM     21  C   UNL     1      36.810 -22.713 -14.362  0.00  0.00    +0.060 C 
ATOM     22  C   UNL     1      38.618 -23.896 -15.412  0.00  0.00    -0.017 C 
ATOM     23  C   UNL     1      38.732 -24.713 -14.285  0.00  0.00    +0.072 C 
ATOM     24  C   UNL     1      36.084 -23.374 -12.117  0.00  0.00    -0.001 C 
ATOM     25  C   UNL     1      36.222 -24.201 -11.012  0.00  0.00    +0.020 C 
ATOM     26  C   UNL     1      37.204 -25.170 -11.060  0.00  0.00    +0.098 C 
ENDBRANCH  16  19
ENDBRANCH   7  16
TORSDOF 3
ENDMDL
