MODEL 1
REMARK VINA RESULT:     -11.4      0.000      0.000
REMARK  Name = 42628060
REMARK  6 active torsions:
REMARK  status: ('A' for Active; 'I' for Inactive)
REMARK    1  A    between atoms: N_2  and  C_6
REMARK    2  A    between atoms: C_3  and  C_19
REMARK    3  A    between atoms: C_9  and  N_13
REMARK    4  A    between atoms: C_19  and  N_20
REMARK    5  A    between atoms: C_21  and  N_27
REMARK    6  A    between atoms: C_28  and  C_32
REMARK                            x       y       z     vdW  Elec       q    Type
REMARK                         _______ _______ _______ _____ _____    ______ ____
ROOT
ATOM      1  O   UNL     1      32.787 -13.237 -23.249  0.00  0.00    -0.277 OA
ATOM      2  N   UNL     1      34.782 -14.133 -24.106  0.00  0.00    -0.284 N 
ATOM      3  C   UNL     1      33.750 -13.201 -24.008  0.00  0.00    +0.205 C 
ATOM      4  H   UNL     1      35.475 -13.946 -24.778  0.00  0.00    +0.155 HD
ENDROOT
BRANCH   2   6
ATOM      5  F   UNL     1      34.992 -14.072 -21.328  0.00  0.00    -0.203 F 
ATOM      6  C   UNL     1      34.948 -15.318 -23.350  0.00  0.00    +0.078 C 
ATOM      7  C   UNL     1      35.050 -15.253 -21.960  0.00  0.00    +0.155 C 
ATOM      8  C   UNL     1      35.011 -16.552 -23.997  0.00  0.00    +0.018 C 
ATOM      9  C   UNL     1      35.277 -17.656 -21.865  0.00  0.00    +0.061 C 
ATOM     10  C   UNL     1      35.214 -16.423 -21.218  0.00  0.00    +0.046 C 
ATOM     11  C   UNL     1      35.175 -17.722 -23.254  0.00  0.00    +0.017 C 
BRANCH   9  13
ATOM     12  O   UNL     1      37.790 -18.626 -20.811  0.00  0.00    -0.269 OA
ATOM     13  N   UNL     1      35.449 -18.872 -21.094  0.00  0.00    -0.233 N 
ATOM     14  C   UNL     1      36.745 -19.261 -20.667  0.00  0.00    +0.257 C 
ATOM     15  C   UNL     1      34.345 -19.655 -20.749  0.00  0.00    +0.072 C 
ATOM     16  C   UNL     1      36.840 -20.551 -19.915  0.00  0.00    +0.059 C 
ATOM     17  C   UNL     1      34.453 -20.788 -20.048  0.00  0.00    +0.017 C 
ATOM     18  C   UNL     1      35.741 -21.251 -19.626  0.00  0.00    +0.006 C 
ENDBRANCH   9  13
ENDBRANCH   2   6
BRANCH   3  19
ATOM     19  C   UNL     1      33.963 -12.077 -25.008  0.00  0.00    +0.010 C 
BRANCH  19  20
ATOM     20  N   UNL     1      34.630 -10.964 -24.351  0.00  0.00    +0.394 N 
ATOM     21  C   UNL     1      34.585  -8.786 -23.520  0.00  0.00    +0.049 C 
ATOM     22  C   UNL     1      35.745  -8.910 -24.511  0.00  0.00    -0.005 C 
ATOM     23  C   UNL     1      33.684  -9.980 -23.822  0.00  0.00    -0.057 C 
ATOM     24  C   UNL     1      35.485 -10.208 -25.266  0.00  0.00    -0.075 C 
ATOM     25  H   UNL     1      35.171 -11.404 -23.607  0.00  0.00    -0.079 HD
BRANCH  21  27
ATOM     26  O   UNL     1      33.750  -7.094 -21.356  0.00  0.00    -0.270 OA
ATOM     27  N   UNL     1      33.887  -7.535 -23.630  0.00  0.00    -0.304 N 
ATOM     28  C   UNL     1      33.520  -6.780 -22.522  0.00  0.00    +0.252 C 
ATOM     29  H   UNL     1      33.658  -7.199 -24.527  0.00  0.00    +0.150 HD
BRANCH  28  32
ATOM     30 CL   UNL     1      31.092  -2.544 -25.122  0.00  0.00    -0.075 Cl
ATOM     31  S   UNL     1      32.558  -5.031 -24.428  0.00  0.00    -0.071 S 
ATOM     32  C   UNL     1      32.780  -5.522 -22.803  0.00  0.00    +0.084 C 
ATOM     33  C   UNL     1      32.210  -4.639 -21.913  0.00  0.00    +0.012 C 
ATOM     34  C   UNL     1      31.583  -3.544 -22.575  0.00  0.00    +0.019 C 
ATOM     35  C   UNL     1      31.697  -3.632 -23.944  0.00  0.00    +0.087 C 
ENDBRANCH  28  32
ENDBRANCH  21  27
ENDBRANCH  19  20
ENDBRANCH   3  19
TORSDOF 6
ENDMDL
MODEL 2
REMARK VINA RESULT:     -11.3      0.853      1.206
REMARK  Name = 42628060
REMARK  6 active torsions:
REMARK  status: ('A' for Active; 'I' for Inactive)
REMARK    1  A    between atoms: N_2  and  C_6
REMARK    2  A    between atoms: C_3  and  C_19
REMARK    3  A    between atoms: C_9  and  N_13
REMARK    4  A    between atoms: C_19  and  N_20
REMARK    5  A    between atoms: C_21  and  N_27
REMARK    6  A    between atoms: C_28  and  C_32
REMARK                            x       y       z     vdW  Elec       q    Type
REMARK                         _______ _______ _______ _____ _____    ______ ____
ROOT
ATOM      1  O   UNL     1      32.881 -13.274 -22.969  0.00  0.00    -0.277 OA
ATOM      2  N   UNL     1      34.742 -14.252 -24.017  0.00  0.00    -0.284 N 
ATOM      3  C   UNL     1      33.757 -13.284 -23.829  0.00  0.00    +0.205 C 
ATOM      4  H   UNL     1      35.363 -14.100 -24.765  0.00  0.00    +0.155 HD
ENDROOT
BRANCH   2   6
ATOM      5  F   UNL     1      35.094 -16.730 -25.239  0.00  0.00    -0.203 F 
ATOM      6  C   UNL     1      34.952 -15.427 -23.258  0.00  0.00    +0.078 C 
ATOM      7  C   UNL     1      35.125 -16.653 -23.901  0.00  0.00    +0.155 C 
ATOM      8  C   UNL     1      34.984 -15.359 -21.865  0.00  0.00    +0.018 C 
ATOM      9  C   UNL     1      35.363 -17.743 -21.758  0.00  0.00    +0.061 C 
ATOM     10  C   UNL     1      35.331 -17.811 -23.150  0.00  0.00    +0.046 C 
ATOM     11  C   UNL     1      35.190 -16.517 -21.115  0.00  0.00    +0.017 C 
BRANCH   9  13
ATOM     12  O   UNL     1      37.904 -18.607 -20.680  0.00  0.00    -0.269 OA
ATOM     13  N   UNL     1      35.576 -18.946 -20.977  0.00  0.00    -0.233 N 
ATOM     14  C   UNL     1      36.883 -19.281 -20.539  0.00  0.00    +0.257 C 
ATOM     15  C   UNL     1      34.501 -19.769 -20.635  0.00  0.00    +0.072 C 
ATOM     16  C   UNL     1      37.022 -20.563 -19.778  0.00  0.00    +0.059 C 
ATOM     17  C   UNL     1      34.647 -20.893 -19.926  0.00  0.00    +0.017 C 
ATOM     18  C   UNL     1      35.949 -21.302 -19.492  0.00  0.00    +0.006 C 
ENDBRANCH   9  13
ENDBRANCH   2   6
BRANCH   3  19
ATOM     19  C   UNL     1      33.893 -12.186 -24.870  0.00  0.00    +0.010 C 
BRANCH  19  20
ATOM     20  N   UNL     1      34.606 -11.056 -24.292  0.00  0.00    +0.394 N 
ATOM     21  C   UNL     1      34.621  -8.853 -23.530  0.00  0.00    +0.049 C 
ATOM     22  C   UNL     1      35.717  -9.015 -24.587  0.00  0.00    -0.005 C 
ATOM     23  C   UNL     1      33.698 -10.050 -23.737  0.00  0.00    -0.057 C 
ATOM     24  C   UNL     1      35.405 -10.335 -25.282  0.00  0.00    -0.075 C 
ATOM     25  H   UNL     1      35.190 -11.476 -23.569  0.00  0.00    -0.079 HD
BRANCH  21  27
ATOM     26  O   UNL     1      33.677  -7.227 -21.361  0.00  0.00    -0.270 OA
ATOM     27  N   UNL     1      33.923  -7.602 -23.637  0.00  0.00    -0.304 N 
ATOM     28  C   UNL     1      33.502  -6.880 -22.527  0.00  0.00    +0.252 C 
ATOM     29  H   UNL     1      33.735  -7.241 -24.534  0.00  0.00    +0.150 HD
BRANCH  28  32
ATOM     30 CL   UNL     1      31.234  -2.545 -25.108  0.00  0.00    -0.075 Cl
ATOM     31  S   UNL     1      32.673  -5.049 -24.418  0.00  0.00    -0.071 S 
ATOM     32  C   UNL     1      32.769  -5.618 -22.806  0.00  0.00    +0.084 C 
ATOM     33  C   UNL     1      32.117  -4.785 -21.924  0.00  0.00    +0.012 C 
ATOM     34  C   UNL     1      31.530  -3.665 -22.581  0.00  0.00    +0.019 C 
ATOM     35  C   UNL     1      31.756  -3.684 -23.939  0.00  0.00    +0.087 C 
ENDBRANCH  28  32
ENDBRANCH  21  27
ENDBRANCH  19  20
ENDBRANCH   3  19
TORSDOF 6
ENDMDL
MODEL 3
REMARK VINA RESULT:     -11.2      9.609     15.243
REMARK  Name = 42628060
REMARK  6 active torsions:
REMARK  status: ('A' for Active; 'I' for Inactive)
REMARK    1  A    between atoms: N_2  and  C_6
REMARK    2  A    between atoms: C_3  and  C_19
REMARK    3  A    between atoms: C_9  and  N_13
REMARK    4  A    between atoms: C_19  and  N_20
REMARK    5  A    between atoms: C_21  and  N_27
REMARK    6  A    between atoms: C_28  and  C_32
REMARK                            x       y       z     vdW  Elec       q    Type
REMARK                         _______ _______ _______ _____ _____    ______ ____
ROOT
ATOM      1  O   UNL     1      31.259 -21.756 -17.282  0.00  0.00    -0.277 OA
ATOM      2  N   UNL     1      33.423 -22.440 -17.886  0.00  0.00    -0.284 N 
ATOM      3  C   UNL     1      32.236 -22.487 -17.157  0.00  0.00    +0.205 C 
ATOM      4  H   UNL     1      34.107 -23.106 -17.646  0.00  0.00    +0.155 HD
ENDROOT
BRANCH   2   6
ATOM      5  F   UNL     1      36.069 -22.022 -18.652  0.00  0.00    -0.203 F 
ATOM      6  C   UNL     1      33.758 -21.548 -18.931  0.00  0.00    +0.078 C 
ATOM      7  C   UNL     1      35.093 -21.360 -19.290  0.00  0.00    +0.155 C 
ATOM      8  C   UNL     1      32.752 -20.852 -19.601  0.00  0.00    +0.018 C 
ATOM      9  C   UNL     1      34.414 -19.784 -20.990  0.00  0.00    +0.061 C 
ATOM     10  C   UNL     1      35.421 -20.478 -20.320  0.00  0.00    +0.046 C 
ATOM     11  C   UNL     1      33.080 -19.970 -20.632  0.00  0.00    +0.017 C 
BRANCH   9  13
ATOM     12  O   UNL     1      35.753 -17.242 -20.650  0.00  0.00    -0.269 OA
ATOM     13  N   UNL     1      34.755 -18.866 -22.060  0.00  0.00    -0.233 N 
ATOM     14  C   UNL     1      35.378 -17.628 -21.758  0.00  0.00    +0.257 C 
ATOM     15  C   UNL     1      34.495 -19.201 -23.391  0.00  0.00    +0.072 C 
ATOM     16  C   UNL     1      35.653 -16.721 -22.915  0.00  0.00    +0.059 C 
ATOM     17  C   UNL     1      34.781 -18.386 -24.411  0.00  0.00    +0.017 C 
ATOM     18  C   UNL     1      35.372 -17.106 -24.162  0.00  0.00    +0.006 C 
ENDBRANCH   9  13
ENDBRANCH   2   6
BRANCH   3  19
ATOM     19  C   UNL     1      32.296 -23.603 -16.128  0.00  0.00    +0.010 C 
BRANCH  19  20
ATOM     20  N   UNL     1      33.380 -23.341 -15.193  0.00  0.00    +0.394 N 
ATOM     21  C   UNL     1      35.596 -23.638 -14.534  0.00  0.00    +0.049 C 
ATOM     22  C   UNL     1      34.681 -24.042 -13.375  0.00  0.00    -0.005 C 
ATOM     23  C   UNL     1      34.694 -23.641 -15.764  0.00  0.00    -0.057 C 
ATOM     24  C   UNL     1      33.294 -24.173 -13.992  0.00  0.00    -0.075 C 
ATOM     25  H   UNL     1      33.282 -22.351 -14.972  0.00  0.00    -0.079 HD
BRANCH  21  27
ATOM     26  O   UNL     1      38.129 -23.411 -13.202  0.00  0.00    -0.270 OA
ATOM     27  N   UNL     1      36.726 -24.513 -14.684  0.00  0.00    -0.304 N 
ATOM     28  C   UNL     1      37.918 -24.325 -13.996  0.00  0.00    +0.252 C 
ATOM     29  H   UNL     1      36.652 -25.277 -15.301  0.00  0.00    +0.150 HD
BRANCH  28  32
ATOM     30 CL   UNL     1      40.741 -28.668 -15.938  0.00  0.00    -0.075 Cl
ATOM     31  S   UNL     1      38.664 -26.649 -15.285  0.00  0.00    -0.071 S 
ATOM     32  C   UNL     1      39.000 -25.303 -14.282  0.00  0.00    +0.084 C 
ATOM     33  C   UNL     1      40.307 -25.297 -13.845  0.00  0.00    +0.012 C 
ATOM     34  C   UNL     1      41.041 -26.413 -14.341  0.00  0.00    +0.019 C 
ATOM     35  C   UNL     1      40.269 -27.229 -15.137  0.00  0.00    +0.087 C 
ENDBRANCH  28  32
ENDBRANCH  21  27
ENDBRANCH  19  20
ENDBRANCH   3  19
TORSDOF 6
ENDMDL
MODEL 4
REMARK VINA RESULT:     -10.9      5.621     11.996
REMARK  Name = 42628060
REMARK  6 active torsions:
REMARK  status: ('A' for Active; 'I' for Inactive)
REMARK    1  A    between atoms: N_2  and  C_6
REMARK    2  A    between atoms: C_3  and  C_19
REMARK    3  A    between atoms: C_9  and  N_13
REMARK    4  A    between atoms: C_19  and  N_20
REMARK    5  A    between atoms: C_21  and  N_27
REMARK    6  A    between atoms: C_28  and  C_32
REMARK                            x       y       z     vdW  Elec       q    Type
REMARK                         _______ _______ _______ _____ _____    ______ ____
ROOT
ATOM      1  O   UNL     1      35.739 -15.260 -25.083  0.00  0.00    -0.277 OA
ATOM      2  N   UNL     1      33.687 -14.769 -24.053  0.00  0.00    -0.284 N 
ATOM      3  C   UNL     1      34.674 -15.600 -24.579  0.00  0.00    +0.205 C 
ATOM      4  H   UNL     1      32.889 -15.217 -23.691  0.00  0.00    +0.155 HD
ENDROOT
BRANCH   2   6
ATOM      5  F   UNL     1      33.130 -13.430 -21.674  0.00  0.00    -0.203 F 
ATOM      6  C   UNL     1      33.698 -13.356 -23.979  0.00  0.00    +0.078 C 
ATOM      7  C   UNL     1      33.415 -12.717 -22.772  0.00  0.00    +0.155 C 
ATOM      8  C   UNL     1      33.992 -12.603 -25.115  0.00  0.00    +0.018 C 
ATOM      9  C   UNL     1      33.720 -10.570 -23.838  0.00  0.00    +0.061 C 
ATOM     10  C   UNL     1      33.426 -11.323 -22.702  0.00  0.00    +0.046 C 
ATOM     11  C   UNL     1      34.003 -11.209 -25.045  0.00  0.00    +0.017 C 
BRANCH   9  13
ATOM     12  O   UNL     1      36.075  -8.904 -24.042  0.00  0.00    -0.269 OA
ATOM     13  N   UNL     1      33.731  -9.122 -23.766  0.00  0.00    -0.233 N 
ATOM     14  C   UNL     1      34.962  -8.420 -23.840  0.00  0.00    +0.257 C 
ATOM     15  C   UNL     1      32.535  -8.409 -23.646  0.00  0.00    +0.072 C 
ATOM     16  C   UNL     1      34.888  -6.931 -23.711  0.00  0.00    +0.059 C 
ATOM     17  C   UNL     1      32.494  -7.075 -23.566  0.00  0.00    +0.017 C 
ATOM     18  C   UNL     1      33.708  -6.317 -23.593  0.00  0.00    +0.006 C 
ENDBRANCH   9  13
ENDBRANCH   2   6
BRANCH   3  19
ATOM     19  C   UNL     1      34.254 -17.055 -24.457  0.00  0.00    +0.010 C 
BRANCH  19  20
ATOM     20  N   UNL     1      35.167 -17.749 -23.560  0.00  0.00    +0.394 N 
ATOM     21  C   UNL     1      35.545 -19.325 -21.885  0.00  0.00    +0.049 C 
ATOM     22  C   UNL     1      36.102 -17.976 -21.425  0.00  0.00    -0.005 C 
ATOM     23  C   UNL     1      34.593 -18.986 -23.027  0.00  0.00    -0.057 C 
ATOM     24  C   UNL     1      35.501 -16.952 -22.380  0.00  0.00    -0.075 C 
ATOM     25  H   UNL     1      35.988 -17.932 -24.136  0.00  0.00    -0.079 HD
BRANCH  21  27
ATOM     26  O   UNL     1      36.809 -20.972 -19.902  0.00  0.00    -0.270 OA
ATOM     27  N   UNL     1      34.893 -20.050 -20.829  0.00  0.00    -0.304 N 
ATOM     28  C   UNL     1      35.589 -20.826 -19.911  0.00  0.00    +0.252 C 
ATOM     29  H   UNL     1      33.912 -19.995 -20.755  0.00  0.00    +0.150 HD
BRANCH  28  32
ATOM     30 CL   UNL     1      33.996 -23.597 -15.396  0.00  0.00    -0.075 Cl
ATOM     31  S   UNL     1      35.528 -22.168 -17.500  0.00  0.00    -0.071 S 
ATOM     32  C   UNL     1      34.766 -21.535 -18.896  0.00  0.00    +0.084 C 
ATOM     33  C   UNL     1      33.409 -21.776 -18.899  0.00  0.00    +0.012 C 
ATOM     34  C   UNL     1      32.991 -22.490 -17.740  0.00  0.00    +0.019 C 
ATOM     35  C   UNL     1      34.042 -22.767 -16.895  0.00  0.00    +0.087 C 
ENDBRANCH  28  32
ENDBRANCH  21  27
ENDBRANCH  19  20
ENDBRANCH   3  19
TORSDOF 6
ENDMDL
MODEL 5
REMARK VINA RESULT:     -10.7      7.627     14.141
REMARK  Name = 42628060
REMARK  6 active torsions:
REMARK  status: ('A' for Active; 'I' for Inactive)
REMARK    1  A    between atoms: N_2  and  C_6
REMARK    2  A    between atoms: C_3  and  C_19
REMARK    3  A    between atoms: C_9  and  N_13
REMARK    4  A    between atoms: C_19  and  N_20
REMARK    5  A    between atoms: C_21  and  N_27
REMARK    6  A    between atoms: C_28  and  C_32
REMARK                            x       y       z     vdW  Elec       q    Type
REMARK                         _______ _______ _______ _____ _____    ______ ____
ROOT
ATOM      1  O   UNL     1      33.830 -19.826 -20.579  0.00  0.00    -0.277 OA
ATOM      2  N   UNL     1      35.872 -19.040 -21.433  0.00  0.00    -0.284 N 
ATOM      3  C   UNL     1      35.043 -19.921 -20.741  0.00  0.00    +0.205 C 
ATOM      4  H   UNL     1      36.828 -19.271 -21.457  0.00  0.00    +0.155 HD
ENDROOT
BRANCH   2   6
ATOM      5  F   UNL     1      35.322 -19.021 -24.164  0.00  0.00    -0.203 F 
ATOM      6  C   UNL     1      35.499 -17.852 -22.104  0.00  0.00    +0.078 C 
ATOM      7  C   UNL     1      35.230 -17.876 -23.473  0.00  0.00    +0.155 C 
ATOM      8  C   UNL     1      35.401 -16.654 -21.396  0.00  0.00    +0.018 C 
ATOM      9  C   UNL     1      34.766 -15.506 -23.424  0.00  0.00    +0.061 C 
ATOM     10  C   UNL     1      34.863 -16.703 -24.132  0.00  0.00    +0.046 C 
ATOM     11  C   UNL     1      35.035 -15.480 -22.056  0.00  0.00    +0.017 C 
BRANCH   9  13
ATOM     12  O   UNL     1      33.402 -15.376 -25.971  0.00  0.00    -0.269 OA
ATOM     13  N   UNL     1      34.385 -14.286 -24.109  0.00  0.00    -0.233 N 
ATOM     14  C   UNL     1      33.754 -14.356 -25.378  0.00  0.00    +0.257 C 
ATOM     15  C   UNL     1      34.617 -13.040 -23.521  0.00  0.00    +0.072 C 
ATOM     16  C   UNL     1      33.436 -13.050 -26.037  0.00  0.00    +0.059 C 
ATOM     17  C   UNL     1      34.293 -11.888 -24.116  0.00  0.00    +0.017 C 
ATOM     18  C   UNL     1      33.691 -11.896 -25.416  0.00  0.00    +0.006 C 
ENDBRANCH   9  13
ENDBRANCH   2   6
BRANCH   3  19
ATOM     19  C   UNL     1      35.857 -21.070 -20.171  0.00  0.00    +0.010 C 
BRANCH  19  20
ATOM     20  N   UNL     1      35.518 -21.255 -18.768  0.00  0.00    +0.394 N 
ATOM     21  C   UNL     1      36.061 -22.054 -16.646  0.00  0.00    +0.049 C 
ATOM     22  C   UNL     1      34.707 -22.638 -17.060  0.00  0.00    -0.005 C 
ATOM     23  C   UNL     1      36.690 -21.565 -17.947  0.00  0.00    -0.057 C 
ATOM     24  C   UNL     1      34.605 -22.378 -18.558  0.00  0.00    -0.075 C 
ATOM     25  H   UNL     1      35.094 -20.368 -18.497  0.00  0.00    -0.079 HD
BRANCH  21  27
ATOM     26  O   UNL     1      35.851 -22.845 -13.895  0.00  0.00    -0.270 OA
ATOM     27  N   UNL     1      36.893 -23.003 -15.961  0.00  0.00    -0.304 N 
ATOM     28  C   UNL     1      36.718 -23.326 -14.621  0.00  0.00    +0.252 C 
ATOM     29  H   UNL     1      37.618 -23.443 -16.462  0.00  0.00    +0.150 HD
BRANCH  28  32
ATOM     30 CL   UNL     1      41.150 -26.545 -13.848  0.00  0.00    -0.075 Cl
ATOM     31  S   UNL     1      39.145 -24.615 -14.882  0.00  0.00    -0.071 S 
ATOM     32  C   UNL     1      37.679 -24.307 -14.053  0.00  0.00    +0.084 C 
ATOM     33  C   UNL     1      37.573 -25.050 -12.897  0.00  0.00    +0.012 C 
ATOM     34  C   UNL     1      38.710 -25.883 -12.691  0.00  0.00    +0.019 C 
ATOM     35  C   UNL     1      39.642 -25.745 -13.696  0.00  0.00    +0.087 C 
ENDBRANCH  28  32
ENDBRANCH  21  27
ENDBRANCH  19  20
ENDBRANCH   3  19
TORSDOF 6
ENDMDL
MODEL 6
REMARK VINA RESULT:     -10.5      5.131      8.647
REMARK  Name = 42628060
REMARK  6 active torsions:
REMARK  status: ('A' for Active; 'I' for Inactive)
REMARK    1  A    between atoms: N_2  and  C_6
REMARK    2  A    between atoms: C_3  and  C_19
REMARK    3  A    between atoms: C_9  and  N_13
REMARK    4  A    between atoms: C_19  and  N_20
REMARK    5  A    between atoms: C_21  and  N_27
REMARK    6  A    between atoms: C_28  and  C_32
REMARK                            x       y       z     vdW  Elec       q    Type
REMARK                         _______ _______ _______ _____ _____    ______ ____
ROOT
ATOM      1  O   UNL     1      36.786 -20.143 -19.781  0.00  0.00    -0.277 OA
ATOM      2  N   UNL     1      34.895 -21.312 -19.025  0.00  0.00    -0.284 N 
ATOM      3  C   UNL     1      35.614 -20.487 -19.889  0.00  0.00    +0.205 C 
ATOM      4  H   UNL     1      33.956 -21.480 -19.265  0.00  0.00    +0.155 HD
ENDROOT
BRANCH   2   6
ATOM      5  F   UNL     1      33.216 -22.880 -17.449  0.00  0.00    -0.203 F 
ATOM      6  C   UNL     1      35.359 -21.936 -17.843  0.00  0.00    +0.078 C 
ATOM      7  C   UNL     1      34.493 -22.715 -17.077  0.00  0.00    +0.155 C 
ATOM      8  C   UNL     1      36.686 -21.770 -17.444  0.00  0.00    +0.018 C 
ATOM      9  C   UNL     1      36.279 -23.162 -15.512  0.00  0.00    +0.061 C 
ATOM     10  C   UNL     1      34.953 -23.328 -15.911  0.00  0.00    +0.046 C 
ATOM     11  C   UNL     1      37.146 -22.384 -16.278  0.00  0.00    +0.017 C 
BRANCH   9  13
ATOM     12  O   UNL     1      36.780 -25.993 -15.198  0.00  0.00    -0.269 OA
ATOM     13  N   UNL     1      36.757 -23.799 -14.301  0.00  0.00    -0.233 N 
ATOM     14  C   UNL     1      36.925 -25.207 -14.261  0.00  0.00    +0.257 C 
ATOM     15  C   UNL     1      37.075 -23.034 -13.176  0.00  0.00    +0.072 C 
ATOM     16  C   UNL     1      37.378 -25.788 -12.959  0.00  0.00    +0.059 C 
ATOM     17  C   UNL     1      37.510 -23.574 -12.033  0.00  0.00    +0.017 C 
ATOM     18  C   UNL     1      37.659 -24.994 -11.922  0.00  0.00    +0.006 C 
ENDBRANCH   9  13
ENDBRANCH   2   6
BRANCH   3  19
ATOM     19  C   UNL     1      34.729 -20.032 -21.037  0.00  0.00    +0.010 C 
BRANCH  19  20
ATOM     20  N   UNL     1      35.445 -19.053 -21.841  0.00  0.00    +0.394 N 
ATOM     21  C   UNL     1      35.721 -16.859 -22.581  0.00  0.00    +0.049 C 
ATOM     22  C   UNL     1      35.588 -17.776 -23.800  0.00  0.00    -0.005 C 
ATOM     23  C   UNL     1      35.176 -17.678 -21.414  0.00  0.00    -0.057 C 
ATOM     24  C   UNL     1      35.052 -19.092 -23.249  0.00  0.00    -0.075 C 
ATOM     25  H   UNL     1      36.426 -19.300 -21.716  0.00  0.00    -0.079 HD
BRANCH  21  27
ATOM     26  O   UNL     1      34.908 -15.068 -20.490  0.00  0.00    -0.270 OA
ATOM     27  N   UNL     1      35.027 -15.611 -22.742  0.00  0.00    -0.304 N 
ATOM     28  C   UNL     1      34.671 -14.806 -21.667  0.00  0.00    +0.252 C 
ATOM     29  H   UNL     1      34.793 -15.315 -23.651  0.00  0.00    +0.150 HD
BRANCH  28  32
ATOM     30 CL   UNL     1      31.154 -10.540 -21.494  0.00  0.00    -0.075 Cl
ATOM     31  S   UNL     1      32.696 -13.018 -20.947  0.00  0.00    -0.071 S 
ATOM     32  C   UNL     1      33.934 -13.559 -21.999  0.00  0.00    +0.084 C 
ATOM     33  C   UNL     1      34.099 -12.720 -23.079  0.00  0.00    +0.012 C 
ATOM     34  C   UNL     1      33.196 -11.618 -23.042  0.00  0.00    +0.019 C 
ATOM     35  C   UNL     1      32.376 -11.657 -21.936  0.00  0.00    +0.087 C 
ENDBRANCH  28  32
ENDBRANCH  21  27
ENDBRANCH  19  20
ENDBRANCH   3  19
TORSDOF 6
ENDMDL
MODEL 7
REMARK VINA RESULT:     -10.3      3.920      6.673
REMARK  Name = 42628060
REMARK  6 active torsions:
REMARK  status: ('A' for Active; 'I' for Inactive)
REMARK    1  A    between atoms: N_2  and  C_6
REMARK    2  A    between atoms: C_3  and  C_19
REMARK    3  A    between atoms: C_9  and  N_13
REMARK    4  A    between atoms: C_19  and  N_20
REMARK    5  A    between atoms: C_21  and  N_27
REMARK    6  A    between atoms: C_28  and  C_32
REMARK                            x       y       z     vdW  Elec       q    Type
REMARK                         _______ _______ _______ _____ _____    ______ ____
ROOT
ATOM      1  O   UNL     1      35.691 -17.731 -20.775  0.00  0.00    -0.277 OA
ATOM      2  N   UNL     1      35.817 -20.002 -21.362  0.00  0.00    -0.284 N 
ATOM      3  C   UNL     1      36.032 -18.635 -21.531  0.00  0.00    +0.205 C 
ATOM      4  H   UNL     1      36.157 -20.587 -22.077  0.00  0.00    +0.155 HD
ENDROOT
BRANCH   2   6
ATOM      5  F   UNL     1      33.049 -19.902 -21.061  0.00  0.00    -0.203 F 
ATOM      6  C   UNL     1      35.167 -20.645 -20.284  0.00  0.00    +0.078 C 
ATOM      7  C   UNL     1      33.779 -20.576 -20.161  0.00  0.00    +0.155 C 
ATOM      8  C   UNL     1      35.916 -21.349 -19.340  0.00  0.00    +0.018 C 
ATOM      9  C   UNL     1      33.889 -21.914 -18.153  0.00  0.00    +0.061 C 
ATOM     10  C   UNL     1      33.140 -21.211 -19.096  0.00  0.00    +0.046 C 
ATOM     11  C   UNL     1      35.277 -21.984 -18.274  0.00  0.00    +0.017 C 
BRANCH   9  13
ATOM     12  O   UNL     1      35.211 -23.444 -16.084  0.00  0.00    -0.269 OA
ATOM     13  N   UNL     1      33.226 -22.574 -17.045  0.00  0.00    -0.233 N 
ATOM     14  C   UNL     1      33.985 -23.330 -16.115  0.00  0.00    +0.257 C 
ATOM     15  C   UNL     1      31.845 -22.453 -16.872  0.00  0.00    +0.072 C 
ATOM     16  C   UNL     1      33.217 -24.015 -15.029  0.00  0.00    +0.059 C 
ATOM     17  C   UNL     1      31.186 -23.049 -15.873  0.00  0.00    +0.017 C 
ATOM     18  C   UNL     1      31.895 -23.859 -14.929  0.00  0.00    +0.006 C 
ENDBRANCH   9  13
ENDBRANCH   2   6
BRANCH   3  19
ATOM     19  C   UNL     1      36.771 -18.377 -22.833  0.00  0.00    +0.010 C 
BRANCH  19  20
ATOM     20  N   UNL     1      36.016 -17.428 -23.638  0.00  0.00    +0.394 N 
ATOM     21  C   UNL     1      34.826 -15.432 -23.822  0.00  0.00    +0.049 C 
ATOM     22  C   UNL     1      33.946 -16.577 -24.329  0.00  0.00    -0.005 C 
ATOM     23  C   UNL     1      35.920 -16.112 -23.004  0.00  0.00    -0.057 C 
ATOM     24  C   UNL     1      34.630 -17.849 -23.842  0.00  0.00    -0.075 C 
ATOM     25  H   UNL     1      36.530 -17.385 -24.517  0.00  0.00    -0.079 HD
BRANCH  21  27
ATOM     26  O   UNL     1      34.111 -12.777 -24.649  0.00  0.00    -0.270 OA
ATOM     27  N   UNL     1      34.095 -14.462 -23.055  0.00  0.00    -0.304 N 
ATOM     28  C   UNL     1      33.792 -13.195 -23.538  0.00  0.00    +0.252 C 
ATOM     29  H   UNL     1      33.795 -14.706 -22.148  0.00  0.00    +0.150 HD
BRANCH  28  32
ATOM     30 CL   UNL     1      31.605  -8.721 -21.131  0.00  0.00    -0.075 Cl
ATOM     31  S   UNL     1      33.050 -10.614 -22.904  0.00  0.00    -0.071 S 
ATOM     32  C   UNL     1      33.052 -12.300 -22.611  0.00  0.00    +0.084 C 
ATOM     33  C   UNL     1      32.324 -12.631 -21.489  0.00  0.00    +0.012 C 
ATOM     34  C   UNL     1      31.757 -11.484 -20.862  0.00  0.00    +0.019 C 
ATOM     35  C   UNL     1      32.073 -10.321 -21.528  0.00  0.00    +0.087 C 
ENDBRANCH  28  32
ENDBRANCH  21  27
ENDBRANCH  19  20
ENDBRANCH   3  19
TORSDOF 6
ENDMDL
MODEL 8
REMARK VINA RESULT:     -10.0      5.490     11.926
REMARK  Name = 42628060
REMARK  6 active torsions:
REMARK  status: ('A' for Active; 'I' for Inactive)
REMARK    1  A    between atoms: N_2  and  C_6
REMARK    2  A    between atoms: C_3  and  C_19
REMARK    3  A    between atoms: C_9  and  N_13
REMARK    4  A    between atoms: C_19  and  N_20
REMARK    5  A    between atoms: C_21  and  N_27
REMARK    6  A    between atoms: C_28  and  C_32
REMARK                            x       y       z     vdW  Elec       q    Type
REMARK                         _______ _______ _______ _____ _____    ______ ____
ROOT
ATOM      1  O   UNL     1      33.202 -14.738 -24.885  0.00  0.00    -0.277 OA
ATOM      2  N   UNL     1      34.839 -13.555 -23.688  0.00  0.00    -0.284 N 
ATOM      3  C   UNL     1      34.310 -14.652 -24.365  0.00  0.00    +0.205 C 
ATOM      4  H   UNL     1      35.749 -13.664 -23.328  0.00  0.00    +0.155 HD
ENDROOT
BRANCH   2   6
ATOM      5  F   UNL     1      32.854 -13.241 -21.759  0.00  0.00    -0.203 F 
ATOM      6  C   UNL     1      34.222 -12.303 -23.459  0.00  0.00    +0.078 C 
ATOM      7  C   UNL     1      33.231 -12.179 -22.485  0.00  0.00    +0.155 C 
ATOM      8  C   UNL     1      34.605 -11.191 -24.209  0.00  0.00    +0.018 C 
ATOM      9  C   UNL     1      33.006  -9.832 -23.013  0.00  0.00    +0.061 C 
ATOM     10  C   UNL     1      32.623 -10.943 -22.262  0.00  0.00    +0.046 C 
ATOM     11  C   UNL     1      33.997  -9.955 -23.986  0.00  0.00    +0.017 C 
BRANCH   9  13
ATOM     12  O   UNL     1      32.833  -8.490 -20.456  0.00  0.00    -0.269 OA
ATOM     13  N   UNL     1      32.374  -8.547 -22.781  0.00  0.00    -0.233 N 
ATOM     14  C   UNL     1      32.319  -8.013 -21.468  0.00  0.00    +0.257 C 
ATOM     15  C   UNL     1      31.835  -7.821 -23.846  0.00  0.00    +0.072 C 
ATOM     16  C   UNL     1      31.609  -6.705 -21.310  0.00  0.00    +0.059 C 
ATOM     17  C   UNL     1      31.234  -6.638 -23.682  0.00  0.00    +0.017 C 
ATOM     18  C   UNL     1      31.113  -6.069 -22.374  0.00  0.00    +0.006 C 
ENDBRANCH   9  13
ENDBRANCH   2   6
BRANCH   3  19
ATOM     19  C   UNL     1      35.312 -15.794 -24.379  0.00  0.00    +0.010 C 
BRANCH  19  20
ATOM     20  N   UNL     1      34.626 -17.042 -24.082  0.00  0.00    +0.394 N 
ATOM     21  C   UNL     1      34.225 -18.835 -22.646  0.00  0.00    +0.049 C 
ATOM     22  C   UNL     1      34.654 -19.384 -24.010  0.00  0.00    -0.005 C 
ATOM     23  C   UNL     1      34.666 -17.375 -22.656  0.00  0.00    -0.057 C 
ATOM     24  C   UNL     1      35.241 -18.189 -24.751  0.00  0.00    -0.075 C 
ATOM     25  H   UNL     1      33.672 -16.884 -24.405  0.00  0.00    -0.079 HD
BRANCH  21  27
ATOM     26  O   UNL     1      32.784 -20.310 -20.649  0.00  0.00    -0.270 OA
ATOM     27  N   UNL     1      34.790 -19.567 -21.546  0.00  0.00    -0.304 N 
ATOM     28  C   UNL     1      34.012 -20.255 -20.623  0.00  0.00    +0.252 C 
ATOM     29  H   UNL     1      35.769 -19.582 -21.442  0.00  0.00    +0.150 HD
BRANCH  28  32
ATOM     30 CL   UNL     1      35.222 -23.317 -16.178  0.00  0.00    -0.075 Cl
ATOM     31  S   UNL     1      33.872 -21.891 -18.405  0.00  0.00    -0.071 S 
ATOM     32  C   UNL     1      34.746 -20.941 -19.529  0.00  0.00    +0.084 C 
ATOM     33  C   UNL     1      36.097 -20.934 -19.259  0.00  0.00    +0.012 C 
ATOM     34  C   UNL     1      36.418 -21.720 -18.115  0.00  0.00    +0.019 C 
ATOM     35  C   UNL     1      35.301 -22.297 -17.554  0.00  0.00    +0.087 C 
ENDBRANCH  28  32
ENDBRANCH  21  27
ENDBRANCH  19  20
ENDBRANCH   3  19
TORSDOF 6
ENDMDL
MODEL 9
REMARK VINA RESULT:      -9.8      5.179      9.107
REMARK  Name = 42628060
REMARK  6 active torsions:
REMARK  status: ('A' for Active; 'I' for Inactive)
REMARK    1  A    between atoms: N_2  and  C_6
REMARK    2  A    between atoms: C_3  and  C_19
REMARK    3  A    between atoms: C_9  and  N_13
REMARK    4  A    between atoms: C_19  and  N_20
REMARK    5  A    between atoms: C_21  and  N_27
REMARK    6  A    between atoms: C_28  and  C_32
REMARK                            x       y       z     vdW  Elec       q    Type
REMARK                         _______ _______ _______ _____ _____    ______ ____
ROOT
ATOM      1  O   UNL     1      36.328 -21.617 -20.222  0.00  0.00    -0.277 OA
ATOM      2  N   UNL     1      34.842 -21.159 -18.462  0.00  0.00    -0.284 N 
ATOM      3  C   UNL     1      35.343 -21.051 -19.758  0.00  0.00    +0.205 C 
ATOM      4  H   UNL     1      34.040 -20.625 -18.260  0.00  0.00    +0.155 HD
ENDROOT
BRANCH   2   6
ATOM      5  F   UNL     1      37.476 -20.903 -17.591  0.00  0.00    -0.203 F 
ATOM      6  C   UNL     1      35.351 -21.947 -17.403  0.00  0.00    +0.078 C 
ATOM      7  C   UNL     1      36.675 -21.795 -16.991  0.00  0.00    +0.155 C 
ATOM      8  C   UNL     1      34.527 -22.880 -16.773  0.00  0.00    +0.018 C 
ATOM      9  C   UNL     1      36.350 -23.506 -15.317  0.00  0.00    +0.061 C 
ATOM     10  C   UNL     1      37.174 -22.574 -15.947  0.00  0.00    +0.046 C 
ATOM     11  C   UNL     1      35.027 -23.660 -15.729  0.00  0.00    +0.017 C 
BRANCH   9  13
ATOM     12  O   UNL     1      36.837 -26.355 -15.445  0.00  0.00    -0.269 OA
ATOM     13  N   UNL     1      36.870 -24.317 -14.233  0.00  0.00    -0.233 N 
ATOM     14  C   UNL     1      37.026 -25.716 -14.409  0.00  0.00    +0.257 C 
ATOM     15  C   UNL     1      37.238 -23.729 -13.021  0.00  0.00    +0.072 C 
ATOM     16  C   UNL     1      37.525 -26.485 -13.226  0.00  0.00    +0.059 C 
ATOM     17  C   UNL     1      37.712 -24.434 -11.989  0.00  0.00    +0.017 C 
ATOM     18  C   UNL     1      37.852 -25.855 -12.096  0.00  0.00    +0.006 C 
ENDBRANCH   9  13
ENDBRANCH   2   6
BRANCH   3  19
ATOM     19  C   UNL     1      34.490 -20.093 -20.572  0.00  0.00    +0.010 C 
BRANCH  19  20
ATOM     20  N   UNL     1      35.338 -19.360 -21.500  0.00  0.00    +0.394 N 
ATOM     21  C   UNL     1      35.916 -17.369 -22.568  0.00  0.00    +0.049 C 
ATOM     22  C   UNL     1      35.665 -18.442 -23.631  0.00  0.00    -0.005 C 
ATOM     23  C   UNL     1      35.259 -17.911 -21.302  0.00  0.00    -0.057 C 
ATOM     24  C   UNL     1      34.951 -19.570 -22.895  0.00  0.00    -0.075 C 
ATOM     25  H   UNL     1      36.276 -19.714 -21.312  0.00  0.00    -0.079 HD
BRANCH  21  27
ATOM     26  O   UNL     1      34.795 -16.642 -25.109  0.00  0.00    -0.270 OA
ATOM     27  N   UNL     1      35.401 -16.081 -22.941  0.00  0.00    -0.304 N 
ATOM     28  C   UNL     1      34.875 -15.819 -24.200  0.00  0.00    +0.252 C 
ATOM     29  H   UNL     1      35.422 -15.354 -22.277  0.00  0.00    +0.150 HD
BRANCH  28  32
ATOM     30 CL   UNL     1      33.635 -10.471 -23.522  0.00  0.00    -0.075 Cl
ATOM     31  S   UNL     1      34.527 -13.281 -23.172  0.00  0.00    -0.071 S 
ATOM     32  C   UNL     1      34.407 -14.428 -24.438  0.00  0.00    +0.084 C 
ATOM     33  C   UNL     1      33.863 -13.884 -25.580  0.00  0.00    +0.012 C 
ATOM     34  C   UNL     1      33.540 -12.506 -25.413  0.00  0.00    +0.019 C 
ATOM     35  C   UNL     1      33.849 -12.050 -24.151  0.00  0.00    +0.087 C 
ENDBRANCH  28  32
ENDBRANCH  21  27
ENDBRANCH  19  20
ENDBRANCH   3  19
TORSDOF 6
ENDMDL
