MODEL 1
REMARK VINA RESULT:     -12.5      0.000      0.000
REMARK  Name = 44141871
REMARK  6 active torsions:
REMARK  status: ('A' for Active; 'I' for Inactive)
REMARK    1  A    between atoms: C_1  and  C_10
REMARK    2  A    between atoms: C_4  and  O_20
REMARK    3  A    between atoms: C_9  and  C_13
REMARK    4  A    between atoms: C_13  and  C_15
REMARK    5  A    between atoms: O_20  and  C_21
REMARK    6  A    between atoms: C_21  and  C_23
REMARK                            x       y       z     vdW  Elec       q    Type
REMARK                         _______ _______ _______ _____ _____    ______ ____
ROOT
ATOM      1  C   UNL     1      35.255 -18.523 -21.970  0.00  0.00    +0.015 C 
ATOM      2  C   UNL     1      34.086 -19.179 -21.585  0.00  0.00    +0.004 C 
ATOM      3  C   UNL     1      36.472 -18.862 -21.378  0.00  0.00    +0.004 C 
ATOM      4  C   UNL     1      35.351 -20.513 -20.016  0.00  0.00    +0.139 C 
ATOM      5  C   UNL     1      34.134 -20.174 -20.608  0.00  0.00    +0.037 C 
ATOM      6  C   UNL     1      36.520 -19.857 -20.402  0.00  0.00    +0.037 C 
ENDROOT
BRANCH   1  10
ATOM      7  N   UNL     1      35.171 -17.775 -24.313  0.00  0.00    -0.236 N 
ATOM      8  N   UNL     1      35.129 -16.684 -25.098  0.00  0.00    -0.180 NA
ATOM      9  C   UNL     1      35.184 -16.124 -22.883  0.00  0.00    +0.018 C 
ATOM     10  C   UNL     1      35.206 -17.494 -22.980  0.00  0.00    +0.063 C 
ATOM     11  C   UNL     1      35.136 -15.678 -24.218  0.00  0.00    +0.115 C 
ATOM     12  H   UNL     1      35.177 -18.693 -24.670  0.00  0.00    +0.174 HD
BRANCH   9  13
ATOM     13  C   UNL     1      35.206 -15.296 -21.665  0.00  0.00    +0.056 C 
BRANCH  13  15
ATOM     14  N   UNL     1      32.254 -12.145 -21.587  0.00  0.00    -0.242 NA
ATOM     15  C   UNL     1      34.165 -14.184 -21.637  0.00  0.00    -0.015 C 
ATOM     16  C   UNL     1      33.308 -14.058 -20.549  0.00  0.00    +0.017 C 
ATOM     17  C   UNL     1      34.068 -13.293 -22.699  0.00  0.00    +0.017 C 
ATOM     18  C   UNL     1      32.379 -13.031 -20.573  0.00  0.00    +0.099 C 
ATOM     19  C   UNL     1      33.105 -12.299 -22.626  0.00  0.00    +0.099 C 
ENDBRANCH  13  15
ENDBRANCH   9  13
ENDBRANCH   1  10
BRANCH   4  20
ATOM     20  O   UNL     1      35.399 -21.492 -19.060  0.00  0.00    -0.468 OA
BRANCH  20  21
ATOM     21  C   UNL     1      34.369 -22.472 -19.094  0.00  0.00    +0.264 C 
BRANCH  21  23
ATOM     22  N   UNL     1      32.441 -22.609 -17.637  0.00  0.00    -0.406 NA
ATOM     23  C   UNL     1      33.790 -22.630 -17.727  0.00  0.00    +0.152 C 
ATOM     24  C   UNL     1      32.662 -22.914 -15.258  0.00  0.00    +0.026 C 
ATOM     25  C   UNL     1      31.882 -22.749 -16.420  0.00  0.00    +0.113 C 
ATOM     26  C   UNL     1      34.636 -22.786 -16.648  0.00  0.00    +0.031 C 
ATOM     27  C   UNL     1      34.057 -22.930 -15.395  0.00  0.00    +0.005 C 
ATOM     28  C   UNL     1      32.045 -23.058 -14.003  0.00  0.00    +0.002 C 
ATOM     29  C   UNL     1      30.496 -22.733 -16.282  0.00  0.00    +0.085 C 
ATOM     30  C   UNL     1      30.658 -23.038 -13.894  0.00  0.00    -0.004 C 
ATOM     31  C   UNL     1      29.882 -22.876 -15.035  0.00  0.00    -0.019 C 
ENDBRANCH  21  23
ENDBRANCH  20  21
ENDBRANCH   4  20
TORSDOF 6
ENDMDL
MODEL 2
REMARK VINA RESULT:     -12.3      3.194      6.578
REMARK  Name = 44141871
REMARK  6 active torsions:
REMARK  status: ('A' for Active; 'I' for Inactive)
REMARK    1  A    between atoms: C_1  and  C_10
REMARK    2  A    between atoms: C_4  and  O_20
REMARK    3  A    between atoms: C_9  and  C_13
REMARK    4  A    between atoms: C_13  and  C_15
REMARK    5  A    between atoms: O_20  and  C_21
REMARK    6  A    between atoms: C_21  and  C_23
REMARK                            x       y       z     vdW  Elec       q    Type
REMARK                         _______ _______ _______ _____ _____    ______ ____
ROOT
ATOM      1  C   UNL     1      33.299 -12.962 -22.207  0.00  0.00    +0.015 C 
ATOM      2  C   UNL     1      33.958 -13.688 -21.215  0.00  0.00    +0.004 C 
ATOM      3  C   UNL     1      33.457 -13.314 -23.548  0.00  0.00    +0.004 C 
ATOM      4  C   UNL     1      34.931 -15.116 -22.903  0.00  0.00    +0.139 C 
ATOM      5  C   UNL     1      34.773 -14.764 -21.562  0.00  0.00    +0.037 C 
ATOM      6  C   UNL     1      34.272 -14.390 -23.896  0.00  0.00    +0.037 C 
ENDROOT
BRANCH   1  10
ATOM      7  N   UNL     1      31.499 -11.935 -20.880  0.00  0.00    -0.236 N 
ATOM      8  N   UNL     1      30.815 -10.793 -20.689  0.00  0.00    -0.180 NA
ATOM      9  C   UNL     1      32.395 -10.562 -22.324  0.00  0.00    +0.018 C 
ATOM     10  C   UNL     1      32.456 -11.849 -21.847  0.00  0.00    +0.063 C 
ATOM     11  C   UNL     1      31.367  -9.958 -21.573  0.00  0.00    +0.115 C 
ATOM     12  H   UNL     1      31.325 -12.758 -20.367  0.00  0.00    +0.174 HD
BRANCH   9  13
ATOM     13  C   UNL     1      33.212  -9.941 -23.379  0.00  0.00    +0.056 C 
BRANCH  13  15
ATOM     14  N   UNL     1      33.119  -5.624 -23.414  0.00  0.00    -0.242 NA
ATOM     15  C   UNL     1      33.179  -8.419 -23.392  0.00  0.00    -0.015 C 
ATOM     16  C   UNL     1      34.303  -7.693 -23.010  0.00  0.00    +0.017 C 
ATOM     17  C   UNL     1      32.026  -7.748 -23.784  0.00  0.00    +0.017 C 
ATOM     18  C   UNL     1      34.221  -6.311 -23.038  0.00  0.00    +0.099 C 
ATOM     19  C   UNL     1      32.047  -6.363 -23.778  0.00  0.00    +0.099 C 
ENDBRANCH  13  15
ENDBRANCH   9  13
ENDBRANCH   1  10
BRANCH   4  20
ATOM     20  O   UNL     1      35.729 -16.175 -23.245  0.00  0.00    -0.468 OA
BRANCH  20  21
ATOM     21  C   UNL     1      35.084 -17.427 -23.437  0.00  0.00    +0.264 C 
BRANCH  21  23
ATOM     22  N   UNL     1      34.446 -19.066 -21.774  0.00  0.00    -0.406 NA
ATOM     23  C   UNL     1      35.453 -18.352 -22.325  0.00  0.00    +0.152 C 
ATOM     24  C   UNL     1      36.056 -20.063 -20.285  0.00  0.00    +0.026 C 
ATOM     25  C   UNL     1      34.740 -19.911 -20.768  0.00  0.00    +0.113 C 
ATOM     26  C   UNL     1      36.770 -18.432 -21.921  0.00  0.00    +0.031 C 
ATOM     27  C   UNL     1      37.070 -19.303 -20.883  0.00  0.00    +0.005 C 
ATOM     28  C   UNL     1      36.327 -20.954 -19.233  0.00  0.00    +0.002 C 
ATOM     29  C   UNL     1      33.732 -20.666 -20.173  0.00  0.00    +0.085 C 
ATOM     30  C   UNL     1      35.300 -21.696 -18.656  0.00  0.00    -0.004 C 
ATOM     31  C   UNL     1      34.002 -21.552 -19.127  0.00  0.00    -0.019 C 
ENDBRANCH  21  23
ENDBRANCH  20  21
ENDBRANCH   4  20
TORSDOF 6
ENDMDL
MODEL 3
REMARK VINA RESULT:     -12.2      2.015      9.920
REMARK  Name = 44141871
REMARK  6 active torsions:
REMARK  status: ('A' for Active; 'I' for Inactive)
REMARK    1  A    between atoms: C_1  and  C_10
REMARK    2  A    between atoms: C_4  and  O_20
REMARK    3  A    between atoms: C_9  and  C_13
REMARK    4  A    between atoms: C_13  and  C_15
REMARK    5  A    between atoms: O_20  and  C_21
REMARK    6  A    between atoms: C_21  and  C_23
REMARK                            x       y       z     vdW  Elec       q    Type
REMARK                         _______ _______ _______ _____ _____    ______ ____
ROOT
ATOM      1  C   UNL     1      34.550 -22.595 -17.108  0.00  0.00    +0.015 C 
ATOM      2  C   UNL     1      35.795 -22.067 -17.450  0.00  0.00    +0.004 C 
ATOM      3  C   UNL     1      33.456 -22.401 -17.950  0.00  0.00    +0.004 C 
ATOM      4  C   UNL     1      34.851 -21.153 -19.478  0.00  0.00    +0.139 C 
ATOM      5  C   UNL     1      35.946 -21.347 -18.635  0.00  0.00    +0.037 C 
ATOM      6  C   UNL     1      33.606 -21.680 -19.135  0.00  0.00    +0.037 C 
ENDROOT
BRANCH   1  10
ATOM      7  N   UNL     1      35.266 -24.318 -15.503  0.00  0.00    -0.236 N 
ATOM      8  N   UNL     1      34.953 -24.899 -14.331  0.00  0.00    -0.180 NA
ATOM      9  C   UNL     1      33.446 -23.275 -14.892  0.00  0.00    +0.018 C 
ATOM     10  C   UNL     1      34.395 -23.340 -15.883  0.00  0.00    +0.063 C 
ATOM     11  C   UNL     1      33.840 -24.258 -13.963  0.00  0.00    +0.115 C 
ATOM     12  H   UNL     1      36.052 -24.575 -16.037  0.00  0.00    +0.174 HD
BRANCH   9  13
ATOM     13  C   UNL     1      32.275 -22.386 -14.809  0.00  0.00    +0.056 C 
BRANCH  13  15
ATOM     14  N   UNL     1      28.540 -24.222 -15.960  0.00  0.00    -0.242 NA
ATOM     15  C   UNL     1      30.958 -23.034 -15.215  0.00  0.00    -0.015 C 
ATOM     16  C   UNL     1      30.184 -22.468 -16.222  0.00  0.00    +0.017 C 
ATOM     17  C   UNL     1      30.524 -24.192 -14.580  0.00  0.00    +0.017 C 
ATOM     18  C   UNL     1      28.994 -23.095 -16.554  0.00  0.00    +0.099 C 
ATOM     19  C   UNL     1      29.319 -24.742 -14.986  0.00  0.00    +0.099 C 
ENDBRANCH  13  15
ENDBRANCH   9  13
ENDBRANCH   1  10
BRANCH   4  20
ATOM     20  O   UNL     1      34.999 -20.448 -20.643  0.00  0.00    -0.468 OA
BRANCH  20  21
ATOM     21  C   UNL     1      36.145 -19.613 -20.745  0.00  0.00    +0.264 C 
BRANCH  21  23
ATOM     22  N   UNL     1      35.481 -17.293 -20.934  0.00  0.00    -0.406 NA
ATOM     23  C   UNL     1      35.820 -18.426 -21.590  0.00  0.00    +0.152 C 
ATOM     24  C   UNL     1      35.211 -16.216 -23.072  0.00  0.00    +0.026 C 
ATOM     25  C   UNL     1      35.181 -16.201 -21.663  0.00  0.00    +0.113 C 
ATOM     26  C   UNL     1      35.876 -18.538 -22.964  0.00  0.00    +0.031 C 
ATOM     27  C   UNL     1      35.566 -17.411 -23.712  0.00  0.00    +0.005 C 
ATOM     28  C   UNL     1      34.892 -15.057 -23.801  0.00  0.00    +0.002 C 
ATOM     29  C   UNL     1      34.828 -15.013 -21.028  0.00  0.00    +0.085 C 
ATOM     30  C   UNL     1      34.542 -13.883 -23.140  0.00  0.00    -0.004 C 
ATOM     31  C   UNL     1      34.511 -13.861 -21.752  0.00  0.00    -0.019 C 
ENDBRANCH  21  23
ENDBRANCH  20  21
ENDBRANCH   4  20
TORSDOF 6
ENDMDL
MODEL 4
REMARK VINA RESULT:     -12.1      2.276     10.393
REMARK  Name = 44141871
REMARK  6 active torsions:
REMARK  status: ('A' for Active; 'I' for Inactive)
REMARK    1  A    between atoms: C_1  and  C_10
REMARK    2  A    between atoms: C_4  and  O_20
REMARK    3  A    between atoms: C_9  and  C_13
REMARK    4  A    between atoms: C_13  and  C_15
REMARK    5  A    between atoms: O_20  and  C_21
REMARK    6  A    between atoms: C_21  and  C_23
REMARK                            x       y       z     vdW  Elec       q    Type
REMARK                         _______ _______ _______ _____ _____    ______ ____
ROOT
ATOM      1  C   UNL     1      34.231 -21.621 -18.634  0.00  0.00    +0.015 C 
ATOM      2  C   UNL     1      33.372 -20.886 -19.452  0.00  0.00    +0.004 C 
ATOM      3  C   UNL     1      35.604 -21.608 -18.875  0.00  0.00    +0.004 C 
ATOM      4  C   UNL     1      35.261 -20.125 -20.752  0.00  0.00    +0.139 C 
ATOM      5  C   UNL     1      33.887 -20.138 -20.510  0.00  0.00    +0.037 C 
ATOM      6  C   UNL     1      36.120 -20.860 -19.934  0.00  0.00    +0.037 C 
ENDROOT
BRANCH   1  10
ATOM      7  N   UNL     1      32.392 -22.783 -17.482  0.00  0.00    -0.236 N 
ATOM      8  N   UNL     1      32.085 -23.495 -16.383  0.00  0.00    -0.180 NA
ATOM      9  C   UNL     1      34.287 -22.883 -16.399  0.00  0.00    +0.018 C 
ATOM     10  C   UNL     1      33.697 -22.394 -17.539  0.00  0.00    +0.063 C 
ATOM     11  C   UNL     1      33.246 -23.553 -15.725  0.00  0.00    +0.115 C 
ATOM     12  H   UNL     1      31.734 -22.565 -18.181  0.00  0.00    +0.174 HD
BRANCH   9  13
ATOM     13  C   UNL     1      35.688 -22.746 -15.966  0.00  0.00    +0.056 C 
BRANCH  13  15
ATOM     14  N   UNL     1      36.794 -25.275 -12.645  0.00  0.00    -0.242 NA
ATOM     15  C   UNL     1      36.078 -23.638 -14.794  0.00  0.00    -0.015 C 
ATOM     16  C   UNL     1      35.923 -23.184 -13.489  0.00  0.00    +0.017 C 
ATOM     17  C   UNL     1      36.590 -24.910 -15.026  0.00  0.00    +0.017 C 
ATOM     18  C   UNL     1      36.293 -24.033 -12.459  0.00  0.00    +0.099 C 
ATOM     19  C   UNL     1      36.930 -25.682 -13.927  0.00  0.00    +0.099 C 
ENDBRANCH  13  15
ENDBRANCH   9  13
ENDBRANCH   1  10
BRANCH   4  20
ATOM     20  O   UNL     1      35.768 -19.388 -21.789  0.00  0.00    -0.468 OA
BRANCH  20  21
ATOM     21  C   UNL     1      36.136 -18.046 -21.501  0.00  0.00    +0.264 C 
BRANCH  21  23
ATOM     22  N   UNL     1      35.353 -15.847 -22.143  0.00  0.00    -0.406 NA
ATOM     23  C   UNL     1      35.525 -17.136 -22.514  0.00  0.00    +0.152 C 
ATOM     24  C   UNL     1      34.411 -15.415 -24.318  0.00  0.00    +0.026 C 
ATOM     25  C   UNL     1      34.804 -14.996 -23.030  0.00  0.00    +0.113 C 
ATOM     26  C   UNL     1      35.172 -17.638 -23.750  0.00  0.00    +0.031 C 
ATOM     27  C   UNL     1      34.606 -16.759 -24.663  0.00  0.00    +0.005 C 
ATOM     28  C   UNL     1      33.842 -14.499 -25.219  0.00  0.00    +0.002 C 
ATOM     29  C   UNL     1      34.609 -13.660 -22.688  0.00  0.00    +0.085 C 
ATOM     30  C   UNL     1      33.658 -13.170 -24.851  0.00  0.00    -0.004 C 
ATOM     31  C   UNL     1      34.043 -12.750 -23.584  0.00  0.00    -0.019 C 
ENDBRANCH  21  23
ENDBRANCH  20  21
ENDBRANCH   4  20
TORSDOF 6
ENDMDL
MODEL 5
REMARK VINA RESULT:     -12.0      3.693     11.309
REMARK  Name = 44141871
REMARK  6 active torsions:
REMARK  status: ('A' for Active; 'I' for Inactive)
REMARK    1  A    between atoms: C_1  and  C_10
REMARK    2  A    between atoms: C_4  and  O_20
REMARK    3  A    between atoms: C_9  and  C_13
REMARK    4  A    between atoms: C_13  and  C_15
REMARK    5  A    between atoms: O_20  and  C_21
REMARK    6  A    between atoms: C_21  and  C_23
REMARK                            x       y       z     vdW  Elec       q    Type
REMARK                         _______ _______ _______ _____ _____    ______ ____
ROOT
ATOM      1  C   UNL     1      34.686 -16.197 -23.645  0.00  0.00    +0.015 C 
ATOM      2  C   UNL     1      34.143 -15.469 -24.704  0.00  0.00    +0.004 C 
ATOM      3  C   UNL     1      35.047 -15.546 -22.465  0.00  0.00    +0.004 C 
ATOM      4  C   UNL     1      34.319 -13.441 -23.402  0.00  0.00    +0.139 C 
ATOM      5  C   UNL     1      33.959 -14.092 -24.582  0.00  0.00    +0.037 C 
ATOM      6  C   UNL     1      34.863 -14.169 -22.343  0.00  0.00    +0.037 C 
ENDROOT
BRANCH   1  10
ATOM      7  N   UNL     1      34.839 -18.263 -24.973  0.00  0.00    -0.236 N 
ATOM      8  N   UNL     1      35.036 -19.591 -24.886  0.00  0.00    -0.180 NA
ATOM      9  C   UNL     1      35.112 -18.594 -22.831  0.00  0.00    +0.018 C 
ATOM     10  C   UNL     1      34.876 -17.621 -23.771  0.00  0.00    +0.063 C 
ATOM     11  C   UNL     1      35.202 -19.787 -23.575  0.00  0.00    +0.115 C 
ATOM     12  H   UNL     1      34.683 -17.798 -25.827  0.00  0.00    +0.174 HD
BRANCH   9  13
ATOM     13  C   UNL     1      35.244 -18.440 -21.372  0.00  0.00    +0.056 C 
BRANCH  13  15
ATOM     14  N   UNL     1      34.430 -22.026 -19.108  0.00  0.00    -0.242 NA
ATOM     15  C   UNL     1      34.957 -19.705 -20.574  0.00  0.00    -0.015 C 
ATOM     16  C   UNL     1      33.644 -20.101 -20.344  0.00  0.00    +0.017 C 
ATOM     17  C   UNL     1      36.006 -20.467 -20.072  0.00  0.00    +0.017 C 
ATOM     18  C   UNL     1      33.436 -21.259 -19.611  0.00  0.00    +0.099 C 
ATOM     19  C   UNL     1      35.692 -21.608 -19.352  0.00  0.00    +0.099 C 
ENDBRANCH  13  15
ENDBRANCH   9  13
ENDBRANCH   1  10
BRANCH   4  20
ATOM     20  O   UNL     1      34.136 -12.090 -23.281  0.00  0.00    -0.468 OA
BRANCH  20  21
ATOM     21  C   UNL     1      34.401 -11.301 -24.434  0.00  0.00    +0.264 C 
BRANCH  21  23
ATOM     22  N   UNL     1      33.102  -9.427 -23.623  0.00  0.00    -0.406 NA
ATOM     23  C   UNL     1      34.301  -9.855 -24.080  0.00  0.00    +0.152 C 
ATOM     24  C   UNL     1      34.045  -7.220 -23.413  0.00  0.00    +0.026 C 
ATOM     25  C   UNL     1      32.972  -8.128 -23.293  0.00  0.00    +0.113 C 
ATOM     26  C   UNL     1      35.406  -9.043 -24.231  0.00  0.00    +0.031 C 
ATOM     27  C   UNL     1      35.270  -7.704 -23.891  0.00  0.00    +0.005 C 
ATOM     28  C   UNL     1      33.874  -5.870 -23.059  0.00  0.00    +0.002 C 
ATOM     29  C   UNL     1      31.755  -7.646 -22.819  0.00  0.00    +0.085 C 
ATOM     30  C   UNL     1      32.646  -5.415 -22.587  0.00  0.00    -0.004 C 
ATOM     31  C   UNL     1      31.586  -6.304 -22.467  0.00  0.00    -0.019 C 
ENDBRANCH  21  23
ENDBRANCH  20  21
ENDBRANCH   4  20
TORSDOF 6
ENDMDL
MODEL 6
REMARK VINA RESULT:     -12.0      3.539      6.520
REMARK  Name = 44141871
REMARK  6 active torsions:
REMARK  status: ('A' for Active; 'I' for Inactive)
REMARK    1  A    between atoms: C_1  and  C_10
REMARK    2  A    between atoms: C_4  and  O_20
REMARK    3  A    between atoms: C_9  and  C_13
REMARK    4  A    between atoms: C_13  and  C_15
REMARK    5  A    between atoms: O_20  and  C_21
REMARK    6  A    between atoms: C_21  and  C_23
REMARK                            x       y       z     vdW  Elec       q    Type
REMARK                         _______ _______ _______ _____ _____    ______ ____
ROOT
ATOM      1  C   UNL     1      34.286 -12.369 -23.940  0.00  0.00    +0.015 C 
ATOM      2  C   UNL     1      33.899 -13.063 -25.086  0.00  0.00    +0.004 C 
ATOM      3  C   UNL     1      34.627 -13.069 -22.783  0.00  0.00    +0.004 C 
ATOM      4  C   UNL     1      34.193 -15.158 -23.917  0.00  0.00    +0.139 C 
ATOM      5  C   UNL     1      33.853 -14.457 -25.075  0.00  0.00    +0.037 C 
ATOM      6  C   UNL     1      34.580 -14.463 -22.771  0.00  0.00    +0.037 C 
ENDROOT
BRANCH   1  10
ATOM      7  N   UNL     1      35.379 -10.232 -24.485  0.00  0.00    -0.236 N 
ATOM      8  N   UNL     1      35.242  -8.897 -24.401  0.00  0.00    -0.180 NA
ATOM      9  C   UNL     1      33.452  -9.984 -23.486  0.00  0.00    +0.018 C 
ATOM     10  C   UNL     1      34.335 -10.928 -23.952  0.00  0.00    +0.063 C 
ATOM     11  C   UNL     1      34.063  -8.751 -23.790  0.00  0.00    +0.115 C 
ATOM     12  H   UNL     1      36.162 -10.667 -24.895  0.00  0.00    +0.174 HD
BRANCH   9  13
ATOM     13  C   UNL     1      32.157 -10.198 -22.818  0.00  0.00    +0.056 C 
BRANCH  13  15
ATOM     14  N   UNL     1      32.106  -9.145 -18.630  0.00  0.00    -0.242 NA
ATOM     15  C   UNL     1      32.139  -9.827 -21.341  0.00  0.00    -0.015 C 
ATOM     16  C   UNL     1      32.310  -8.502 -20.952  0.00  0.00    +0.017 C 
ATOM     17  C   UNL     1      31.952 -10.810 -20.376  0.00  0.00    +0.017 C 
ATOM     18  C   UNL     1      32.286  -8.217 -19.597  0.00  0.00    +0.099 C 
ATOM     19  C   UNL     1      31.944 -10.421 -19.046  0.00  0.00    +0.099 C 
ENDBRANCH  13  15
ENDBRANCH   9  13
ENDBRANCH   1  10
BRANCH   4  20
ATOM     20  O   UNL     1      34.151 -16.526 -23.907  0.00  0.00    -0.468 OA
BRANCH  20  21
ATOM     21  C   UNL     1      35.388 -17.207 -24.073  0.00  0.00    +0.264 C 
BRANCH  21  23
ATOM     22  N   UNL     1      34.525 -18.704 -22.378  0.00  0.00    -0.406 NA
ATOM     23  C   UNL     1      35.619 -18.109 -22.906  0.00  0.00    +0.152 C 
ATOM     24  C   UNL     1      35.966 -19.771 -20.769  0.00  0.00    +0.026 C 
ATOM     25  C   UNL     1      34.694 -19.525 -21.324  0.00  0.00    +0.113 C 
ATOM     26  C   UNL     1      36.902 -18.288 -22.433  0.00  0.00    +0.031 C 
ATOM     27  C   UNL     1      37.073 -19.134 -21.346  0.00  0.00    +0.005 C 
ATOM     28  C   UNL     1      36.105 -20.634 -19.669  0.00  0.00    +0.002 C 
ATOM     29  C   UNL     1      33.595 -20.158 -20.750  0.00  0.00    +0.085 C 
ATOM     30  C   UNL     1      34.989 -21.254 -19.114  0.00  0.00    -0.004 C 
ATOM     31  C   UNL     1      33.732 -21.016 -19.656  0.00  0.00    -0.019 C 
ENDBRANCH  21  23
ENDBRANCH  20  21
ENDBRANCH   4  20
TORSDOF 6
ENDMDL
MODEL 7
REMARK VINA RESULT:     -11.9      1.222      2.147
REMARK  Name = 44141871
REMARK  6 active torsions:
REMARK  status: ('A' for Active; 'I' for Inactive)
REMARK    1  A    between atoms: C_1  and  C_10
REMARK    2  A    between atoms: C_4  and  O_20
REMARK    3  A    between atoms: C_9  and  C_13
REMARK    4  A    between atoms: C_13  and  C_15
REMARK    5  A    between atoms: O_20  and  C_21
REMARK    6  A    between atoms: C_21  and  C_23
REMARK                            x       y       z     vdW  Elec       q    Type
REMARK                         _______ _______ _______ _____ _____    ______ ____
ROOT
ATOM      1  C   UNL     1      35.169 -18.718 -21.930  0.00  0.00    +0.015 C 
ATOM      2  C   UNL     1      33.990 -19.340 -21.519  0.00  0.00    +0.004 C 
ATOM      3  C   UNL     1      36.378 -19.038 -21.311  0.00  0.00    +0.004 C 
ATOM      4  C   UNL     1      35.229 -20.601 -19.872  0.00  0.00    +0.139 C 
ATOM      5  C   UNL     1      34.020 -20.281 -20.491  0.00  0.00    +0.037 C 
ATOM      6  C   UNL     1      36.408 -19.979 -20.283  0.00  0.00    +0.037 C 
ENDROOT
BRANCH   1  10
ATOM      7  N   UNL     1      35.053 -18.097 -24.309  0.00  0.00    -0.236 N 
ATOM      8  N   UNL     1      35.038 -17.049 -25.151  0.00  0.00    -0.180 NA
ATOM      9  C   UNL     1      35.183 -16.372 -22.974  0.00  0.00    +0.018 C 
ATOM     10  C   UNL     1      35.138 -17.745 -22.994  0.00  0.00    +0.063 C 
ATOM     11  C   UNL     1      35.117 -15.998 -24.330  0.00  0.00    +0.115 C 
ATOM     12  H   UNL     1      35.006 -19.032 -24.614  0.00  0.00    +0.174 HD
BRANCH   9  13
ATOM     13  C   UNL     1      35.278 -15.481 -21.805  0.00  0.00    +0.056 C 
BRANCH  13  15
ATOM     14  N   UNL     1      32.596 -12.098 -21.909  0.00  0.00    -0.242 NA
ATOM     15  C   UNL     1      34.332 -14.288 -21.842  0.00  0.00    -0.015 C 
ATOM     16  C   UNL     1      33.436 -14.076 -20.799  0.00  0.00    +0.017 C 
ATOM     17  C   UNL     1      34.361 -13.406 -22.916  0.00  0.00    +0.017 C 
ATOM     18  C   UNL     1      32.597 -12.976 -20.880  0.00  0.00    +0.099 C 
ATOM     19  C   UNL     1      33.480 -12.337 -22.902  0.00  0.00    +0.099 C 
ENDBRANCH  13  15
ENDBRANCH   9  13
ENDBRANCH   1  10
BRANCH   4  20
ATOM     20  O   UNL     1      35.259 -21.528 -18.864  0.00  0.00    -0.468 OA
BRANCH  20  21
ATOM     21  C   UNL     1      34.094 -22.324 -18.691  0.00  0.00    +0.264 C 
BRANCH  21  23
ATOM     22  N   UNL     1      35.150 -22.809 -16.567  0.00  0.00    -0.406 NA
ATOM     23  C   UNL     1      33.992 -22.750 -17.264  0.00  0.00    +0.152 C 
ATOM     24  C   UNL     1      33.881 -23.523 -14.648  0.00  0.00    +0.026 C 
ATOM     25  C   UNL     1      35.098 -23.189 -15.277  0.00  0.00    +0.113 C 
ATOM     26  C   UNL     1      32.755 -23.058 -16.736  0.00  0.00    +0.031 C 
ATOM     27  C   UNL     1      32.705 -23.449 -15.406  0.00  0.00    +0.005 C 
ATOM     28  C   UNL     1      33.864 -23.915 -13.298  0.00  0.00    +0.002 C 
ATOM     29  C   UNL     1      36.267 -23.262 -14.523  0.00  0.00    +0.085 C 
ATOM     30  C   UNL     1      35.047 -23.981 -12.568  0.00  0.00    -0.004 C 
ATOM     31  C   UNL     1      36.250 -23.653 -13.181  0.00  0.00    -0.019 C 
ENDBRANCH  21  23
ENDBRANCH  20  21
ENDBRANCH   4  20
TORSDOF 6
ENDMDL
MODEL 8
REMARK VINA RESULT:     -11.9      3.348     10.949
REMARK  Name = 44141871
REMARK  6 active torsions:
REMARK  status: ('A' for Active; 'I' for Inactive)
REMARK    1  A    between atoms: C_1  and  C_10
REMARK    2  A    between atoms: C_4  and  O_20
REMARK    3  A    between atoms: C_9  and  C_13
REMARK    4  A    between atoms: C_13  and  C_15
REMARK    5  A    between atoms: O_20  and  C_21
REMARK    6  A    between atoms: C_21  and  C_23
REMARK                            x       y       z     vdW  Elec       q    Type
REMARK                         _______ _______ _______ _____ _____    ______ ____
ROOT
ATOM      1  C   UNL     1      35.446 -16.381 -22.765  0.00  0.00    +0.015 C 
ATOM      2  C   UNL     1      35.115 -15.289 -21.962  0.00  0.00    +0.004 C 
ATOM      3  C   UNL     1      35.033 -16.418 -24.096  0.00  0.00    +0.004 C 
ATOM      4  C   UNL     1      33.957 -14.272 -23.823  0.00  0.00    +0.139 C 
ATOM      5  C   UNL     1      34.371 -14.235 -22.491  0.00  0.00    +0.037 C 
ATOM      6  C   UNL     1      34.289 -15.363 -24.626  0.00  0.00    +0.037 C 
ENDROOT
BRANCH   1  10
ATOM      7  N   UNL     1      37.579 -17.488 -22.233  0.00  0.00    -0.236 N 
ATOM      8  N   UNL     1      38.115 -18.589 -21.677  0.00  0.00    -0.180 NA
ATOM      9  C   UNL     1      35.832 -18.641 -21.610  0.00  0.00    +0.018 C 
ATOM     10  C   UNL     1      36.216 -17.471 -22.217  0.00  0.00    +0.063 C 
ATOM     11  C   UNL     1      37.043 -19.290 -21.298  0.00  0.00    +0.115 C 
ATOM     12  H   UNL     1      38.122 -16.761 -22.615  0.00  0.00    +0.174 HD
BRANCH   9  13
ATOM     13  C   UNL     1      34.466 -19.122 -21.340  0.00  0.00    +0.056 C 
BRANCH  13  15
ATOM     14  N   UNL     1      34.218 -22.229 -18.350  0.00  0.00    -0.242 NA
ATOM     15  C   UNL     1      34.379 -20.218 -20.285  0.00  0.00    -0.015 C 
ATOM     16  C   UNL     1      33.139 -20.623 -19.801  0.00  0.00    +0.017 C 
ATOM     17  C   UNL     1      35.537 -20.817 -19.803  0.00  0.00    +0.017 C 
ATOM     18  C   UNL     1      33.114 -21.623 -18.842  0.00  0.00    +0.099 C 
ATOM     19  C   UNL     1      35.404 -21.809 -18.845  0.00  0.00    +0.099 C 
ENDBRANCH  13  15
ENDBRANCH   9  13
ENDBRANCH   1  10
BRANCH   4  20
ATOM     20  O   UNL     1      33.229 -13.235 -24.344  0.00  0.00    -0.468 OA
BRANCH  20  21
ATOM     21  C   UNL     1      33.808 -12.530 -25.434  0.00  0.00    +0.264 C 
BRANCH  21  23
ATOM     22  N   UNL     1      33.483 -10.583 -24.033  0.00  0.00    -0.406 NA
ATOM     23  C   UNL     1      34.249 -11.180 -24.975  0.00  0.00    +0.152 C 
ATOM     24  C   UNL     1      34.995  -8.709 -24.087  0.00  0.00    +0.026 C 
ATOM     25  C   UNL     1      33.849  -9.365 -23.593  0.00  0.00    +0.113 C 
ATOM     26  C   UNL     1      35.385 -10.618 -25.518  0.00  0.00    +0.031 C 
ATOM     27  C   UNL     1      35.760  -9.362 -25.063  0.00  0.00    +0.005 C 
ATOM     28  C   UNL     1      35.348  -7.437 -23.605  0.00  0.00    +0.002 C 
ATOM     29  C   UNL     1      33.089  -8.715 -22.624  0.00  0.00    +0.085 C 
ATOM     30  C   UNL     1      34.570  -6.810 -22.636  0.00  0.00    -0.004 C 
ATOM     31  C   UNL     1      33.439  -7.450 -22.144  0.00  0.00    -0.019 C 
ENDBRANCH  21  23
ENDBRANCH  20  21
ENDBRANCH   4  20
TORSDOF 6
ENDMDL
MODEL 9
REMARK VINA RESULT:     -11.9      4.298     11.137
REMARK  Name = 44141871
REMARK  6 active torsions:
REMARK  status: ('A' for Active; 'I' for Inactive)
REMARK    1  A    between atoms: C_1  and  C_10
REMARK    2  A    between atoms: C_4  and  O_20
REMARK    3  A    between atoms: C_9  and  C_13
REMARK    4  A    between atoms: C_13  and  C_15
REMARK    5  A    between atoms: O_20  and  C_21
REMARK    6  A    between atoms: C_21  and  C_23
REMARK                            x       y       z     vdW  Elec       q    Type
REMARK                         _______ _______ _______ _____ _____    ______ ____
ROOT
ATOM      1  C   UNL     1      35.371 -23.801 -13.717  0.00  0.00    +0.015 C 
ATOM      2  C   UNL     1      34.001 -24.049 -13.802  0.00  0.00    +0.004 C 
ATOM      3  C   UNL     1      36.026 -23.146 -14.760  0.00  0.00    +0.004 C 
ATOM      4  C   UNL     1      33.942 -22.988 -15.972  0.00  0.00    +0.139 C 
ATOM      5  C   UNL     1      33.287 -23.642 -14.929  0.00  0.00    +0.037 C 
ATOM      6  C   UNL     1      35.312 -22.739 -15.887  0.00  0.00    +0.037 C 
ENDROOT
BRANCH   1  10
ATOM      7  N   UNL     1      36.137 -23.494 -11.398  0.00  0.00    -0.236 N 
ATOM      8  N   UNL     1      36.881 -24.049 -10.425  0.00  0.00    -0.180 NA
ATOM      9  C   UNL     1      36.888 -25.328 -12.318  0.00  0.00    +0.018 C 
ATOM     10  C   UNL     1      36.109 -24.221 -12.551  0.00  0.00    +0.063 C 
ATOM     11  C   UNL     1      37.337 -25.169 -10.992  0.00  0.00    +0.115 C 
ATOM     12  H   UNL     1      35.657 -22.642 -11.288  0.00  0.00    +0.174 HD
BRANCH   9  13
ATOM     13  C   UNL     1      37.194 -26.437 -13.237  0.00  0.00    +0.056 C 
BRANCH  13  15
ATOM     14  N   UNL     1      40.819 -25.921 -15.527  0.00  0.00    -0.242 NA
ATOM     15  C   UNL     1      38.473 -26.255 -14.045  0.00  0.00    -0.015 C 
ATOM     16  C   UNL     1      39.399 -25.285 -13.676  0.00  0.00    +0.017 C 
ATOM     17  C   UNL     1      38.719 -27.057 -15.153  0.00  0.00    +0.017 C 
ATOM     18  C   UNL     1      40.545 -25.159 -14.443  0.00  0.00    +0.099 C 
ATOM     19  C   UNL     1      39.896 -26.852 -15.854  0.00  0.00    +0.099 C 
ENDBRANCH  13  15
ENDBRANCH   9  13
ENDBRANCH   1  10
BRANCH   4  20
ATOM     20  O   UNL     1      33.240 -22.585 -17.077  0.00  0.00    -0.468 OA
BRANCH  20  21
ATOM     21  C   UNL     1      33.730 -23.018 -18.340  0.00  0.00    +0.264 C 
BRANCH  21  23
ATOM     22  N   UNL     1      35.337 -21.486 -19.302  0.00  0.00    -0.406 NA
ATOM     23  C   UNL     1      34.034 -21.829 -19.188  0.00  0.00    +0.152 C 
ATOM     24  C   UNL     1      34.664 -19.663 -20.725  0.00  0.00    +0.026 C 
ATOM     25  C   UNL     1      35.651 -20.418 -20.059  0.00  0.00    +0.113 C 
ATOM     26  C   UNL     1      32.999 -21.152 -19.801  0.00  0.00    +0.031 C 
ATOM     27  C   UNL     1      33.325 -20.052 -20.581  0.00  0.00    +0.005 C 
ATOM     28  C   UNL     1      35.027 -18.554 -21.508  0.00  0.00    +0.002 C 
ATOM     29  C   UNL     1      36.981 -20.030 -20.203  0.00  0.00    +0.085 C 
ATOM     30  C   UNL     1      36.365 -18.188 -21.634  0.00  0.00    -0.004 C 
ATOM     31  C   UNL     1      37.342 -18.928 -20.981  0.00  0.00    -0.019 C 
ENDBRANCH  21  23
ENDBRANCH  20  21
ENDBRANCH   4  20
TORSDOF 6
ENDMDL
