MODEL 1
REMARK VINA RESULT:     -12.6      0.000      0.000
REMARK  Name = 25025505
REMARK  6 active torsions:
REMARK  status: ('A' for Active; 'I' for Inactive)
REMARK    1  A    between atoms: C_3  and  C_9
REMARK    2  A    between atoms: C_4  and  C_20
REMARK    3  A    between atoms: C_17  and  C_18
REMARK    4  A    between atoms: C_20  and  O_21
REMARK    5  A    between atoms: O_21  and  C_22
REMARK    6  A    between atoms: C_25  and  N_28
REMARK                            x       y       z     vdW  Elec       q    Type
REMARK                         _______ _______ _______ _____ _____    ______ ____
ROOT
ATOM      1  S   UNL     1      36.520 -23.370 -15.008  0.00  0.00    -0.079 S 
ATOM      2  N   UNL     1      33.967 -23.410 -15.405  0.00  0.00    -0.404 NA
ATOM      3  C   UNL     1      35.121 -23.152 -15.978  0.00  0.00    +0.134 C 
ATOM      4  C   UNL     1      34.194 -23.811 -14.103  0.00  0.00    +0.142 C 
ATOM      5  C   UNL     1      35.514 -23.852 -13.706  0.00  0.00    +0.122 C 
ENDROOT
BRANCH   3   9
ATOM      6  N   UNL     1      35.289 -20.742 -19.558  0.00  0.00    -0.253 N 
ATOM      7  N   UNL     1      36.405 -19.029 -20.690  0.00  0.00    -0.203 NA
ATOM      8  N   UNL     1      34.307 -19.894 -21.501  0.00  0.00    -0.181 NA
ATOM      9  C   UNL     1      35.282 -22.684 -17.412  0.00  0.00    +0.062 C 
ATOM     10  C   UNL     1      33.978 -22.107 -17.982  0.00  0.00    +0.030 C 
ATOM     11  C   UNL     1      36.408 -21.649 -17.559  0.00  0.00    +0.030 C 
ATOM     12  C   UNL     1      34.152 -21.661 -19.434  0.00  0.00    +0.102 C 
ATOM     13  C   UNL     1      36.571 -21.212 -19.014  0.00  0.00    +0.102 C 
ATOM     14  C   UNL     1      35.337 -19.847 -20.634  0.00  0.00    +0.090 C 
ATOM     15  C   UNL     1      36.417 -18.179 -21.737  0.00  0.00    +0.161 C 
ATOM     16  C   UNL     1      34.384 -19.018 -22.524  0.00  0.00    +0.104 C 
ATOM     17  C   UNL     1      35.425 -18.127 -22.694  0.00  0.00    +0.001 C 
BRANCH  17  18
ATOM     18  C   UNL     1      35.475 -17.178 -23.832  0.00  0.00    +0.026 C 
ATOM     19  C   UNL     1      35.292 -15.724 -23.395  0.00  0.00    +0.005 C 
ENDBRANCH  17  18
ENDBRANCH   3   9
BRANCH   4  20
ATOM     20  C   UNL     1      33.030 -24.155 -13.262  0.00  0.00    +0.260 C 
BRANCH  20  21
ATOM     21  O   UNL     1      32.120 -24.971 -13.999  0.00  0.00    -0.468 OA
BRANCH  21  22
ATOM     22  C   UNL     1      30.999 -24.355 -14.483  0.00  0.00    +0.139 C 
ATOM     23  C   UNL     1      30.748 -23.018 -14.172  0.00  0.00    +0.038 C 
ATOM     24  C   UNL     1      30.106 -25.062 -15.287  0.00  0.00    +0.038 C 
ATOM     25  C   UNL     1      28.712 -23.099 -15.469  0.00  0.00    +0.078 C 
ATOM     26  C   UNL     1      29.604 -22.390 -14.665  0.00  0.00    +0.020 C 
ATOM     27  C   UNL     1      28.963 -24.435 -15.781  0.00  0.00    +0.020 C 
BRANCH  25  28
ATOM     28  N   UNL     1      27.578 -22.476 -15.958  0.00  0.00    -0.149 N 
ATOM     29  N   UNL     1      26.521 -22.197 -15.183  0.00  0.00    -0.048 NA
ATOM     30  N   UNL     1      26.143 -21.518 -17.272  0.00  0.00    -0.107 NA
ATOM     31  N   UNL     1      25.647 -21.612 -15.991  0.00  0.00    -0.024 NA
ATOM     32  C   UNL     1      27.339 -22.058 -17.229  0.00  0.00    +0.215 C 
ENDBRANCH  25  28
ENDBRANCH  21  22
ENDBRANCH  20  21
ENDBRANCH   4  20
TORSDOF 6
ENDMDL
MODEL 2
REMARK VINA RESULT:     -12.1      6.417     10.443
REMARK  Name = 25025505
REMARK  6 active torsions:
REMARK  status: ('A' for Active; 'I' for Inactive)
REMARK    1  A    between atoms: C_3  and  C_9
REMARK    2  A    between atoms: C_4  and  C_20
REMARK    3  A    between atoms: C_17  and  C_18
REMARK    4  A    between atoms: C_20  and  O_21
REMARK    5  A    between atoms: O_21  and  C_22
REMARK    6  A    between atoms: C_25  and  N_28
REMARK                            x       y       z     vdW  Elec       q    Type
REMARK                         _______ _______ _______ _____ _____    ______ ____
ROOT
ATOM      1  S   UNL     1      34.215 -15.694 -24.866  0.00  0.00    -0.079 S 
ATOM      2  N   UNL     1      34.786 -15.234 -22.388  0.00  0.00    -0.404 NA
ATOM      3  C   UNL     1      34.196 -14.728 -23.447  0.00  0.00    +0.134 C 
ATOM      4  C   UNL     1      35.294 -16.477 -22.710  0.00  0.00    +0.142 C 
ATOM      5  C   UNL     1      35.083 -16.897 -24.007  0.00  0.00    +0.122 C 
ENDROOT
BRANCH   3   9
ATOM      6  N   UNL     1      33.212 -10.565 -22.852  0.00  0.00    -0.253 N 
ATOM      7  N   UNL     1      33.821  -8.350 -23.280  0.00  0.00    -0.203 NA
ATOM      8  N   UNL     1      32.065  -8.876 -21.716  0.00  0.00    -0.181 NA
ATOM      9  C   UNL     1      33.516 -13.372 -23.486  0.00  0.00    +0.062 C 
ATOM     10  C   UNL     1      33.081 -12.904 -22.089  0.00  0.00    +0.030 C 
ATOM     11  C   UNL     1      34.403 -12.299 -24.135  0.00  0.00    +0.030 C 
ATOM     12  C   UNL     1      32.379 -11.547 -22.149  0.00  0.00    +0.102 C 
ATOM     13  C   UNL     1      33.688 -10.949 -24.189  0.00  0.00    +0.102 C 
ATOM     14  C   UNL     1      33.023  -9.200 -22.605  0.00  0.00    +0.090 C 
ATOM     15  C   UNL     1      33.614  -7.043 -23.016  0.00  0.00    +0.161 C 
ATOM     16  C   UNL     1      31.912  -7.553 -21.500  0.00  0.00    +0.104 C 
ATOM     17  C   UNL     1      32.665  -6.582 -22.127  0.00  0.00    +0.001 C 
BRANCH  17  18
ATOM     18  C   UNL     1      32.467  -5.136 -21.865  0.00  0.00    +0.026 C 
ATOM     19  C   UNL     1      31.045  -4.809 -21.405  0.00  0.00    +0.005 C 
ENDBRANCH  17  18
ENDBRANCH   3   9
BRANCH   4  20
ATOM     20  C   UNL     1      36.006 -17.237 -21.663  0.00  0.00    +0.260 C 
BRANCH  20  21
ATOM     21  O   UNL     1      36.042 -18.622 -22.006  0.00  0.00    -0.468 OA
BRANCH  21  22
ATOM     22  C   UNL     1      35.644 -19.503 -21.039  0.00  0.00    +0.139 C 
ATOM     23  C   UNL     1      34.287 -19.767 -20.850  0.00  0.00    +0.038 C 
ATOM     24  C   UNL     1      36.594 -20.139 -20.240  0.00  0.00    +0.038 C 
ATOM     25  C   UNL     1      34.832 -21.299 -19.065  0.00  0.00    +0.078 C 
ATOM     26  C   UNL     1      33.881 -20.664 -19.863  0.00  0.00    +0.020 C 
ATOM     27  C   UNL     1      36.189 -21.037 -19.253  0.00  0.00    +0.020 C 
BRANCH  25  28
ATOM     28  N   UNL     1      34.429 -22.190 -18.086  0.00  0.00    -0.149 N 
ATOM     29  N   UNL     1      35.290 -22.739 -17.218  0.00  0.00    -0.048 NA
ATOM     30  N   UNL     1      33.223 -23.475 -16.823  0.00  0.00    -0.107 NA
ATOM     31  N   UNL     1      34.547 -23.525 -16.448  0.00  0.00    -0.024 NA
ATOM     32  C   UNL     1      33.173 -22.643 -17.837  0.00  0.00    +0.215 C 
ENDBRANCH  25  28
ENDBRANCH  21  22
ENDBRANCH  20  21
ENDBRANCH   4  20
TORSDOF 6
ENDMDL
MODEL 3
REMARK VINA RESULT:     -11.7      4.700     10.478
REMARK  Name = 25025505
REMARK  6 active torsions:
REMARK  status: ('A' for Active; 'I' for Inactive)
REMARK    1  A    between atoms: C_3  and  C_9
REMARK    2  A    between atoms: C_4  and  C_20
REMARK    3  A    between atoms: C_17  and  C_18
REMARK    4  A    between atoms: C_20  and  O_21
REMARK    5  A    between atoms: O_21  and  C_22
REMARK    6  A    between atoms: C_25  and  N_28
REMARK                            x       y       z     vdW  Elec       q    Type
REMARK                         _______ _______ _______ _____ _____    ______ ____
ROOT
ATOM      1  S   UNL     1      37.198 -18.932 -20.976  0.00  0.00    -0.079 S 
ATOM      2  N   UNL     1      34.905 -19.155 -22.148  0.00  0.00    -0.404 NA
ATOM      3  C   UNL     1      35.663 -19.666 -21.204  0.00  0.00    +0.134 C 
ATOM      4  C   UNL     1      35.578 -18.105 -22.741  0.00  0.00    +0.142 C 
ATOM      5  C   UNL     1      36.834 -17.834 -22.241  0.00  0.00    +0.122 C 
ENDROOT
BRANCH   3   9
ATOM      6  N   UNL     1      34.338 -22.108 -17.897  0.00  0.00    -0.253 N 
ATOM      7  N   UNL     1      32.546 -22.691 -16.516  0.00  0.00    -0.203 NA
ATOM      8  N   UNL     1      34.784 -23.441 -16.031  0.00  0.00    -0.181 NA
ATOM      9  C   UNL     1      35.268 -20.839 -20.326  0.00  0.00    +0.062 C 
ATOM     10  C   UNL     1      36.165 -20.960 -19.086  0.00  0.00    +0.030 C 
ATOM     11  C   UNL     1      33.797 -20.764 -19.891  0.00  0.00    +0.030 C 
ATOM     12  C   UNL     1      35.767 -22.159 -18.224  0.00  0.00    +0.102 C 
ATOM     13  C   UNL     1      33.413 -21.969 -19.031  0.00  0.00    +0.102 C 
ATOM     14  C   UNL     1      33.867 -22.779 -16.762  0.00  0.00    +0.090 C 
ATOM     15  C   UNL     1      32.127 -23.348 -15.414  0.00  0.00    +0.161 C 
ATOM     16  C   UNL     1      34.296 -24.075 -14.944  0.00  0.00    +0.104 C 
ATOM     17  C   UNL     1      32.965 -24.062 -14.582  0.00  0.00    +0.001 C 
BRANCH  17  18
ATOM     18  C   UNL     1      32.466 -24.771 -13.380  0.00  0.00    +0.026 C 
ATOM     19  C   UNL     1      30.955 -24.620 -13.191  0.00  0.00    +0.005 C 
ENDBRANCH  17  18
ENDBRANCH   3   9
BRANCH   4  20
ATOM     20  C   UNL     1      34.911 -17.375 -23.838  0.00  0.00    +0.260 C 
BRANCH  20  21
ATOM     21  O   UNL     1      35.480 -16.074 -23.975  0.00  0.00    -0.468 OA
BRANCH  21  22
ATOM     22  C   UNL     1      34.755 -15.032 -23.466  0.00  0.00    +0.139 C 
ATOM     23  C   UNL     1      34.824 -14.731 -22.105  0.00  0.00    +0.038 C 
ATOM     24  C   UNL     1      33.944 -14.270 -24.307  0.00  0.00    +0.038 C 
ATOM     25  C   UNL     1      33.274 -12.908 -22.428  0.00  0.00    +0.078 C 
ATOM     26  C   UNL     1      34.084 -13.669 -21.586  0.00  0.00    +0.020 C 
ATOM     27  C   UNL     1      33.204 -13.207 -23.789  0.00  0.00    +0.020 C 
BRANCH  25  28
ATOM     28  N   UNL     1      32.539 -11.855 -21.913  0.00  0.00    -0.149 N 
ATOM     29  N   UNL     1      32.542 -10.637 -22.474  0.00  0.00    -0.048 NA
ATOM     30  N   UNL     1      31.223 -10.655 -20.676  0.00  0.00    -0.107 NA
ATOM     31  N   UNL     1      31.735  -9.907 -21.713  0.00  0.00    -0.024 NA
ATOM     32  C   UNL     1      31.733 -11.856 -20.819  0.00  0.00    +0.215 C 
ENDBRANCH  25  28
ENDBRANCH  21  22
ENDBRANCH  20  21
ENDBRANCH   4  20
TORSDOF 6
ENDMDL
MODEL 4
REMARK VINA RESULT:     -11.6      6.496     10.630
REMARK  Name = 25025505
REMARK  6 active torsions:
REMARK  status: ('A' for Active; 'I' for Inactive)
REMARK    1  A    between atoms: C_3  and  C_9
REMARK    2  A    between atoms: C_4  and  C_20
REMARK    3  A    between atoms: C_17  and  C_18
REMARK    4  A    between atoms: C_20  and  O_21
REMARK    5  A    between atoms: O_21  and  C_22
REMARK    6  A    between atoms: C_25  and  N_28
REMARK                            x       y       z     vdW  Elec       q    Type
REMARK                         _______ _______ _______ _____ _____    ______ ____
ROOT
ATOM      1  S   UNL     1      33.847 -15.120 -25.045  0.00  0.00    -0.079 S 
ATOM      2  N   UNL     1      34.921 -15.583 -22.740  0.00  0.00    -0.404 NA
ATOM      3  C   UNL     1      34.423 -14.636 -23.503  0.00  0.00    +0.134 C 
ATOM      4  C   UNL     1      34.847 -16.786 -23.416  0.00  0.00    +0.142 C 
ATOM      5  C   UNL     1      34.295 -16.734 -24.679  0.00  0.00    +0.122 C 
ENDROOT
BRANCH   3   9
ATOM      6  N   UNL     1      33.227 -10.499 -23.165  0.00  0.00    -0.253 N 
ATOM      7  N   UNL     1      31.568  -9.015 -22.458  0.00  0.00    -0.203 NA
ATOM      8  N   UNL     1      33.442  -8.253 -23.767  0.00  0.00    -0.181 NA
ATOM      9  C   UNL     1      34.330 -13.175 -23.106  0.00  0.00    +0.062 C 
ATOM     10  C   UNL     1      34.555 -12.236 -24.301  0.00  0.00    +0.030 C 
ATOM     11  C   UNL     1      32.989 -12.841 -22.437  0.00  0.00    +0.030 C 
ATOM     12  C   UNL     1      34.480 -10.768 -23.879  0.00  0.00    +0.102 C 
ATOM     13  C   UNL     1      32.927 -11.372 -22.020  0.00  0.00    +0.102 C 
ATOM     14  C   UNL     1      32.722  -9.194 -23.127  0.00  0.00    +0.090 C 
ATOM     15  C   UNL     1      31.110  -7.746 -22.444  0.00  0.00    +0.161 C 
ATOM     16  C   UNL     1      32.926  -7.007 -23.712  0.00  0.00    +0.104 C 
ATOM     17  C   UNL     1      31.752  -6.691 -23.060  0.00  0.00    +0.001 C 
BRANCH  17  18
ATOM     18  C   UNL     1      31.216  -5.310 -23.021  0.00  0.00    +0.026 C 
ATOM     19  C   UNL     1      32.281  -4.273 -22.660  0.00  0.00    +0.005 C 
ENDBRANCH  17  18
ENDBRANCH   3   9
BRANCH   4  20
ATOM     20  C   UNL     1      35.355 -18.000 -22.746  0.00  0.00    +0.260 C 
BRANCH  20  21
ATOM     21  O   UNL     1      34.274 -18.886 -22.460  0.00  0.00    -0.468 OA
BRANCH  21  22
ATOM     22  C   UNL     1      34.410 -19.682 -21.356  0.00  0.00    +0.139 C 
ATOM     23  C   UNL     1      35.681 -20.032 -20.900  0.00  0.00    +0.038 C 
ATOM     24  C   UNL     1      33.278 -20.144 -20.685  0.00  0.00    +0.038 C 
ATOM     25  C   UNL     1      34.688 -21.306 -19.105  0.00  0.00    +0.078 C 
ATOM     26  C   UNL     1      35.820 -20.844 -19.775  0.00  0.00    +0.020 C 
ATOM     27  C   UNL     1      33.416 -20.955 -19.559  0.00  0.00    +0.020 C 
BRANCH  25  28
ATOM     28  N   UNL     1      34.826 -22.111 -17.988  0.00  0.00    -0.149 N 
ATOM     29  N   UNL     1      35.984 -22.226 -17.325  0.00  0.00    -0.048 NA
ATOM     30  N   UNL     1      34.418 -23.488 -16.364  0.00  0.00    -0.107 NA
ATOM     31  N   UNL     1      35.730 -23.069 -16.332  0.00  0.00    -0.024 NA
ATOM     32  C   UNL     1      33.877 -22.883 -17.395  0.00  0.00    +0.215 C 
ENDBRANCH  25  28
ENDBRANCH  21  22
ENDBRANCH  20  21
ENDBRANCH   4  20
TORSDOF 6
ENDMDL
MODEL 5
REMARK VINA RESULT:     -11.5      5.026     11.465
REMARK  Name = 25025505
REMARK  6 active torsions:
REMARK  status: ('A' for Active; 'I' for Inactive)
REMARK    1  A    between atoms: C_3  and  C_9
REMARK    2  A    between atoms: C_4  and  C_20
REMARK    3  A    between atoms: C_17  and  C_18
REMARK    4  A    between atoms: C_20  and  O_21
REMARK    5  A    between atoms: O_21  and  C_22
REMARK    6  A    between atoms: C_25  and  N_28
REMARK                            x       y       z     vdW  Elec       q    Type
REMARK                         _______ _______ _______ _____ _____    ______ ____
ROOT
ATOM      1  S   UNL     1      36.590 -18.275 -21.333  0.00  0.00    -0.079 S 
ATOM      2  N   UNL     1      34.692 -18.784 -23.013  0.00  0.00    -0.404 NA
ATOM      3  C   UNL     1      35.239 -19.179 -21.885  0.00  0.00    +0.134 C 
ATOM      4  C   UNL     1      35.385 -17.686 -23.484  0.00  0.00    +0.142 C 
ATOM      5  C   UNL     1      36.445 -17.264 -22.709  0.00  0.00    +0.122 C 
ENDROOT
BRANCH   3   9
ATOM      6  N   UNL     1      33.794 -21.684 -18.677  0.00  0.00    -0.253 N 
ATOM      7  N   UNL     1      32.008 -22.166 -17.250  0.00  0.00    -0.203 NA
ATOM      8  N   UNL     1      34.170 -23.179 -16.922  0.00  0.00    -0.181 NA
ATOM      9  C   UNL     1      34.755 -20.360 -21.064  0.00  0.00    +0.062 C 
ATOM     10  C   UNL     1      35.685 -20.658 -19.878  0.00  0.00    +0.030 C 
ATOM     11  C   UNL     1      33.320 -20.160 -20.554  0.00  0.00    +0.030 C 
ATOM     12  C   UNL     1      35.195 -21.864 -19.075  0.00  0.00    +0.102 C 
ATOM     13  C   UNL     1      32.843 -21.372 -19.753  0.00  0.00    +0.102 C 
ATOM     14  C   UNL     1      33.300 -22.376 -17.564  0.00  0.00    +0.090 C 
ATOM     15  C   UNL     1      31.566 -22.847 -16.172  0.00  0.00    +0.161 C 
ATOM     16  C   UNL     1      33.661 -23.829 -15.854  0.00  0.00    +0.104 C 
ATOM     17  C   UNL     1      32.355 -23.701 -15.428  0.00  0.00    +0.001 C 
BRANCH  17  18
ATOM     18  C   UNL     1      31.832 -24.432 -14.249  0.00  0.00    +0.026 C 
ATOM     19  C   UNL     1      30.445 -25.028 -14.493  0.00  0.00    +0.005 C 
ENDBRANCH  17  18
ENDBRANCH   3   9
BRANCH   4  20
ATOM     20  C   UNL     1      34.943 -17.068 -24.750  0.00  0.00    +0.260 C 
BRANCH  20  21
ATOM     21  O   UNL     1      33.744 -16.324 -24.538  0.00  0.00    -0.468 OA
BRANCH  21  22
ATOM     22  C   UNL     1      33.877 -14.967 -24.433  0.00  0.00    +0.139 C 
ATOM     23  C   UNL     1      33.605 -14.152 -25.533  0.00  0.00    +0.038 C 
ATOM     24  C   UNL     1      34.284 -14.396 -23.228  0.00  0.00    +0.038 C 
ATOM     25  C   UNL     1      34.149 -12.198 -24.221  0.00  0.00    +0.078 C 
ATOM     26  C   UNL     1      33.741 -12.768 -25.427  0.00  0.00    +0.020 C 
ATOM     27  C   UNL     1      34.420 -13.012 -23.121  0.00  0.00    +0.020 C 
BRANCH  25  28
ATOM     28  N   UNL     1      34.283 -10.825 -24.116  0.00  0.00    -0.149 N 
ATOM     29  N   UNL     1      35.319 -10.163 -24.649  0.00  0.00    -0.048 NA
ATOM     30  N   UNL     1      33.940  -8.741 -23.625  0.00  0.00    -0.107 NA
ATOM     31  N   UNL     1      35.104  -8.889 -24.347  0.00  0.00    -0.024 NA
ATOM     32  C   UNL     1      33.449  -9.951 -23.494  0.00  0.00    +0.215 C 
ENDBRANCH  25  28
ENDBRANCH  21  22
ENDBRANCH  20  21
ENDBRANCH   4  20
TORSDOF 6
ENDMDL
MODEL 6
REMARK VINA RESULT:     -11.3      5.097      7.066
REMARK  Name = 25025505
REMARK  6 active torsions:
REMARK  status: ('A' for Active; 'I' for Inactive)
REMARK    1  A    between atoms: C_3  and  C_9
REMARK    2  A    between atoms: C_4  and  C_20
REMARK    3  A    between atoms: C_17  and  C_18
REMARK    4  A    between atoms: C_20  and  O_21
REMARK    5  A    between atoms: O_21  and  C_22
REMARK    6  A    between atoms: C_25  and  N_28
REMARK                            x       y       z     vdW  Elec       q    Type
REMARK                         _______ _______ _______ _____ _____    ______ ____
ROOT
ATOM      1  S   UNL     1      34.394 -21.237 -20.196  0.00  0.00    -0.079 S 
ATOM      2  N   UNL     1      36.633 -20.239 -19.379  0.00  0.00    -0.404 NA
ATOM      3  C   UNL     1      35.723 -20.158 -20.322  0.00  0.00    +0.134 C 
ATOM      4  C   UNL     1      36.263 -21.224 -18.484  0.00  0.00    +0.142 C 
ATOM      5  C   UNL     1      35.080 -21.876 -18.760  0.00  0.00    +0.122 C 
ENDROOT
BRANCH   3   9
ATOM      6  N   UNL     1      34.910 -16.924 -23.067  0.00  0.00    -0.253 N 
ATOM      7  N   UNL     1      34.878 -14.609 -23.378  0.00  0.00    -0.203 NA
ATOM      8  N   UNL     1      33.931 -16.096 -25.020  0.00  0.00    -0.181 NA
ATOM      9  C   UNL     1      35.778 -19.189 -21.488  0.00  0.00    +0.062 C 
ATOM     10  C   UNL     1      34.507 -19.245 -22.348  0.00  0.00    +0.030 C 
ATOM     11  C   UNL     1      36.022 -17.744 -21.027  0.00  0.00    +0.030 C 
ATOM     12  C   UNL     1      34.588 -18.279 -23.530  0.00  0.00    +0.102 C 
ATOM     13  C   UNL     1      36.102 -16.789 -22.218  0.00  0.00    +0.102 C 
ATOM     14  C   UNL     1      34.557 -15.824 -23.859  0.00  0.00    +0.090 C 
ATOM     15  C   UNL     1      34.522 -13.572 -24.165  0.00  0.00    +0.161 C 
ATOM     16  C   UNL     1      33.604 -15.014 -25.757  0.00  0.00    +0.104 C 
ATOM     17  C   UNL     1      33.876 -13.715 -25.376  0.00  0.00    +0.001 C 
BRANCH  17  18
ATOM     18  C   UNL     1      33.501 -12.551 -26.213  0.00  0.00    +0.026 C 
ATOM     19  C   UNL     1      33.931 -11.219 -25.596  0.00  0.00    +0.005 C 
ENDBRANCH  17  18
ENDBRANCH   3   9
BRANCH   4  20
ATOM     20  C   UNL     1      37.146 -21.492 -17.331  0.00  0.00    +0.260 C 
BRANCH  20  21
ATOM     21  O   UNL     1      37.073 -22.872 -16.973  0.00  0.00    -0.468 OA
BRANCH  21  22
ATOM     22  C   UNL     1      36.879 -23.150 -15.648  0.00  0.00    +0.139 C 
ATOM     23  C   UNL     1      37.919 -23.682 -14.885  0.00  0.00    +0.038 C 
ATOM     24  C   UNL     1      35.639 -22.903 -15.058  0.00  0.00    +0.038 C 
ATOM     25  C   UNL     1      36.481 -23.720 -12.946  0.00  0.00    +0.078 C 
ATOM     26  C   UNL     1      37.720 -23.966 -13.535  0.00  0.00    +0.020 C 
ATOM     27  C   UNL     1      35.439 -23.188 -13.707  0.00  0.00    +0.020 C 
BRANCH  25  28
ATOM     28  N   UNL     1      36.283 -24.002 -11.606  0.00  0.00    -0.149 N 
ATOM     29  N   UNL     1      35.253 -24.741 -11.173  0.00  0.00    -0.048 NA
ATOM     30  N   UNL     1      36.511 -24.089  -9.452  0.00  0.00    -0.107 NA
ATOM     31  N   UNL     1      35.396 -24.791  -9.855  0.00  0.00    -0.024 NA
ATOM     32  C   UNL     1      37.044 -23.610 -10.551  0.00  0.00    +0.215 C 
ENDBRANCH  25  28
ENDBRANCH  21  22
ENDBRANCH  20  21
ENDBRANCH   4  20
TORSDOF 6
ENDMDL
MODEL 7
REMARK VINA RESULT:     -11.1      5.036     10.883
REMARK  Name = 25025505
REMARK  6 active torsions:
REMARK  status: ('A' for Active; 'I' for Inactive)
REMARK    1  A    between atoms: C_3  and  C_9
REMARK    2  A    between atoms: C_4  and  C_20
REMARK    3  A    between atoms: C_17  and  C_18
REMARK    4  A    between atoms: C_20  and  O_21
REMARK    5  A    between atoms: O_21  and  C_22
REMARK    6  A    between atoms: C_25  and  N_28
REMARK                            x       y       z     vdW  Elec       q    Type
REMARK                         _______ _______ _______ _____ _____    ______ ____
ROOT
ATOM      1  S   UNL     1      33.603 -20.508 -20.238  0.00  0.00    -0.079 S 
ATOM      2  N   UNL     1      36.091 -19.885 -20.561  0.00  0.00    -0.404 NA
ATOM      3  C   UNL     1      35.274 -20.648 -19.871  0.00  0.00    +0.134 C 
ATOM      4  C   UNL     1      35.352 -19.127 -21.448  0.00  0.00    +0.142 C 
ATOM      5  C   UNL     1      33.987 -19.326 -21.420  0.00  0.00    +0.122 C 
ENDROOT
BRANCH   3   9
ATOM      6  N   UNL     1      36.157 -22.517 -16.078  0.00  0.00    -0.253 N 
ATOM      7  N   UNL     1      35.276 -23.411 -14.108  0.00  0.00    -0.203 NA
ATOM      8  N   UNL     1      37.645 -23.051 -14.358  0.00  0.00    -0.181 NA
ATOM      9  C   UNL     1      35.713 -21.624 -18.795  0.00  0.00    +0.062 C 
ATOM     10  C   UNL     1      36.858 -21.063 -17.939  0.00  0.00    +0.030 C 
ATOM     11  C   UNL     1      34.550 -22.044 -17.885  0.00  0.00    +0.030 C 
ATOM     12  C   UNL     1      37.304 -22.067 -16.875  0.00  0.00    +0.102 C 
ATOM     13  C   UNL     1      35.008 -23.047 -16.826  0.00  0.00    +0.102 C 
ATOM     14  C   UNL     1      36.369 -23.017 -14.787  0.00  0.00    +0.090 C 
ATOM     15  C   UNL     1      35.516 -23.886 -12.868  0.00  0.00    +0.161 C 
ATOM     16  C   UNL     1      37.813 -23.536 -13.111  0.00  0.00    +0.104 C 
ATOM     17  C   UNL     1      36.776 -23.972 -12.311  0.00  0.00    +0.001 C 
BRANCH  17  18
ATOM     18  C   UNL     1      37.000 -24.501 -10.944  0.00  0.00    +0.026 C 
ATOM     19  C   UNL     1      35.757 -24.392 -10.059  0.00  0.00    +0.005 C 
ENDBRANCH  17  18
ENDBRANCH   3   9
BRANCH   4  20
ATOM     20  C   UNL     1      36.067 -18.188 -22.334  0.00  0.00    +0.260 C 
BRANCH  20  21
ATOM     21  O   UNL     1      35.226 -17.806 -23.421  0.00  0.00    -0.468 OA
BRANCH  21  22
ATOM     22  C   UNL     1      34.915 -16.478 -23.519  0.00  0.00    +0.139 C 
ATOM     23  C   UNL     1      34.349 -15.976 -24.691  0.00  0.00    +0.038 C 
ATOM     24  C   UNL     1      35.165 -15.623 -22.446  0.00  0.00    +0.038 C 
ATOM     25  C   UNL     1      34.284 -13.768 -23.717  0.00  0.00    +0.078 C 
ATOM     26  C   UNL     1      34.033 -14.622 -24.790  0.00  0.00    +0.020 C 
ATOM     27  C   UNL     1      34.850 -14.268 -22.544  0.00  0.00    +0.020 C 
BRANCH  25  28
ATOM     28  N   UNL     1      33.970 -12.424 -23.815  0.00  0.00    -0.149 N 
ATOM     29  N   UNL     1      33.317 -11.767 -22.847  0.00  0.00    -0.048 NA
ATOM     30  N   UNL     1      33.778 -10.388 -24.537  0.00  0.00    -0.107 NA
ATOM     31  N   UNL     1      33.202 -10.522 -23.293  0.00  0.00    -0.024 NA
ATOM     32  C   UNL     1      34.247 -11.576 -24.840  0.00  0.00    +0.215 C 
ENDBRANCH  25  28
ENDBRANCH  21  22
ENDBRANCH  20  21
ENDBRANCH   4  20
TORSDOF 6
ENDMDL
MODEL 8
REMARK VINA RESULT:     -11.1      7.160     11.642
REMARK  Name = 25025505
REMARK  6 active torsions:
REMARK  status: ('A' for Active; 'I' for Inactive)
REMARK    1  A    between atoms: C_3  and  C_9
REMARK    2  A    between atoms: C_4  and  C_20
REMARK    3  A    between atoms: C_17  and  C_18
REMARK    4  A    between atoms: C_20  and  O_21
REMARK    5  A    between atoms: O_21  and  C_22
REMARK    6  A    between atoms: C_25  and  N_28
REMARK                            x       y       z     vdW  Elec       q    Type
REMARK                         _______ _______ _______ _____ _____    ______ ____
ROOT
ATOM      1  S   UNL     1      34.486 -13.893 -21.333  0.00  0.00    -0.079 S 
ATOM      2  N   UNL     1      34.076 -14.508 -23.810  0.00  0.00    -0.404 NA
ATOM      3  C   UNL     1      33.921 -13.556 -22.918  0.00  0.00    +0.134 C 
ATOM      4  C   UNL     1      34.687 -15.590 -23.207  0.00  0.00    +0.142 C 
ATOM      5  C   UNL     1      34.985 -15.444 -21.868  0.00  0.00    +0.122 C 
ENDROOT
BRANCH   3   9
ATOM      6  N   UNL     1      32.958  -9.345 -22.929  0.00  0.00    -0.253 N 
ATOM      7  N   UNL     1      33.675  -7.196 -23.499  0.00  0.00    -0.203 NA
ATOM      8  N   UNL     1      31.698  -7.533 -22.165  0.00  0.00    -0.181 NA
ATOM      9  C   UNL     1      33.286 -12.207 -23.204  0.00  0.00    +0.062 C 
ATOM     10  C   UNL     1      32.663 -11.584 -21.946  0.00  0.00    +0.030 C 
ATOM     11  C   UNL     1      34.283 -11.219 -23.826  0.00  0.00    +0.030 C 
ATOM     12  C   UNL     1      32.008 -10.237 -22.256  0.00  0.00    +0.102 C 
ATOM     13  C   UNL     1      33.616  -9.877 -24.131  0.00  0.00    +0.102 C 
ATOM     14  C   UNL     1      32.768  -7.959 -22.862  0.00  0.00    +0.090 C 
ATOM     15  C   UNL     1      33.462  -5.866 -23.411  0.00  0.00    +0.161 C 
ATOM     16  C   UNL     1      31.545  -6.193 -22.118  0.00  0.00    +0.104 C 
ATOM     17  C   UNL     1      32.405  -5.302 -22.728  0.00  0.00    +0.001 C 
BRANCH  17  18
ATOM     18  C   UNL     1      32.204  -3.835 -22.656  0.00  0.00    +0.026 C 
ATOM     19  C   UNL     1      32.360  -3.151 -24.015  0.00  0.00    +0.005 C 
ENDBRANCH  17  18
ENDBRANCH   3   9
BRANCH   4  20
ATOM     20  C   UNL     1      34.962 -16.787 -24.025  0.00  0.00    +0.260 C 
BRANCH  20  21
ATOM     21  O   UNL     1      36.157 -17.423 -23.573  0.00  0.00    -0.468 OA
BRANCH  21  22
ATOM     22  C   UNL     1      36.025 -18.309 -22.540  0.00  0.00    +0.139 C 
ATOM     23  C   UNL     1      34.845 -19.037 -22.390  0.00  0.00    +0.038 C 
ATOM     24  C   UNL     1      37.071 -18.486 -21.634  0.00  0.00    +0.038 C 
ATOM     25  C   UNL     1      35.756 -20.116 -20.432  0.00  0.00    +0.078 C 
ATOM     26  C   UNL     1      34.710 -19.940 -21.336  0.00  0.00    +0.020 C 
ATOM     27  C   UNL     1      36.938 -19.389 -20.580  0.00  0.00    +0.020 C 
BRANCH  25  28
ATOM     28  N   UNL     1      35.623 -21.012 -19.386  0.00  0.00    -0.149 N 
ATOM     29  N   UNL     1      36.601 -21.225 -18.494  0.00  0.00    -0.048 NA
ATOM     30  N   UNL     1      34.833 -22.497 -18.018  0.00  0.00    -0.107 NA
ATOM     31  N   UNL     1      36.113 -22.134 -17.660  0.00  0.00    -0.024 NA
ATOM     32  C   UNL     1      34.551 -21.791 -19.087  0.00  0.00    +0.215 C 
ENDBRANCH  25  28
ENDBRANCH  21  22
ENDBRANCH  20  21
ENDBRANCH   4  20
TORSDOF 6
ENDMDL
MODEL 9
REMARK VINA RESULT:     -11.0      5.398     11.012
REMARK  Name = 25025505
REMARK  6 active torsions:
REMARK  status: ('A' for Active; 'I' for Inactive)
REMARK    1  A    between atoms: C_3  and  C_9
REMARK    2  A    between atoms: C_4  and  C_20
REMARK    3  A    between atoms: C_17  and  C_18
REMARK    4  A    between atoms: C_20  and  O_21
REMARK    5  A    between atoms: O_21  and  C_22
REMARK    6  A    between atoms: C_25  and  N_28
REMARK                            x       y       z     vdW  Elec       q    Type
REMARK                         _______ _______ _______ _____ _____    ______ ____
ROOT
ATOM      1  S   UNL     1      35.097 -19.396 -23.625  0.00  0.00    -0.079 S 
ATOM      2  N   UNL     1      35.214 -17.921 -21.506  0.00  0.00    -0.404 NA
ATOM      3  C   UNL     1      35.080 -19.159 -21.926  0.00  0.00    +0.134 C 
ATOM      4  C   UNL     1      35.340 -17.089 -22.601  0.00  0.00    +0.142 C 
ATOM      5  C   UNL     1      35.300 -17.706 -23.834  0.00  0.00    +0.122 C 
ENDROOT
BRANCH   3   9
ATOM      6  N   UNL     1      34.452 -21.706 -18.494  0.00  0.00    -0.253 N 
ATOM      7  N   UNL     1      32.930 -22.443 -16.882  0.00  0.00    -0.203 NA
ATOM      8  N   UNL     1      35.271 -22.994 -16.725  0.00  0.00    -0.181 NA
ATOM      9  C   UNL     1      34.916 -20.361 -21.015  0.00  0.00    +0.062 C 
ATOM     10  C   UNL     1      35.987 -20.403 -19.914  0.00  0.00    +0.030 C 
ATOM     11  C   UNL     1      33.521 -20.416 -20.376  0.00  0.00    +0.030 C 
ATOM     12  C   UNL     1      35.820 -21.631 -19.019  0.00  0.00    +0.102 C 
ATOM     13  C   UNL     1      33.368 -21.649 -19.485  0.00  0.00    +0.102 C 
ATOM     14  C   UNL     1      34.206 -22.415 -17.312  0.00  0.00    +0.090 C 
ATOM     15  C   UNL     1      32.730 -23.133 -15.740  0.00  0.00    +0.161 C 
ATOM     16  C   UNL     1      34.998 -23.667 -15.588  0.00  0.00    +0.104 C 
ATOM     17  C   UNL     1      33.735 -23.771 -15.043  0.00  0.00    +0.001 C 
BRANCH  17  18
ATOM     18  C   UNL     1      33.474 -24.520 -13.790  0.00  0.00    +0.026 C 
ATOM     19  C   UNL     1      32.002 -24.902 -13.628  0.00  0.00    +0.005 C 
ENDBRANCH  17  18
ENDBRANCH   3   9
BRANCH   4  20
ATOM     20  C   UNL     1      35.502 -15.640 -22.367  0.00  0.00    +0.260 C 
BRANCH  20  21
ATOM     21  O   UNL     1      34.430 -15.154 -21.561  0.00  0.00    -0.468 OA
BRANCH  21  22
ATOM     22  C   UNL     1      33.966 -13.901 -21.852  0.00  0.00    +0.139 C 
ATOM     23  C   UNL     1      32.984 -13.316 -21.051  0.00  0.00    +0.038 C 
ATOM     24  C   UNL     1      34.472 -13.206 -22.950  0.00  0.00    +0.038 C 
ATOM     25  C   UNL     1      33.017 -11.345 -22.446  0.00  0.00    +0.078 C 
ATOM     26  C   UNL     1      32.510 -12.038 -21.348  0.00  0.00    +0.020 C 
ATOM     27  C   UNL     1      33.999 -11.928 -23.248  0.00  0.00    +0.020 C 
BRANCH  25  28
ATOM     28  N   UNL     1      32.547 -10.078 -22.741  0.00  0.00    -0.149 N 
ATOM     29  N   UNL     1      31.445  -9.571 -22.171  0.00  0.00    -0.048 NA
ATOM     30  N   UNL     1      32.327  -8.095 -23.590  0.00  0.00    -0.107 NA
ATOM     31  N   UNL     1      31.315  -8.358 -22.694  0.00  0.00    -0.024 NA
ATOM     32  C   UNL     1      33.078  -9.172 -23.603  0.00  0.00    +0.215 C 
ENDBRANCH  25  28
ENDBRANCH  21  22
ENDBRANCH  20  21
ENDBRANCH   4  20
TORSDOF 6
ENDMDL
