MODEL 1
REMARK VINA RESULT:     -11.2      0.000      0.000
REMARK  Name = 10267580
REMARK  2 active torsions:
REMARK  status: ('A' for Active; 'I' for Inactive)
REMARK    1  A    between atoms: N_1  and  C_21
REMARK    2  A    between atoms: C_7  and  C_14
REMARK                            x       y       z     vdW  Elec       q    Type
REMARK                         _______ _______ _______ _____ _____    ______ ____
ROOT
ATOM      1  N   UNL     1      35.918 -23.216 -16.411  0.00  0.00    -0.290 N 
ATOM      2  N   UNL     1      33.566 -23.171 -16.359  0.00  0.00    -0.327 NA
ATOM      3  N   UNL     1      32.323 -21.959 -18.028  0.00  0.00    -0.342 NA
ATOM      4  C   UNL     1      34.719 -21.980 -18.118  0.00  0.00    +0.143 C 
ATOM      5  C   UNL     1      34.696 -22.777 -16.977  0.00  0.00    +0.184 C 
ATOM      6  C   UNL     1      33.469 -21.583 -18.622  0.00  0.00    +0.133 C 
ATOM      7  C   UNL     1      32.433 -22.732 -16.930  0.00  0.00    +0.165 C 
ATOM      8  C   UNL     1      35.912 -21.580 -18.746  0.00  0.00    -0.011 C 
ATOM      9  C   UNL     1      33.453 -20.784 -19.762  0.00  0.00    +0.029 C 
ATOM     10  C   UNL     1      35.865 -20.781 -19.884  0.00  0.00    -0.004 C 
ATOM     11  C   UNL     1      34.634 -20.383 -20.392  0.00  0.00    +0.002 C 
ATOM     12  H   UNL     1      36.692 -23.238 -17.021  0.00  0.00    +0.154 HD
ENDROOT
BRANCH   7  14
ATOM     13  N   UNL     1      30.087 -22.537 -16.791  0.00  0.00    -0.398 NA
ATOM     14  C   UNL     1      31.201 -23.130 -16.300  0.00  0.00    +0.197 C 
ATOM     15  C   UNL     1      31.190 -24.057 -15.267  0.00  0.00    +0.098 C 
ATOM     16  C   UNL     1      28.914 -22.890 -16.219  0.00  0.00    +0.110 C 
ATOM     17  C   UNL     1      29.963 -24.394 -14.705  0.00  0.00    -0.016 C 
ATOM     18  C   UNL     1      28.800 -23.804 -15.184  0.00  0.00    +0.023 C 
ATOM     19  C   UNL     1      27.686 -22.237 -16.759  0.00  0.00    +0.066 C 
ENDBRANCH   7  14
BRANCH   1  21
ATOM     20  N   UNL     1      36.664 -24.426 -12.454  0.00  0.00    -0.242 NA
ATOM     21  C   UNL     1      36.163 -23.615 -15.110  0.00  0.00    +0.053 C 
ATOM     22  C   UNL     1      36.305 -22.672 -14.078  0.00  0.00    +0.035 C 
ATOM     23  C   UNL     1      36.279 -24.973 -14.777  0.00  0.00    +0.035 C 
ATOM     24  C   UNL     1      36.551 -23.122 -12.791  0.00  0.00    +0.100 C 
ATOM     25  C   UNL     1      36.525 -25.320 -13.458  0.00  0.00    +0.100 C 
ENDBRANCH   1  21
TORSDOF 2
ENDMDL
MODEL 2
REMARK VINA RESULT:     -11.1      1.528      6.786
REMARK  Name = 10267580
REMARK  2 active torsions:
REMARK  status: ('A' for Active; 'I' for Inactive)
REMARK    1  A    between atoms: N_1  and  C_21
REMARK    2  A    between atoms: C_7  and  C_14
REMARK                            x       y       z     vdW  Elec       q    Type
REMARK                         _______ _______ _______ _____ _____    ______ ____
ROOT
ATOM      1  N   UNL     1      32.771 -22.169 -18.313  0.00  0.00    -0.290 N 
ATOM      2  N   UNL     1      34.331 -23.002 -16.760  0.00  0.00    -0.327 NA
ATOM      3  N   UNL     1      33.609 -23.830 -14.616  0.00  0.00    -0.342 NA
ATOM      4  C   UNL     1      31.987 -22.990 -16.170  0.00  0.00    +0.143 C 
ATOM      5  C   UNL     1      33.041 -22.737 -17.043  0.00  0.00    +0.184 C 
ATOM      6  C   UNL     1      32.331 -23.554 -14.930  0.00  0.00    +0.133 C 
ATOM      7  C   UNL     1      34.539 -23.540 -15.547  0.00  0.00    +0.165 C 
ATOM      8  C   UNL     1      30.648 -22.704 -16.488  0.00  0.00    -0.011 C 
ATOM      9  C   UNL     1      31.303 -23.820 -14.031  0.00  0.00    +0.029 C 
ATOM     10  C   UNL     1      29.640 -22.981 -15.569  0.00  0.00    -0.004 C 
ATOM     11  C   UNL     1      29.969 -23.539 -14.339  0.00  0.00    +0.002 C 
ATOM     12  H   UNL     1      31.858 -22.298 -18.657  0.00  0.00    +0.154 HD
ENDROOT
BRANCH   7  14
ATOM     13  N   UNL     1      36.078 -24.953 -14.455  0.00  0.00    -0.398 NA
ATOM     14  C   UNL     1      35.905 -23.839 -15.204  0.00  0.00    +0.197 C 
ATOM     15  C   UNL     1      36.946 -23.022 -15.624  0.00  0.00    +0.098 C 
ATOM     16  C   UNL     1      37.350 -25.260 -14.115  0.00  0.00    +0.110 C 
ATOM     17  C   UNL     1      38.240 -23.371 -15.254  0.00  0.00    -0.016 C 
ATOM     18  C   UNL     1      38.454 -24.510 -14.486  0.00  0.00    +0.023 C 
ATOM     19  C   UNL     1      37.543 -26.489 -13.291  0.00  0.00    +0.066 C 
ENDBRANCH   7  14
BRANCH   1  21
ATOM     20  N   UNL     1      35.375 -19.993 -20.795  0.00  0.00    -0.242 NA
ATOM     21  C   UNL     1      33.628 -21.454 -19.128  0.00  0.00    +0.053 C 
ATOM     22  C   UNL     1      33.139 -20.480 -20.016  0.00  0.00    +0.035 C 
ATOM     23  C   UNL     1      35.014 -21.676 -19.098  0.00  0.00    +0.035 C 
ATOM     24  C   UNL     1      34.038 -19.791 -20.813  0.00  0.00    +0.100 C 
ATOM     25  C   UNL     1      35.829 -20.932 -19.936  0.00  0.00    +0.100 C 
ENDBRANCH   1  21
TORSDOF 2
ENDMDL
MODEL 3
REMARK VINA RESULT:     -11.0      1.500      5.067
REMARK  Name = 10267580
REMARK  2 active torsions:
REMARK  status: ('A' for Active; 'I' for Inactive)
REMARK    1  A    between atoms: N_1  and  C_21
REMARK    2  A    between atoms: C_7  and  C_14
REMARK                            x       y       z     vdW  Elec       q    Type
REMARK                         _______ _______ _______ _____ _____    ______ ____
ROOT
ATOM      1  N   UNL     1      34.792 -24.589 -14.076  0.00  0.00    -0.290 N 
ATOM      2  N   UNL     1      34.480 -23.331 -16.040  0.00  0.00    -0.327 NA
ATOM      3  N   UNL     1      32.264 -22.860 -16.859  0.00  0.00    -0.342 NA
ATOM      4  C   UNL     1      32.539 -24.145 -14.853  0.00  0.00    +0.143 C 
ATOM      5  C   UNL     1      33.913 -24.003 -15.020  0.00  0.00    +0.184 C 
ATOM      6  C   UNL     1      31.730 -23.537 -15.828  0.00  0.00    +0.133 C 
ATOM      7  C   UNL     1      33.609 -22.793 -16.909  0.00  0.00    +0.165 C 
ATOM      8  C   UNL     1      31.970 -24.852 -13.779  0.00  0.00    -0.011 C 
ATOM      9  C   UNL     1      30.349 -23.658 -15.694  0.00  0.00    +0.029 C 
ATOM     10  C   UNL     1      30.586 -24.957 -13.671  0.00  0.00    -0.004 C 
ATOM     11  C   UNL     1      29.776 -24.360 -14.629  0.00  0.00    +0.002 C 
ATOM     12  H   UNL     1      34.413 -24.762 -13.184  0.00  0.00    +0.154 HD
ENDROOT
BRANCH   7  14
ATOM     13  N   UNL     1      33.272 -21.453 -18.820  0.00  0.00    -0.398 NA
ATOM     14  C   UNL     1      34.174 -22.066 -18.016  0.00  0.00    +0.197 C 
ATOM     15  C   UNL     1      35.546 -22.017 -18.218  0.00  0.00    +0.098 C 
ATOM     16  C   UNL     1      33.772 -20.762 -19.870  0.00  0.00    +0.110 C 
ATOM     17  C   UNL     1      36.021 -21.296 -19.308  0.00  0.00    -0.016 C 
ATOM     18  C   UNL     1      35.124 -20.654 -20.154  0.00  0.00    +0.023 C 
ATOM     19  C   UNL     1      32.781 -20.085 -20.756  0.00  0.00    +0.066 C 
ENDBRANCH   7  14
BRANCH   1  21
ATOM     20  N   UNL     1      38.816 -25.687 -14.605  0.00  0.00    -0.242 NA
ATOM     21  C   UNL     1      36.115 -24.951 -14.250  0.00  0.00    +0.053 C 
ATOM     22  C   UNL     1      37.158 -24.116 -13.814  0.00  0.00    +0.035 C 
ATOM     23  C   UNL     1      36.461 -26.163 -14.868  0.00  0.00    +0.035 C 
ATOM     24  C   UNL     1      38.467 -24.523 -14.012  0.00  0.00    +0.100 C 
ATOM     25  C   UNL     1      37.802 -26.478 -15.019  0.00  0.00    +0.100 C 
ENDBRANCH   1  21
TORSDOF 2
ENDMDL
MODEL 4
REMARK VINA RESULT:     -10.5      1.768      6.564
REMARK  Name = 10267580
REMARK  2 active torsions:
REMARK  status: ('A' for Active; 'I' for Inactive)
REMARK    1  A    between atoms: N_1  and  C_21
REMARK    2  A    between atoms: C_7  and  C_14
REMARK                            x       y       z     vdW  Elec       q    Type
REMARK                         _______ _______ _______ _____ _____    ______ ____
ROOT
ATOM      1  N   UNL     1      33.037 -24.469 -13.395  0.00  0.00    -0.290 N 
ATOM      2  N   UNL     1      34.379 -23.412 -15.013  0.00  0.00    -0.327 NA
ATOM      3  N   UNL     1      36.663 -22.825 -14.522  0.00  0.00    -0.342 NA
ATOM      4  C   UNL     1      35.329 -23.902 -12.845  0.00  0.00    +0.143 C 
ATOM      5  C   UNL     1      34.285 -23.910 -13.765  0.00  0.00    +0.184 C 
ATOM      6  C   UNL     1      36.536 -23.331 -13.283  0.00  0.00    +0.133 C 
ATOM      7  C   UNL     1      35.579 -22.893 -15.319  0.00  0.00    +0.165 C 
ATOM      8  C   UNL     1      35.206 -24.427 -11.546  0.00  0.00    -0.011 C 
ATOM      9  C   UNL     1      37.603 -23.304 -12.389  0.00  0.00    +0.029 C 
ATOM     10  C   UNL     1      36.290 -24.386 -10.675  0.00  0.00    -0.004 C 
ATOM     11  C   UNL     1      37.489 -23.825 -11.097  0.00  0.00    +0.002 C 
ATOM     12  H   UNL     1      33.059 -25.124 -12.659  0.00  0.00    +0.154 HD
ENDROOT
BRANCH   7  14
ATOM     13  N   UNL     1      34.611 -22.412 -17.415  0.00  0.00    -0.398 NA
ATOM     14  C   UNL     1      35.723 -22.349 -16.645  0.00  0.00    +0.197 C 
ATOM     15  C   UNL     1      36.928 -21.807 -17.071  0.00  0.00    +0.098 C 
ATOM     16  C   UNL     1      34.716 -21.910 -18.667  0.00  0.00    +0.110 C 
ATOM     17  C   UNL     1      36.995 -21.301 -18.365  0.00  0.00    -0.016 C 
ATOM     18  C   UNL     1      35.873 -21.350 -19.183  0.00  0.00    +0.023 C 
ATOM     19  C   UNL     1      33.492 -21.978 -19.517  0.00  0.00    +0.066 C 
ENDBRANCH   7  14
BRANCH   1  21
ATOM     20  N   UNL     1      29.247 -23.682 -15.036  0.00  0.00    -0.242 NA
ATOM     21  C   UNL     1      31.791 -24.211 -13.935  0.00  0.00    +0.053 C 
ATOM     22  C   UNL     1      31.356 -22.894 -14.155  0.00  0.00    +0.035 C 
ATOM     23  C   UNL     1      30.918 -25.255 -14.280  0.00  0.00    +0.035 C 
ATOM     24  C   UNL     1      30.098 -22.687 -14.698  0.00  0.00    +0.100 C 
ATOM     25  C   UNL     1      29.680 -24.943 -14.817  0.00  0.00    +0.100 C 
ENDBRANCH   1  21
TORSDOF 2
ENDMDL
MODEL 5
REMARK VINA RESULT:     -10.4      1.613      6.208
REMARK  Name = 10267580
REMARK  2 active torsions:
REMARK  status: ('A' for Active; 'I' for Inactive)
REMARK    1  A    between atoms: N_1  and  C_21
REMARK    2  A    between atoms: C_7  and  C_14
REMARK                            x       y       z     vdW  Elec       q    Type
REMARK                         _______ _______ _______ _____ _____    ______ ____
ROOT
ATOM      1  N   UNL     1      32.642 -24.205 -15.086  0.00  0.00    -0.290 N 
ATOM      2  N   UNL     1      33.561 -22.877 -16.798  0.00  0.00    -0.327 NA
ATOM      3  N   UNL     1      35.928 -22.442 -16.879  0.00  0.00    -0.342 NA
ATOM      4  C   UNL     1      35.032 -23.800 -15.117  0.00  0.00    +0.143 C 
ATOM      5  C   UNL     1      33.777 -23.608 -15.688  0.00  0.00    +0.184 C 
ATOM      6  C   UNL     1      36.111 -23.178 -15.768  0.00  0.00    +0.133 C 
ATOM      7  C   UNL     1      34.665 -22.331 -17.333  0.00  0.00    +0.165 C 
ATOM      8  C   UNL     1      35.234 -24.568 -13.956  0.00  0.00    -0.011 C 
ATOM      9  C   UNL     1      37.382 -23.348 -15.227  0.00  0.00    +0.029 C 
ATOM     10  C   UNL     1      36.516 -24.719 -13.437  0.00  0.00    -0.004 C 
ATOM     11  C   UNL     1      37.590 -24.109 -14.073  0.00  0.00    +0.002 C 
ATOM     12  H   UNL     1      32.818 -24.991 -14.520  0.00  0.00    +0.154 HD
ENDROOT
BRANCH   7  14
ATOM     13  N   UNL     1      35.610 -21.014 -19.044  0.00  0.00    -0.398 NA
ATOM     14  C   UNL     1      34.478 -21.541 -18.522  0.00  0.00    +0.197 C 
ATOM     15  C   UNL     1      33.216 -21.354 -19.068  0.00  0.00    +0.098 C 
ATOM     16  C   UNL     1      35.467 -20.265 -20.162  0.00  0.00    +0.110 C 
ATOM     17  C   UNL     1      33.110 -20.577 -20.218  0.00  0.00    -0.016 C 
ATOM     18  C   UNL     1      34.252 -20.020 -20.780  0.00  0.00    +0.023 C 
ATOM     19  C   UNL     1      36.714 -19.683 -20.739  0.00  0.00    +0.066 C 
ENDBRANCH   7  14
BRANCH   1  21
ATOM     20  N   UNL     1      28.615 -23.038 -15.408  0.00  0.00    -0.242 NA
ATOM     21  C   UNL     1      31.318 -23.822 -15.192  0.00  0.00    +0.053 C 
ATOM     22  C   UNL     1      30.893 -22.556 -14.758  0.00  0.00    +0.035 C 
ATOM     23  C   UNL     1      30.354 -24.685 -15.737  0.00  0.00    +0.035 C 
ATOM     24  C   UNL     1      29.555 -22.219 -14.885  0.00  0.00    +0.100 C 
ATOM     25  C   UNL     1      29.040 -24.253 -15.821  0.00  0.00    +0.100 C 
ENDBRANCH   1  21
TORSDOF 2
ENDMDL
MODEL 6
REMARK VINA RESULT:     -10.3      1.187      5.733
REMARK  Name = 10267580
REMARK  2 active torsions:
REMARK  status: ('A' for Active; 'I' for Inactive)
REMARK    1  A    between atoms: N_1  and  C_21
REMARK    2  A    between atoms: C_7  and  C_14
REMARK                            x       y       z     vdW  Elec       q    Type
REMARK                         _______ _______ _______ _____ _____    ______ ____
ROOT
ATOM      1  N   UNL     1      31.646 -22.334 -16.926  0.00  0.00    -0.290 N 
ATOM      2  N   UNL     1      33.620 -23.114 -15.910  0.00  0.00    -0.327 NA
ATOM      3  N   UNL     1      35.765 -22.726 -16.934  0.00  0.00    -0.342 NA
ATOM      4  C   UNL     1      33.778 -21.914 -18.002  0.00  0.00    +0.143 C 
ATOM      5  C   UNL     1      33.057 -22.460 -16.943  0.00  0.00    +0.184 C 
ATOM      6  C   UNL     1      35.172 -22.077 -17.952  0.00  0.00    +0.133 C 
ATOM      7  C   UNL     1      34.958 -23.208 -15.969  0.00  0.00    +0.165 C 
ATOM      8  C   UNL     1      33.167 -21.236 -19.072  0.00  0.00    -0.011 C 
ATOM      9  C   UNL     1      35.926 -21.545 -18.994  0.00  0.00    +0.029 C 
ATOM     10  C   UNL     1      33.947 -20.714 -20.100  0.00  0.00    -0.004 C 
ATOM     11  C   UNL     1      35.327 -20.870 -20.060  0.00  0.00    +0.002 C 
ATOM     12  H   UNL     1      31.273 -21.591 -17.453  0.00  0.00    +0.154 HD
ENDROOT
BRANCH   7  14
ATOM     13  N   UNL     1      36.570 -24.771 -15.250  0.00  0.00    -0.398 NA
ATOM     14  C   UNL     1      35.601 -23.901 -14.882  0.00  0.00    +0.197 C 
ATOM     15  C   UNL     1      35.230 -23.670 -13.565  0.00  0.00    +0.098 C 
ATOM     16  C   UNL     1      37.192 -25.438 -14.251  0.00  0.00    +0.110 C 
ATOM     17  C   UNL     1      35.894 -24.375 -12.566  0.00  0.00    -0.016 C 
ATOM     18  C   UNL     1      36.894 -25.277 -12.908  0.00  0.00    +0.023 C 
ATOM     19  C   UNL     1      38.261 -26.398 -14.655  0.00  0.00    +0.066 C 
ENDBRANCH   7  14
BRANCH   1  21
ATOM     20  N   UNL     1      28.849 -24.741 -14.909  0.00  0.00    -0.242 NA
ATOM     21  C   UNL     1      30.726 -23.125 -16.263  0.00  0.00    +0.053 C 
ATOM     22  C   UNL     1      31.135 -24.249 -15.525  0.00  0.00    +0.035 C 
ATOM     23  C   UNL     1      29.354 -22.833 -16.304  0.00  0.00    +0.035 C 
ATOM     24  C   UNL     1      30.174 -25.010 -14.879  0.00  0.00    +0.100 C 
ATOM     25  C   UNL     1      28.472 -23.657 -15.623  0.00  0.00    +0.100 C 
ENDBRANCH   1  21
TORSDOF 2
ENDMDL
MODEL 7
REMARK VINA RESULT:      -9.7      1.720      5.646
REMARK  Name = 10267580
REMARK  2 active torsions:
REMARK  status: ('A' for Active; 'I' for Inactive)
REMARK    1  A    between atoms: N_1  and  C_21
REMARK    2  A    between atoms: C_7  and  C_14
REMARK                            x       y       z     vdW  Elec       q    Type
REMARK                         _______ _______ _______ _____ _____    ______ ____
ROOT
ATOM      1  N   UNL     1      34.380 -24.195 -12.814  0.00  0.00    -0.290 N 
ATOM      2  N   UNL     1      34.571 -23.295 -14.980  0.00  0.00    -0.327 NA
ATOM      3  N   UNL     1      32.683 -23.278 -16.475  0.00  0.00    -0.342 NA
ATOM      4  C   UNL     1      32.446 -24.204 -14.276  0.00  0.00    +0.143 C 
ATOM      5  C   UNL     1      33.784 -23.887 -14.062  0.00  0.00    +0.184 C 
ATOM      6  C   UNL     1      31.923 -23.870 -15.536  0.00  0.00    +0.133 C 
ATOM      7  C   UNL     1      33.964 -23.022 -16.146  0.00  0.00    +0.165 C 
ATOM      8  C   UNL     1      31.643 -24.824 -13.302  0.00  0.00    -0.011 C 
ATOM      9  C   UNL     1      30.587 -24.172 -15.787  0.00  0.00    +0.029 C 
ATOM     10  C   UNL     1      30.311 -25.115 -13.580  0.00  0.00    -0.004 C 
ATOM     11  C   UNL     1      29.783 -24.788 -14.824  0.00  0.00    +0.002 C 
ATOM     12  H   UNL     1      33.762 -24.290 -12.053  0.00  0.00    +0.154 HD
ENDROOT
BRANCH   7  14
ATOM     13  N   UNL     1      35.922 -21.835 -16.708  0.00  0.00    -0.398 NA
ATOM     14  C   UNL     1      34.771 -22.388 -17.157  0.00  0.00    +0.197 C 
ATOM     15  C   UNL     1      34.368 -22.362 -18.485  0.00  0.00    +0.098 C 
ATOM     16  C   UNL     1      36.701 -21.230 -17.634  0.00  0.00    +0.110 C 
ATOM     17  C   UNL     1      35.196 -21.731 -19.407  0.00  0.00    -0.016 C 
ATOM     18  C   UNL     1      36.386 -21.152 -18.981  0.00  0.00    +0.023 C 
ATOM     19  C   UNL     1      37.971 -20.620 -17.142  0.00  0.00    +0.066 C 
ENDBRANCH   7  14
BRANCH   1  21
ATOM     20  N   UNL     1      38.456 -24.759 -11.950  0.00  0.00    -0.242 NA
ATOM     21  C   UNL     1      35.720 -24.379 -12.530  0.00  0.00    +0.053 C 
ATOM     22  C   UNL     1      36.423 -25.484 -13.039  0.00  0.00    +0.035 C 
ATOM     23  C   UNL     1      36.423 -23.471 -11.723  0.00  0.00    +0.035 C 
ATOM     24  C   UNL     1      37.765 -25.625 -12.724  0.00  0.00    +0.100 C 
ATOM     25  C   UNL     1      37.766 -23.701 -11.468  0.00  0.00    +0.100 C 
ENDBRANCH   1  21
TORSDOF 2
ENDMDL
MODEL 8
REMARK VINA RESULT:      -9.6      1.673      5.148
REMARK  Name = 10267580
REMARK  2 active torsions:
REMARK  status: ('A' for Active; 'I' for Inactive)
REMARK    1  A    between atoms: N_1  and  C_21
REMARK    2  A    between atoms: C_7  and  C_14
REMARK                            x       y       z     vdW  Elec       q    Type
REMARK                         _______ _______ _______ _____ _____    ______ ____
ROOT
ATOM      1  N   UNL     1      36.099 -22.168 -15.600  0.00  0.00    -0.290 N 
ATOM      2  N   UNL     1      34.034 -23.104 -14.971  0.00  0.00    -0.327 NA
ATOM      3  N   UNL     1      33.802 -24.276 -12.879  0.00  0.00    -0.342 NA
ATOM      4  C   UNL     1      35.924 -23.336 -13.483  0.00  0.00    +0.143 C 
ATOM      5  C   UNL     1      35.326 -22.891 -14.658  0.00  0.00    +0.184 C 
ATOM      6  C   UNL     1      35.097 -24.046 -12.596  0.00  0.00    +0.133 C 
ATOM      7  C   UNL     1      33.341 -23.793 -14.049  0.00  0.00    +0.165 C 
ATOM      8  C   UNL     1      37.277 -23.102 -13.178  0.00  0.00    -0.011 C 
ATOM      9  C   UNL     1      35.660 -24.507 -11.410  0.00  0.00    +0.029 C 
ATOM     10  C   UNL     1      37.813 -23.575 -11.985  0.00  0.00    -0.004 C 
ATOM     11  C   UNL     1      37.004 -24.278 -11.100  0.00  0.00    +0.002 C 
ATOM     12  H   UNL     1      36.899 -21.717 -15.245  0.00  0.00    +0.154 HD
ENDROOT
BRANCH   7  14
ATOM     13  N   UNL     1      31.372 -23.146 -15.173  0.00  0.00    -0.398 NA
ATOM     14  C   UNL     1      31.954 -24.044 -14.344  0.00  0.00    +0.197 C 
ATOM     15  C   UNL     1      31.291 -25.135 -13.800  0.00  0.00    +0.098 C 
ATOM     16  C   UNL     1      30.069 -23.353 -15.468  0.00  0.00    +0.110 C 
ATOM     17  C   UNL     1      29.951 -25.315 -14.127  0.00  0.00    -0.016 C 
ATOM     18  C   UNL     1      29.322 -24.412 -14.976  0.00  0.00    +0.023 C 
ATOM     19  C   UNL     1      29.426 -22.365 -16.382  0.00  0.00    +0.066 C 
ENDBRANCH   7  14
BRANCH   1  21
ATOM     20  N   UNL     1      35.410 -21.707 -19.722  0.00  0.00    -0.242 NA
ATOM     21  C   UNL     1      35.872 -22.017 -16.955  0.00  0.00    +0.053 C 
ATOM     22  C   UNL     1      36.851 -21.464 -17.797  0.00  0.00    +0.035 C 
ATOM     23  C   UNL     1      34.656 -22.410 -17.536  0.00  0.00    +0.035 C 
ATOM     24  C   UNL     1      36.576 -21.333 -19.148  0.00  0.00    +0.100 C 
ATOM     25  C   UNL     1      34.478 -22.237 -18.900  0.00  0.00    +0.100 C 
ENDBRANCH   1  21
TORSDOF 2
ENDMDL
MODEL 9
REMARK VINA RESULT:      -8.6      1.714      5.222
REMARK  Name = 10267580
REMARK  2 active torsions:
REMARK  status: ('A' for Active; 'I' for Inactive)
REMARK    1  A    between atoms: N_1  and  C_21
REMARK    2  A    between atoms: C_7  and  C_14
REMARK                            x       y       z     vdW  Elec       q    Type
REMARK                         _______ _______ _______ _____ _____    ______ ____
ROOT
ATOM      1  N   UNL     1      36.788 -21.886 -17.089  0.00  0.00    -0.290 N 
ATOM      2  N   UNL     1      34.730 -22.681 -16.270  0.00  0.00    -0.327 NA
ATOM      3  N   UNL     1      34.660 -24.364 -14.547  0.00  0.00    -0.342 NA
ATOM      4  C   UNL     1      36.778 -23.581 -15.355  0.00  0.00    +0.143 C 
ATOM      5  C   UNL     1      36.074 -22.741 -16.213  0.00  0.00    +0.184 C 
ATOM      6  C   UNL     1      36.004 -24.399 -14.515  0.00  0.00    +0.133 C 
ATOM      7  C   UNL     1      34.097 -23.507 -15.422  0.00  0.00    +0.165 C 
ATOM      8  C   UNL     1      38.183 -23.626 -15.314  0.00  0.00    -0.011 C 
ATOM      9  C   UNL     1      36.674 -25.253 -13.644  0.00  0.00    +0.029 C 
ATOM     10  C   UNL     1      38.826 -24.491 -14.432  0.00  0.00    -0.004 C 
ATOM     11  C   UNL     1      38.070 -25.305 -13.597  0.00  0.00    +0.002 C 
ATOM     12  H   UNL     1      37.710 -21.667 -16.821  0.00  0.00    +0.154 HD
ENDROOT
BRANCH   7  14
ATOM     13  N   UNL     1      32.048 -24.239 -14.513  0.00  0.00    -0.398 NA
ATOM     14  C   UNL     1      32.657 -23.475 -15.450  0.00  0.00    +0.197 C 
ATOM     15  C   UNL     1      31.975 -22.707 -16.383  0.00  0.00    +0.098 C 
ATOM     16  C   UNL     1      30.695 -24.231 -14.515  0.00  0.00    +0.110 C 
ATOM     17  C   UNL     1      30.584 -22.725 -16.352  0.00  0.00    -0.016 C 
ATOM     18  C   UNL     1      29.926 -23.498 -15.404  0.00  0.00    +0.023 C 
ATOM     19  C   UNL     1      30.022 -25.072 -13.483  0.00  0.00    +0.066 C 
ENDBRANCH   7  14
BRANCH   1  21
ATOM     20  N   UNL     1      35.469 -20.170 -20.694  0.00  0.00    -0.242 NA
ATOM     21  C   UNL     1      36.354 -21.322 -18.274  0.00  0.00    +0.053 C 
ATOM     22  C   UNL     1      37.187 -20.472 -19.020  0.00  0.00    +0.035 C 
ATOM     23  C   UNL     1      35.067 -21.580 -18.772  0.00  0.00    +0.035 C 
ATOM     24  C   UNL     1      36.706 -19.932 -20.201  0.00  0.00    +0.100 C 
ATOM     25  C   UNL     1      34.680 -20.989 -19.965  0.00  0.00    +0.100 C 
ENDBRANCH   1  21
TORSDOF 2
ENDMDL
