MODEL 1
REMARK VINA RESULT:     -12.1      0.000      0.000
REMARK  Name = 46911863
REMARK  3 active torsions:
REMARK  status: ('A' for Active; 'I' for Inactive)
REMARK    1  A    between atoms: C_5  and  C_18
REMARK    2  A    between atoms: C_7  and  C_12
REMARK    3  A    between atoms: C_18  and  C_20
REMARK                            x       y       z     vdW  Elec       q    Type
REMARK                         _______ _______ _______ _____ _____    ______ ____
ROOT
ATOM      1  N   UNL     1      34.663 -22.025 -17.980  0.00  0.00    -0.190 N 
ATOM      2  N   UNL     1      35.622 -22.456 -17.123  0.00  0.00    -0.162 NA
ATOM      3  N   UNL     1      33.685 -21.056 -19.685  0.00  0.00    -0.126 NA
ATOM      4  N   UNL     1      32.709 -21.645 -18.907  0.00  0.00    -0.127 NA
ATOM      5  C   UNL     1      34.846 -21.294 -19.117  0.00  0.00    +0.228 A 
ATOM      6  C   UNL     1      33.305 -22.224 -17.885  0.00  0.00    +0.187 A 
ATOM      7  C   UNL     1      35.158 -23.130 -16.109  0.00  0.00    +0.104 C 
ATOM      8  C   UNL     1      32.833 -22.969 -16.788  0.00  0.00    +0.042 C 
ATOM      9  C   UNL     1      33.707 -23.439 -15.888  0.00  0.00    +0.024 C 
ENDROOT
BRANCH   7  12
ATOM     10  N   UNL     1      37.128 -24.947 -13.658  0.00  0.00    -0.208 N 
ATOM     11  N   UNL     1      37.853 -23.815 -13.628  0.00  0.00    -0.176 NA
ATOM     12  C   UNL     1      36.110 -23.654 -15.095  0.00  0.00    +0.056 C 
ATOM     13  C   UNL     1      36.073 -24.902 -14.521  0.00  0.00    +0.087 C 
ATOM     14  C   UNL     1      37.226 -23.029 -14.507  0.00  0.00    +0.121 C 
ATOM     15  C   UNL     1      37.503 -26.061 -12.822  0.00  0.00    +0.140 C 
ENDBRANCH   7  12
BRANCH   5  18
ATOM     16  F   UNL     1      36.942 -21.944 -20.033  0.00  0.00    -0.191 F 
ATOM     17  F   UNL     1      36.973 -20.402 -18.535  0.00  0.00    -0.191 F 
ATOM     18  C   UNL     1      36.221 -20.843 -19.609  0.00  0.00    +0.335 C 
BRANCH  18  20
ATOM     19  N   UNL     1      35.863 -16.885 -23.636  0.00  0.00    -0.244 NA
ATOM     20  C   UNL     1      36.119 -19.806 -20.674  0.00  0.00    +0.045 C 
ATOM     21  C   UNL     1      35.153 -19.918 -21.670  0.00  0.00    +0.003 C 
ATOM     22  C   UNL     1      35.053 -18.941 -22.676  0.00  0.00    +0.018 C 
ATOM     23  C   UNL     1      36.987 -18.721 -20.679  0.00  0.00    +0.003 C 
ATOM     24  C   UNL     1      35.931 -17.837 -22.687  0.00  0.00    +0.081 C 
ATOM     25  C   UNL     1      36.888 -17.752 -21.679  0.00  0.00    +0.019 C 
ATOM     26  C   UNL     1      34.090 -19.028 -23.690  0.00  0.00    +0.003 C 
ATOM     27  C   UNL     1      34.017 -18.048 -24.668  0.00  0.00    +0.021 C 
ATOM     28  C   UNL     1      34.918 -17.005 -24.597  0.00  0.00    +0.099 C 
ENDBRANCH  18  20
ENDBRANCH   5  18
TORSDOF 3
ENDMDL
MODEL 2
REMARK VINA RESULT:     -12.1      1.104      1.593
REMARK  Name = 46911863
REMARK  3 active torsions:
REMARK  status: ('A' for Active; 'I' for Inactive)
REMARK    1  A    between atoms: C_5  and  C_18
REMARK    2  A    between atoms: C_7  and  C_12
REMARK    3  A    between atoms: C_18  and  C_20
REMARK                            x       y       z     vdW  Elec       q    Type
REMARK                         _______ _______ _______ _____ _____    ______ ____
ROOT
ATOM      1  N   UNL     1      34.588 -21.628 -18.528  0.00  0.00    -0.190 N 
ATOM      2  N   UNL     1      35.650 -21.992 -17.768  0.00  0.00    -0.162 NA
ATOM      3  N   UNL     1      33.389 -20.731 -20.128  0.00  0.00    -0.126 NA
ATOM      4  N   UNL     1      32.534 -21.384 -19.264  0.00  0.00    -0.127 NA
ATOM      5  C   UNL     1      34.612 -20.888 -19.673  0.00  0.00    +0.228 A 
ATOM      6  C   UNL     1      33.261 -21.919 -18.306  0.00  0.00    +0.187 A 
ATOM      7  C   UNL     1      35.332 -22.694 -16.718  0.00  0.00    +0.104 C 
ATOM      8  C   UNL     1      32.948 -22.693 -17.173  0.00  0.00    +0.042 C 
ATOM      9  C   UNL     1      33.933 -23.101 -16.363  0.00  0.00    +0.024 C 
ENDROOT
BRANCH   7  12
ATOM     10  N   UNL     1      37.511 -24.197 -14.233  0.00  0.00    -0.208 N 
ATOM     11  N   UNL     1      38.433 -23.378 -14.769  0.00  0.00    -0.176 NA
ATOM     12  C   UNL     1      36.409 -23.150 -15.801  0.00  0.00    +0.056 C 
ATOM     13  C   UNL     1      36.283 -24.099 -14.816  0.00  0.00    +0.087 C 
ATOM     14  C   UNL     1      37.753 -22.741 -15.725  0.00  0.00    +0.121 C 
ATOM     15  C   UNL     1      37.875 -25.070 -13.143  0.00  0.00    +0.140 C 
ENDBRANCH   7  12
BRANCH   5  18
ATOM     16  F   UNL     1      36.725 -21.400 -20.639  0.00  0.00    -0.191 F 
ATOM     17  F   UNL     1      36.644 -19.706 -19.317  0.00  0.00    -0.191 F 
ATOM     18  C   UNL     1      35.900 -20.346 -20.291  0.00  0.00    +0.335 C 
BRANCH  18  20
ATOM     19  N   UNL     1      34.864 -16.985 -24.724  0.00  0.00    -0.244 NA
ATOM     20  C   UNL     1      35.628 -19.452 -21.453  0.00  0.00    +0.045 C 
ATOM     21  C   UNL     1      35.593 -18.071 -21.281  0.00  0.00    +0.003 C 
ATOM     22  C   UNL     1      35.337 -17.225 -22.374  0.00  0.00    +0.018 C 
ATOM     23  C   UNL     1      35.407 -19.992 -22.713  0.00  0.00    +0.003 C 
ATOM     24  C   UNL     1      35.113 -17.767 -23.656  0.00  0.00    +0.081 C 
ATOM     25  C   UNL     1      35.152 -19.151 -23.799  0.00  0.00    +0.019 C 
ATOM     26  C   UNL     1      35.297 -15.832 -22.229  0.00  0.00    +0.003 C 
ATOM     27  C   UNL     1      35.042 -15.024 -23.328  0.00  0.00    +0.021 C 
ATOM     28  C   UNL     1      34.834 -15.645 -24.543  0.00  0.00    +0.099 C 
ENDBRANCH  18  20
ENDBRANCH   5  18
TORSDOF 3
ENDMDL
MODEL 3
REMARK VINA RESULT:     -12.0      1.863      2.832
REMARK  Name = 46911863
REMARK  3 active torsions:
REMARK  status: ('A' for Active; 'I' for Inactive)
REMARK    1  A    between atoms: C_5  and  C_18
REMARK    2  A    between atoms: C_7  and  C_12
REMARK    3  A    between atoms: C_18  and  C_20
REMARK                            x       y       z     vdW  Elec       q    Type
REMARK                         _______ _______ _______ _____ _____    ______ ____
ROOT
ATOM      1  N   UNL     1      33.062 -22.872 -16.274  0.00  0.00    -0.190 N 
ATOM      2  N   UNL     1      34.083 -23.371 -15.534  0.00  0.00    -0.162 NA
ATOM      3  N   UNL     1      31.922 -22.059 -17.959  0.00  0.00    -0.126 NA
ATOM      4  N   UNL     1      31.080 -22.137 -16.869  0.00  0.00    -0.127 NA
ATOM      5  C   UNL     1      33.101 -22.503 -17.586  0.00  0.00    +0.228 A 
ATOM      6  C   UNL     1      31.772 -22.626 -15.861  0.00  0.00    +0.187 A 
ATOM      7  C   UNL     1      33.762 -23.630 -14.298  0.00  0.00    +0.104 C 
ATOM      8  C   UNL     1      31.450 -22.931 -14.525  0.00  0.00    +0.042 C 
ATOM      9  C   UNL     1      32.394 -23.430 -13.718  0.00  0.00    +0.024 C 
ENDROOT
BRANCH   7  12
ATOM     10  N   UNL     1      36.613 -25.112 -12.607  0.00  0.00    -0.208 N 
ATOM     11  N   UNL     1      35.925 -24.795 -11.496  0.00  0.00    -0.176 NA
ATOM     12  C   UNL     1      34.799 -24.177 -13.384  0.00  0.00    +0.056 C 
ATOM     13  C   UNL     1      35.982 -24.763 -13.764  0.00  0.00    +0.087 C 
ATOM     14  C   UNL     1      34.817 -24.226 -11.978  0.00  0.00    +0.121 C 
ATOM     15  C   UNL     1      37.898 -25.759 -12.494  0.00  0.00    +0.140 C 
ENDBRANCH   7  12
BRANCH   5  18
ATOM     16  F   UNL     1      34.350 -23.811 -19.131  0.00  0.00    -0.191 F 
ATOM     17  F   UNL     1      35.466 -22.751 -17.630  0.00  0.00    -0.191 F 
ATOM     18  C   UNL     1      34.359 -22.610 -18.447  0.00  0.00    +0.335 C 
BRANCH  18  20
ATOM     19  N   UNL     1      34.860 -18.204 -21.962  0.00  0.00    -0.244 NA
ATOM     20  C   UNL     1      34.501 -21.449 -19.372  0.00  0.00    +0.045 C 
ATOM     21  C   UNL     1      35.763 -20.947 -19.675  0.00  0.00    +0.003 C 
ATOM     22  C   UNL     1      35.902 -19.853 -20.548  0.00  0.00    +0.018 C 
ATOM     23  C   UNL     1      33.375 -20.863 -19.935  0.00  0.00    +0.003 C 
ATOM     24  C   UNL     1      34.763 -19.253 -21.123  0.00  0.00    +0.081 C 
ATOM     25  C   UNL     1      33.514 -19.776 -20.801  0.00  0.00    +0.019 C 
ATOM     26  C   UNL     1      37.160 -19.328 -20.871  0.00  0.00    +0.003 C 
ATOM     27  C   UNL     1      37.263 -18.247 -21.736  0.00  0.00    +0.021 C 
ATOM     28  C   UNL     1      36.092 -17.727 -22.250  0.00  0.00    +0.099 C 
ENDBRANCH  18  20
ENDBRANCH   5  18
TORSDOF 3
ENDMDL
MODEL 4
REMARK VINA RESULT:     -11.8      2.935      5.042
REMARK  Name = 46911863
REMARK  3 active torsions:
REMARK  status: ('A' for Active; 'I' for Inactive)
REMARK    1  A    between atoms: C_5  and  C_18
REMARK    2  A    between atoms: C_7  and  C_12
REMARK    3  A    between atoms: C_18  and  C_20
REMARK                            x       y       z     vdW  Elec       q    Type
REMARK                         _______ _______ _______ _____ _____    ______ ____
ROOT
ATOM      1  N   UNL     1      33.533 -22.890 -16.354  0.00  0.00    -0.190 N 
ATOM      2  N   UNL     1      32.184 -22.926 -16.488  0.00  0.00    -0.162 NA
ATOM      3  N   UNL     1      35.662 -22.672 -16.826  0.00  0.00    -0.126 NA
ATOM      4  N   UNL     1      35.549 -23.010 -15.493  0.00  0.00    -0.127 NA
ATOM      5  C   UNL     1      34.448 -22.605 -17.324  0.00  0.00    +0.228 A 
ATOM      6  C   UNL     1      34.268 -23.138 -15.218  0.00  0.00    +0.187 A 
ATOM      7  C   UNL     1      31.553 -23.237 -15.391  0.00  0.00    +0.104 C 
ATOM      8  C   UNL     1      33.559 -23.457 -14.044  0.00  0.00    +0.042 C 
ATOM      9  C   UNL     1      32.222 -23.514 -14.079  0.00  0.00    +0.024 C 
ENDROOT
BRANCH   7  12
ATOM     10  N   UNL     1      27.952 -22.781 -15.482  0.00  0.00    -0.208 N 
ATOM     11  N   UNL     1      27.933 -24.123 -15.392  0.00  0.00    -0.176 NA
ATOM     12  C   UNL     1      30.069 -23.314 -15.411  0.00  0.00    +0.056 C 
ATOM     13  C   UNL     1      29.206 -22.248 -15.496  0.00  0.00    +0.087 C 
ATOM     14  C   UNL     1      29.229 -24.442 -15.348  0.00  0.00    +0.121 C 
ATOM     15  C   UNL     1      26.709 -22.051 -15.553  0.00  0.00    +0.140 C 
ENDBRANCH   7  12
BRANCH   5  18
ATOM     16  F   UNL     1      32.773 -21.762 -18.789  0.00  0.00    -0.191 F 
ATOM     17  F   UNL     1      33.930 -23.432 -19.494  0.00  0.00    -0.191 F 
ATOM     18  C   UNL     1      34.061 -22.265 -18.764  0.00  0.00    +0.335 C 
BRANCH  18  20
ATOM     19  N   UNL     1      37.776 -18.715 -21.134  0.00  0.00    -0.244 NA
ATOM     20  C   UNL     1      35.032 -21.326 -19.395  0.00  0.00    +0.045 C 
ATOM     21  C   UNL     1      34.623 -20.483 -20.423  0.00  0.00    +0.003 C 
ATOM     22  C   UNL     1      35.536 -19.596 -21.020  0.00  0.00    +0.018 C 
ATOM     23  C   UNL     1      36.351 -21.288 -18.959  0.00  0.00    +0.003 C 
ATOM     24  C   UNL     1      36.876 -19.552 -20.583  0.00  0.00    +0.081 C 
ATOM     25  C   UNL     1      37.257 -20.407 -19.553  0.00  0.00    +0.019 C 
ATOM     26  C   UNL     1      35.151 -18.735 -22.057  0.00  0.00    +0.003 C 
ATOM     27  C   UNL     1      36.076 -17.871 -22.626  0.00  0.00    +0.021 C 
ATOM     28  C   UNL     1      37.364 -17.900 -22.132  0.00  0.00    +0.099 C 
ENDBRANCH  18  20
ENDBRANCH   5  18
TORSDOF 3
ENDMDL
MODEL 5
REMARK VINA RESULT:     -11.6      5.370      8.684
REMARK  Name = 46911863
REMARK  3 active torsions:
REMARK  status: ('A' for Active; 'I' for Inactive)
REMARK    1  A    between atoms: C_5  and  C_18
REMARK    2  A    between atoms: C_7  and  C_12
REMARK    3  A    between atoms: C_18  and  C_20
REMARK                            x       y       z     vdW  Elec       q    Type
REMARK                         _______ _______ _______ _____ _____    ______ ____
ROOT
ATOM      1  N   UNL     1      34.472 -15.934 -23.555  0.00  0.00    -0.190 N 
ATOM      2  N   UNL     1      35.056 -16.545 -22.494  0.00  0.00    -0.162 NA
ATOM      3  N   UNL     1      33.511 -14.412 -24.806  0.00  0.00    -0.126 NA
ATOM      4  N   UNL     1      33.624 -15.571 -25.547  0.00  0.00    -0.127 NA
ATOM      5  C   UNL     1      34.024 -14.648 -23.619  0.00  0.00    +0.228 A 
ATOM      6  C   UNL     1      34.202 -16.479 -24.790  0.00  0.00    +0.187 A 
ATOM      7  C   UNL     1      35.379 -17.788 -22.713  0.00  0.00    +0.104 C 
ATOM      8  C   UNL     1      34.576 -17.820 -25.003  0.00  0.00    +0.042 C 
ATOM      9  C   UNL     1      35.161 -18.504 -24.012  0.00  0.00    +0.024 C 
ENDROOT
BRANCH   7  12
ATOM     10  N   UNL     1      36.416 -20.053 -20.072  0.00  0.00    -0.208 N 
ATOM     11  N   UNL     1      37.520 -19.287 -20.057  0.00  0.00    -0.176 NA
ATOM     12  C   UNL     1      36.023 -18.568 -21.624  0.00  0.00    +0.056 C 
ATOM     13  C   UNL     1      35.488 -19.665 -20.992  0.00  0.00    +0.087 C 
ATOM     14  C   UNL     1      37.273 -18.381 -21.007  0.00  0.00    +0.121 C 
ATOM     15  C   UNL     1      36.305 -21.168 -19.162  0.00  0.00    +0.140 C 
ENDBRANCH   7  12
BRANCH   5  18
ATOM     16  F   UNL     1      35.378 -13.770 -21.871  0.00  0.00    -0.191 F 
ATOM     17  F   UNL     1      33.299 -14.087 -21.424  0.00  0.00    -0.191 F 
ATOM     18  C   UNL     1      34.126 -13.668 -22.450  0.00  0.00    +0.335 C 
BRANCH  18  20
ATOM     19  N   UNL     1      33.003  -8.362 -24.061  0.00  0.00    -0.244 NA
ATOM     20  C   UNL     1      33.823 -12.270 -22.867  0.00  0.00    +0.045 C 
ATOM     21  C   UNL     1      32.864 -11.528 -22.183  0.00  0.00    +0.003 C 
ATOM     22  C   UNL     1      32.576 -10.208 -22.573  0.00  0.00    +0.018 C 
ATOM     23  C   UNL     1      34.496 -11.699 -23.940  0.00  0.00    +0.003 C 
ATOM     24  C   UNL     1      33.255  -9.623 -23.661  0.00  0.00    +0.081 C 
ATOM     25  C   UNL     1      34.208 -10.388 -24.327  0.00  0.00    +0.019 C 
ATOM     26  C   UNL     1      31.616  -9.439 -21.902  0.00  0.00    +0.003 C 
ATOM     27  C   UNL     1      31.355  -8.139 -22.312  0.00  0.00    +0.021 C 
ATOM     28  C   UNL     1      32.070  -7.652 -23.387  0.00  0.00    +0.099 C 
ENDBRANCH  18  20
ENDBRANCH   5  18
TORSDOF 3
ENDMDL
MODEL 6
REMARK VINA RESULT:     -11.3      2.413      3.705
REMARK  Name = 46911863
REMARK  3 active torsions:
REMARK  status: ('A' for Active; 'I' for Inactive)
REMARK    1  A    between atoms: C_5  and  C_18
REMARK    2  A    between atoms: C_7  and  C_12
REMARK    3  A    between atoms: C_18  and  C_20
REMARK                            x       y       z     vdW  Elec       q    Type
REMARK                         _______ _______ _______ _____ _____    ______ ____
ROOT
ATOM      1  N   UNL     1      35.230 -22.538 -16.522  0.00  0.00    -0.190 N 
ATOM      2  N   UNL     1      33.988 -22.999 -16.229  0.00  0.00    -0.162 NA
ATOM      3  N   UNL     1      36.917 -21.662 -17.613  0.00  0.00    -0.126 NA
ATOM      4  N   UNL     1      37.354 -22.008 -16.350  0.00  0.00    -0.127 NA
ATOM      5  C   UNL     1      35.646 -21.985 -17.697  0.00  0.00    +0.228 A 
ATOM      6  C   UNL     1      36.335 -22.533 -15.702  0.00  0.00    +0.187 A 
ATOM      7  C   UNL     1      33.877 -23.486 -15.026  0.00  0.00    +0.104 C 
ATOM      8  C   UNL     1      36.181 -23.051 -14.402  0.00  0.00    +0.042 C 
ATOM      9  C   UNL     1      34.989 -23.528 -14.022  0.00  0.00    +0.024 C 
ENDROOT
BRANCH   7  12
ATOM     10  N   UNL     1      30.446 -24.555 -14.503  0.00  0.00    -0.208 N 
ATOM     11  N   UNL     1      30.943 -25.077 -13.368  0.00  0.00    -0.176 NA
ATOM     12  C   UNL     1      32.564 -24.028 -14.587  0.00  0.00    +0.056 C 
ATOM     13  C   UNL     1      31.376 -23.916 -15.268  0.00  0.00    +0.087 C 
ATOM     14  C   UNL     1      32.237 -24.752 -13.425  0.00  0.00    +0.121 C 
ATOM     15  C   UNL     1      29.043 -24.704 -14.806  0.00  0.00    +0.140 C 
ENDBRANCH   7  12
BRANCH   5  18
ATOM     16  F   UNL     1      33.456 -21.464 -18.466  0.00  0.00    -0.191 F 
ATOM     17  F   UNL     1      34.512 -23.015 -19.516  0.00  0.00    -0.191 F 
ATOM     18  C   UNL     1      34.726 -21.794 -18.903  0.00  0.00    +0.335 C 
BRANCH  18  20
ATOM     19  N   UNL     1      36.794 -17.957 -22.510  0.00  0.00    -0.244 NA
ATOM     20  C   UNL     1      35.262 -20.784 -19.858  0.00  0.00    +0.045 C 
ATOM     21  C   UNL     1      34.465 -20.311 -20.897  0.00  0.00    +0.003 C 
ATOM     22  C   UNL     1      34.966 -19.357 -21.800  0.00  0.00    +0.018 C 
ATOM     23  C   UNL     1      36.559 -20.308 -19.717  0.00  0.00    +0.003 C 
ATOM     24  C   UNL     1      36.282 -18.870 -21.662  0.00  0.00    +0.081 C 
ATOM     25  C   UNL     1      37.057 -19.361 -20.615  0.00  0.00    +0.019 C 
ATOM     26  C   UNL     1      34.186 -18.864 -22.854  0.00  0.00    +0.003 C 
ATOM     27  C   UNL     1      34.710 -17.923 -23.728  0.00  0.00    +0.021 C 
ATOM     28  C   UNL     1      36.008 -17.505 -23.514  0.00  0.00    +0.099 C 
ENDBRANCH  18  20
ENDBRANCH   5  18
TORSDOF 3
ENDMDL
MODEL 7
REMARK VINA RESULT:     -11.3      7.078     12.464
REMARK  Name = 46911863
REMARK  3 active torsions:
REMARK  status: ('A' for Active; 'I' for Inactive)
REMARK    1  A    between atoms: C_5  and  C_18
REMARK    2  A    between atoms: C_7  and  C_12
REMARK    3  A    between atoms: C_18  and  C_20
REMARK                            x       y       z     vdW  Elec       q    Type
REMARK                         _______ _______ _______ _____ _____    ______ ____
ROOT
ATOM      1  N   UNL     1      32.706 -11.514 -22.033  0.00  0.00    -0.190 N 
ATOM      2  N   UNL     1      32.881 -10.396 -22.780  0.00  0.00    -0.162 NA
ATOM      3  N   UNL     1      32.786 -13.600 -21.365  0.00  0.00    -0.126 NA
ATOM      4  N   UNL     1      32.084 -12.873 -20.425  0.00  0.00    -0.127 NA
ATOM      5  C   UNL     1      33.150 -12.771 -22.317  0.00  0.00    +0.228 A 
ATOM      6  C   UNL     1      32.040 -11.622 -20.833  0.00  0.00    +0.187 A 
ATOM      7  C   UNL     1      32.339  -9.328 -22.268  0.00  0.00    +0.104 C 
ATOM      8  C   UNL     1      31.478 -10.449 -20.295  0.00  0.00    +0.042 C 
ATOM      9  C   UNL     1      31.602  -9.295 -20.963  0.00  0.00    +0.024 C 
ENDROOT
BRANCH   7  12
ATOM     10  N   UNL     1      33.259  -6.223 -23.910  0.00  0.00    -0.208 N 
ATOM     11  N   UNL     1      31.944  -6.157 -24.185  0.00  0.00    -0.176 NA
ATOM     12  C   UNL     1      32.458  -8.038 -22.997  0.00  0.00    +0.056 C 
ATOM     13  C   UNL     1      33.618  -7.330 -23.200  0.00  0.00    +0.087 C 
ATOM     14  C   UNL     1      31.461  -7.269 -23.624  0.00  0.00    +0.121 C 
ATOM     15  C   UNL     1      34.139  -5.174 -24.364  0.00  0.00    +0.140 C 
ENDBRANCH   7  12
BRANCH   5  18
ATOM     16  F   UNL     1      35.087 -12.326 -23.625  0.00  0.00    -0.191 F 
ATOM     17  F   UNL     1      33.254 -12.682 -24.692  0.00  0.00    -0.191 F 
ATOM     18  C   UNL     1      33.949 -13.110 -23.576  0.00  0.00    +0.335 C 
BRANCH  18  20
ATOM     19  N   UNL     1      35.173 -18.625 -23.906  0.00  0.00    -0.244 NA
ATOM     20  C   UNL     1      34.276 -14.563 -23.654  0.00  0.00    +0.045 C 
ATOM     21  C   UNL     1      34.926 -15.191 -22.595  0.00  0.00    +0.003 C 
ATOM     22  C   UNL     1      35.235 -16.561 -22.664  0.00  0.00    +0.018 C 
ATOM     23  C   UNL     1      33.935 -15.296 -24.783  0.00  0.00    +0.003 C 
ATOM     24  C   UNL     1      34.891 -17.312 -23.807  0.00  0.00    +0.081 C 
ATOM     25  C   UNL     1      34.243 -16.657 -24.851  0.00  0.00    +0.019 C 
ATOM     26  C   UNL     1      35.888 -17.219 -21.613  0.00  0.00    +0.003 C 
ATOM     27  C   UNL     1      36.179 -18.572 -21.712  0.00  0.00    +0.021 C 
ATOM     28  C   UNL     1      35.804 -19.223 -22.870  0.00  0.00    +0.099 C 
ENDBRANCH  18  20
ENDBRANCH   5  18
TORSDOF 3
ENDMDL
MODEL 8
REMARK VINA RESULT:     -11.1      7.715     13.207
REMARK  Name = 46911863
REMARK  3 active torsions:
REMARK  status: ('A' for Active; 'I' for Inactive)
REMARK    1  A    between atoms: C_5  and  C_18
REMARK    2  A    between atoms: C_7  and  C_12
REMARK    3  A    between atoms: C_18  and  C_20
REMARK                            x       y       z     vdW  Elec       q    Type
REMARK                         _______ _______ _______ _____ _____    ______ ____
ROOT
ATOM      1  N   UNL     1      32.814 -10.568 -22.487  0.00  0.00    -0.190 N 
ATOM      2  N   UNL     1      33.257  -9.443 -23.101  0.00  0.00    -0.162 NA
ATOM      3  N   UNL     1      32.471 -12.682 -22.020  0.00  0.00    -0.126 NA
ATOM      4  N   UNL     1      31.792 -11.921 -21.091  0.00  0.00    -0.127 NA
ATOM      5  C   UNL     1      33.076 -11.858 -22.846  0.00  0.00    +0.228 A 
ATOM      6  C   UNL     1      32.003 -10.653 -21.378  0.00  0.00    +0.187 A 
ATOM      7  C   UNL     1      32.841  -8.341 -22.545  0.00  0.00    +0.104 C 
ATOM      8  C   UNL     1      31.583  -9.446 -20.788  0.00  0.00    +0.042 C 
ATOM      9  C   UNL     1      31.971  -8.282 -21.324  0.00  0.00    +0.024 C 
ENDROOT
BRANCH   7  12
ATOM     10  N   UNL     1      33.239  -4.982 -23.867  0.00  0.00    -0.208 N 
ATOM     11  N   UNL     1      34.508  -5.378 -24.071  0.00  0.00    -0.176 NA
ATOM     12  C   UNL     1      33.254  -7.038 -23.129  0.00  0.00    +0.056 C 
ATOM     13  C   UNL     1      32.447  -5.940 -23.304  0.00  0.00    +0.087 C 
ATOM     14  C   UNL     1      34.510  -6.635 -23.619  0.00  0.00    +0.121 C 
ATOM     15  C   UNL     1      32.836  -3.647 -24.237  0.00  0.00    +0.140 C 
ENDBRANCH   7  12
BRANCH   5  18
ATOM     16  F   UNL     1      35.195 -11.646 -23.905  0.00  0.00    -0.191 F 
ATOM     17  F   UNL     1      33.463 -11.611 -25.179  0.00  0.00    -0.191 F 
ATOM     18  C   UNL     1      33.950 -12.231 -24.043  0.00  0.00    +0.335 C 
BRANCH  18  20
ATOM     19  N   UNL     1      34.307 -17.834 -24.747  0.00  0.00    -0.244 NA
ATOM     20  C   UNL     1      34.051 -13.707 -24.220  0.00  0.00    +0.045 C 
ATOM     21  C   UNL     1      34.842 -14.463 -23.360  0.00  0.00    +0.003 C 
ATOM     22  C   UNL     1      34.939 -15.856 -23.524  0.00  0.00    +0.018 C 
ATOM     23  C   UNL     1      33.356 -14.337 -25.245  0.00  0.00    +0.003 C 
ATOM     24  C   UNL     1      34.236 -16.502 -24.562  0.00  0.00    +0.081 C 
ATOM     25  C   UNL     1      33.454 -15.721 -25.408  0.00  0.00    +0.019 C 
ATOM     26  C   UNL     1      35.727 -16.641 -22.672  0.00  0.00    +0.003 C 
ATOM     27  C   UNL     1      35.802 -18.014 -22.859  0.00  0.00    +0.021 C 
ATOM     28  C   UNL     1      35.079 -18.556 -23.902  0.00  0.00    +0.099 C 
ENDBRANCH  18  20
ENDBRANCH   5  18
TORSDOF 3
ENDMDL
MODEL 9
REMARK VINA RESULT:     -11.1      6.513      7.885
REMARK  Name = 46911863
REMARK  3 active torsions:
REMARK  status: ('A' for Active; 'I' for Inactive)
REMARK    1  A    between atoms: C_5  and  C_18
REMARK    2  A    between atoms: C_7  and  C_12
REMARK    3  A    between atoms: C_18  and  C_20
REMARK                            x       y       z     vdW  Elec       q    Type
REMARK                         _______ _______ _______ _____ _____    ______ ____
ROOT
ATOM      1  N   UNL     1      36.040 -24.540 -13.112  0.00  0.00    -0.190 N 
ATOM      2  N   UNL     1      36.904 -24.990 -14.054  0.00  0.00    -0.162 NA
ATOM      3  N   UNL     1      34.288 -23.618 -12.170  0.00  0.00    -0.126 NA
ATOM      4  N   UNL     1      35.131 -24.059 -11.171  0.00  0.00    -0.127 NA
ATOM      5  C   UNL     1      34.846 -23.915 -13.323  0.00  0.00    +0.228 A 
ATOM      6  C   UNL     1      36.180 -24.611 -11.745  0.00  0.00    +0.187 A 
ATOM      7  C   UNL     1      37.978 -25.543 -13.564  0.00  0.00    +0.104 C 
ATOM      8  C   UNL     1      37.342 -25.228 -11.243  0.00  0.00    +0.042 C 
ATOM      9  C   UNL     1      38.254 -25.705 -12.100  0.00  0.00    +0.024 C 
ENDROOT
BRANCH   7  12
ATOM     10  N   UNL     1      40.102 -27.348 -15.891  0.00  0.00    -0.208 N 
ATOM     11  N   UNL     1      40.889 -26.265 -15.775  0.00  0.00    -0.176 NA
ATOM     12  C   UNL     1      39.006 -26.072 -14.498  0.00  0.00    +0.056 C 
ATOM     13  C   UNL     1      38.962 -27.283 -15.145  0.00  0.00    +0.087 C 
ATOM     14  C   UNL     1      40.215 -25.489 -14.922  0.00  0.00    +0.121 C 
ATOM     15  C   UNL     1      40.502 -28.437 -16.749  0.00  0.00    +0.140 C 
ENDBRANCH   7  12
BRANCH   5  18
ATOM     16  F   UNL     1      34.944 -24.411 -15.647  0.00  0.00    -0.191 F 
ATOM     17  F   UNL     1      34.659 -22.350 -15.104  0.00  0.00    -0.191 F 
ATOM     18  C   UNL     1      34.289 -23.625 -14.717  0.00  0.00    +0.335 C 
BRANCH  18  20
ATOM     19  N   UNL     1      28.684 -24.370 -14.921  0.00  0.00    -0.244 NA
ATOM     20  C   UNL     1      32.812 -23.813 -14.776  0.00  0.00    +0.045 C 
ATOM     21  C   UNL     1      32.027 -22.950 -15.535  0.00  0.00    +0.003 C 
ATOM     22  C   UNL     1      30.633 -23.124 -15.594  0.00  0.00    +0.018 C 
ATOM     23  C   UNL     1      32.211 -24.851 -14.076  0.00  0.00    +0.003 C 
ATOM     24  C   UNL     1      30.016 -24.176 -14.886  0.00  0.00    +0.081 C 
ATOM     25  C   UNL     1      30.826 -25.023 -14.135  0.00  0.00    +0.019 C 
ATOM     26  C   UNL     1      29.819 -22.270 -16.350  0.00  0.00    +0.003 C 
ATOM     27  C   UNL     1      28.446 -22.469 -16.389  0.00  0.00    +0.021 C 
ATOM     28  C   UNL     1      27.933 -23.525 -15.663  0.00  0.00    +0.099 C 
ENDBRANCH  18  20
ENDBRANCH   5  18
TORSDOF 3
ENDMDL
