MODEL 1
REMARK VINA RESULT:     -12.5      0.000      0.000
REMARK  Name = 25184541
REMARK  4 active torsions:
REMARK  status: ('A' for Active; 'I' for Inactive)
REMARK    1  A    between atoms: C_4  and  N_19
REMARK    2  A    between atoms: C_5  and  N_11
REMARK    3  A    between atoms: C_20  and  C_23
REMARK    4  A    between atoms: C_23  and  N_25
REMARK                            x       y       z     vdW  Elec       q    Type
REMARK                         _______ _______ _______ _____ _____    ______ ____
ROOT
ATOM      1  F   UNL     1      32.467 -21.325 -18.976  0.00  0.00    -0.200 F 
ATOM      2  F   UNL     1      32.649 -19.636 -21.095  0.00  0.00    -0.200 F 
ATOM      3  F   UNL     1      37.388 -19.809 -20.825  0.00  0.00    -0.203 F 
ATOM      4  C   UNL     1      34.834 -21.434 -18.813  0.00  0.00    +0.089 C 
ATOM      5  C   UNL     1      35.020 -19.699 -20.988  0.00  0.00    +0.110 C 
ATOM      6  C   UNL     1      33.675 -20.956 -19.425  0.00  0.00    +0.182 C 
ATOM      7  C   UNL     1      36.086 -21.045 -19.289  0.00  0.00    +0.048 C 
ATOM      8  C   UNL     1      33.769 -20.088 -20.513  0.00  0.00    +0.184 C 
ATOM      9  C   UNL     1      36.179 -20.177 -20.376  0.00  0.00    +0.157 C 
ENDROOT
BRANCH   5  11
ATOM     10  O   UNL     1      35.329 -16.220 -25.229  0.00  0.00    -0.291 OA
ATOM     11  N   UNL     1      35.116 -18.813 -22.094  0.00  0.00    -0.282 N 
ATOM     12  C   UNL     1      35.767 -17.511 -21.867  0.00  0.00    +0.104 C 
ATOM     13  C   UNL     1      35.234 -16.458 -22.838  0.00  0.00    +0.091 C 
ATOM     14  C   UNL     1      34.796 -19.180 -23.393  0.00  0.00    +0.068 C 
ATOM     15  C   UNL     1      35.178 -16.965 -24.263  0.00  0.00    +0.176 C 
ATOM     16  C   UNL     1      34.837 -18.391 -24.471  0.00  0.00    +0.054 C 
ENDBRANCH   5  11
BRANCH   4  19
ATOM     17  O   UNL     1      35.184 -23.425 -15.785  0.00  0.00    -0.434 OA
ATOM     18  O   UNL     1      36.696 -21.870 -16.447  0.00  0.00    -0.226 OA
ATOM     19  N   UNL     1      34.742 -22.321 -17.702  0.00  0.00    -0.219 N 
ATOM     20  C   UNL     1      33.846 -23.785 -16.150  0.00  0.00    +0.210 C 
ATOM     21  C   UNL     1      33.708 -23.314 -17.582  0.00  0.00    +0.147 C 
ATOM     22  C   UNL     1      35.640 -22.453 -16.647  0.00  0.00    +0.409 C 
BRANCH  20  23
ATOM     23  C   UNL     1      32.874 -23.100 -15.198  0.00  0.00    +0.134 C 
BRANCH  23  25
ATOM     24  O   UNL     1      29.022 -22.374 -17.006  0.00  0.00    -0.349 OA
ATOM     25  N   UNL     1      31.634 -23.831 -15.152  0.00  0.00    -0.312 N 
ATOM     26  N   UNL     1      30.341 -22.344 -16.569  0.00  0.00    -0.062 NA
ATOM     27  C   UNL     1      30.479 -23.435 -15.810  0.00  0.00    +0.171 C 
ATOM     28  C   UNL     1      29.293 -24.184 -15.733  0.00  0.00    +0.081 C 
ATOM     29  C   UNL     1      28.408 -23.475 -16.502  0.00  0.00    +0.215 C 
ATOM     30  H   UNL     1      31.604 -24.660 -14.620  0.00  0.00    +0.148 HD
ENDBRANCH  23  25
ENDBRANCH  20  23
ENDBRANCH   4  19
TORSDOF 4
ENDMDL
MODEL 2
REMARK VINA RESULT:     -12.0      0.646      2.014
REMARK  Name = 25184541
REMARK  4 active torsions:
REMARK  status: ('A' for Active; 'I' for Inactive)
REMARK    1  A    between atoms: C_4  and  N_19
REMARK    2  A    between atoms: C_5  and  N_11
REMARK    3  A    between atoms: C_20  and  C_23
REMARK    4  A    between atoms: C_23  and  N_25
REMARK                            x       y       z     vdW  Elec       q    Type
REMARK                         _______ _______ _______ _____ _____    ______ ____
ROOT
ATOM      1  F   UNL     1      36.965 -21.678 -18.607  0.00  0.00    -0.200 F 
ATOM      2  F   UNL     1      37.170 -19.971 -20.710  0.00  0.00    -0.200 F 
ATOM      3  F   UNL     1      32.434 -19.667 -20.922  0.00  0.00    -0.203 F 
ATOM      4  C   UNL     1      34.595 -21.548 -18.685  0.00  0.00    +0.089 C 
ATOM      5  C   UNL     1      34.805 -19.797 -20.845  0.00  0.00    +0.110 C 
ATOM      6  C   UNL     1      35.852 -21.188 -19.171  0.00  0.00    +0.182 C 
ATOM      7  C   UNL     1      33.443 -21.032 -19.278  0.00  0.00    +0.048 C 
ATOM      8  C   UNL     1      35.956 -20.312 -20.252  0.00  0.00    +0.184 C 
ATOM      9  C   UNL     1      33.548 -20.156 -20.358  0.00  0.00    +0.157 C 
ENDROOT
BRANCH   5  11
ATOM     10  O   UNL     1      35.273 -16.411 -25.146  0.00  0.00    -0.291 OA
ATOM     11  N   UNL     1      34.911 -18.907 -21.947  0.00  0.00    -0.282 N 
ATOM     12  C   UNL     1      34.300 -19.326 -23.220  0.00  0.00    +0.104 C 
ATOM     13  C   UNL     1      35.017 -18.685 -24.407  0.00  0.00    +0.091 C 
ATOM     14  C   UNL     1      35.393 -17.612 -21.835  0.00  0.00    +0.068 C 
ATOM     15  C   UNL     1      35.249 -17.202 -24.206  0.00  0.00    +0.176 C 
ATOM     16  C   UNL     1      35.545 -16.735 -22.832  0.00  0.00    +0.054 C 
ENDBRANCH   5  11
BRANCH   4  19
ATOM     17  O   UNL     1      34.877 -23.534 -15.646  0.00  0.00    -0.434 OA
ATOM     18  O   UNL     1      36.355 -21.916 -16.230  0.00  0.00    -0.226 OA
ATOM     19  N   UNL     1      34.485 -22.442 -17.581  0.00  0.00    -0.219 N 
ATOM     20  C   UNL     1      33.574 -23.947 -16.078  0.00  0.00    +0.210 C 
ATOM     21  C   UNL     1      33.488 -23.477 -17.514  0.00  0.00    +0.147 C 
ATOM     22  C   UNL     1      35.334 -22.541 -16.483  0.00  0.00    +0.409 C 
BRANCH  20  23
ATOM     23  C   UNL     1      32.530 -23.306 -15.174  0.00  0.00    +0.134 C 
BRANCH  23  25
ATOM     24  O   UNL     1      28.783 -22.031 -16.900  0.00  0.00    -0.349 OA
ATOM     25  N   UNL     1      31.264 -23.975 -15.334  0.00  0.00    -0.312 N 
ATOM     26  N   UNL     1      30.083 -22.155 -16.423  0.00  0.00    -0.062 NA
ATOM     27  C   UNL     1      30.152 -23.393 -15.924  0.00  0.00    +0.171 C 
ATOM     28  C   UNL     1      28.939 -24.089 -16.056  0.00  0.00    +0.081 C 
ATOM     29  C   UNL     1      28.112 -23.190 -16.675  0.00  0.00    +0.215 C 
ATOM     30  H   UNL     1      31.184 -24.900 -15.004  0.00  0.00    +0.148 HD
ENDBRANCH  23  25
ENDBRANCH  20  23
ENDBRANCH   4  19
TORSDOF 4
ENDMDL
MODEL 3
REMARK VINA RESULT:     -11.6      8.962     14.047
REMARK  Name = 25184541
REMARK  4 active torsions:
REMARK  status: ('A' for Active; 'I' for Inactive)
REMARK    1  A    between atoms: C_4  and  N_19
REMARK    2  A    between atoms: C_5  and  N_11
REMARK    3  A    between atoms: C_20  and  C_23
REMARK    4  A    between atoms: C_23  and  N_25
REMARK                            x       y       z     vdW  Elec       q    Type
REMARK                         _______ _______ _______ _____ _____    ______ ____
ROOT
ATOM      1  F   UNL     1      31.164 -10.459 -20.791  0.00  0.00    -0.200 F 
ATOM      2  F   UNL     1      32.009 -12.876 -21.698  0.00  0.00    -0.200 F 
ATOM      3  F   UNL     1      34.906 -10.707 -24.775  0.00  0.00    -0.203 F 
ATOM      4  C   UNL     1      32.601  -9.343 -22.316  0.00  0.00    +0.089 C 
ATOM      5  C   UNL     1      33.468 -11.824 -23.249  0.00  0.00    +0.110 C 
ATOM      6  C   UNL     1      32.081 -10.514 -21.768  0.00  0.00    +0.182 C 
ATOM      7  C   UNL     1      33.556  -9.412 -23.331  0.00  0.00    +0.048 C 
ATOM      8  C   UNL     1      32.515 -11.756 -22.234  0.00  0.00    +0.184 C 
ATOM      9  C   UNL     1      33.989 -10.652 -23.798  0.00  0.00    +0.157 C 
ENDROOT
BRANCH   5  11
ATOM     10  O   UNL     1      35.084 -16.740 -25.095  0.00  0.00    -0.291 OA
ATOM     11  N   UNL     1      33.907 -13.087 -23.726  0.00  0.00    -0.282 N 
ATOM     12  C   UNL     1      33.578 -13.440 -25.118  0.00  0.00    +0.104 C 
ATOM     13  C   UNL     1      33.483 -14.956 -25.290  0.00  0.00    +0.091 C 
ATOM     14  C   UNL     1      34.770 -13.910 -23.018  0.00  0.00    +0.068 C 
ATOM     15  C   UNL     1      34.649 -15.680 -24.649  0.00  0.00    +0.176 C 
ATOM     16  C   UNL     1      35.200 -15.118 -23.395  0.00  0.00    +0.054 C 
ENDBRANCH   5  11
BRANCH   4  19
ATOM     17  O   UNL     1      31.757  -6.291 -20.520  0.00  0.00    -0.434 OA
ATOM     18  O   UNL     1      32.872  -8.030 -19.586  0.00  0.00    -0.226 OA
ATOM     19  N   UNL     1      32.162  -8.074 -21.842  0.00  0.00    -0.219 N 
ATOM     20  C   UNL     1      31.392  -5.891 -21.848  0.00  0.00    +0.210 C 
ATOM     21  C   UNL     1      31.349  -7.186 -22.631  0.00  0.00    +0.147 C 
ATOM     22  C   UNL     1      32.335  -7.539 -20.569  0.00  0.00    +0.409 C 
BRANCH  20  23
ATOM     23  C   UNL     1      32.434  -4.910 -22.370  0.00  0.00    +0.134 C 
BRANCH  23  25
ATOM     24  O   UNL     1      34.637  -4.185 -26.011  0.00  0.00    -0.349 OA
ATOM     25  N   UNL     1      33.510  -5.627 -23.005  0.00  0.00    -0.312 N 
ATOM     26  N   UNL     1      33.778  -4.159 -24.920  0.00  0.00    -0.062 NA
ATOM     27  C   UNL     1      34.102  -5.234 -24.196  0.00  0.00    +0.171 C 
ATOM     28  C   UNL     1      35.150  -5.970 -24.776  0.00  0.00    +0.081 C 
ATOM     29  C   UNL     1      35.450  -5.269 -25.914  0.00  0.00    +0.215 C 
ATOM     30  H   UNL     1      33.843  -6.445 -22.569  0.00  0.00    +0.148 HD
ENDBRANCH  23  25
ENDBRANCH  20  23
ENDBRANCH   4  19
TORSDOF 4
ENDMDL
MODEL 4
REMARK VINA RESULT:     -11.4      8.987     14.158
REMARK  Name = 25184541
REMARK  4 active torsions:
REMARK  status: ('A' for Active; 'I' for Inactive)
REMARK    1  A    between atoms: C_4  and  N_19
REMARK    2  A    between atoms: C_5  and  N_11
REMARK    3  A    between atoms: C_20  and  C_23
REMARK    4  A    between atoms: C_23  and  N_25
REMARK                            x       y       z     vdW  Elec       q    Type
REMARK                         _______ _______ _______ _____ _____    ______ ____
ROOT
ATOM      1  F   UNL     1      34.142  -8.496 -23.879  0.00  0.00    -0.200 F 
ATOM      2  F   UNL     1      34.952 -10.918 -24.802  0.00  0.00    -0.200 F 
ATOM      3  F   UNL     1      32.054 -13.063 -21.709  0.00  0.00    -0.203 F 
ATOM      4  C   UNL     1      32.682  -9.535 -22.321  0.00  0.00    +0.089 C 
ATOM      5  C   UNL     1      33.515 -12.023 -23.267  0.00  0.00    +0.110 C 
ATOM      6  C   UNL     1      33.628  -9.612 -23.343  0.00  0.00    +0.182 C 
ATOM      7  C   UNL     1      32.153 -10.703 -21.772  0.00  0.00    +0.048 C 
ATOM      8  C   UNL     1      34.044 -10.856 -23.817  0.00  0.00    +0.184 C 
ATOM      9  C   UNL     1      32.569 -11.947 -22.245  0.00  0.00    +0.157 C 
ENDROOT
BRANCH   5  11
ATOM     10  O   UNL     1      35.078 -16.954 -25.118  0.00  0.00    -0.291 OA
ATOM     11  N   UNL     1      33.941 -13.290 -23.747  0.00  0.00    -0.282 N 
ATOM     12  C   UNL     1      33.566 -13.657 -25.123  0.00  0.00    +0.104 C 
ATOM     13  C   UNL     1      33.469 -15.174 -25.277  0.00  0.00    +0.091 C 
ATOM     14  C   UNL     1      34.828 -14.105 -23.059  0.00  0.00    +0.068 C 
ATOM     15  C   UNL     1      34.656 -15.891 -24.669  0.00  0.00    +0.176 C 
ATOM     16  C   UNL     1      35.247 -15.316 -23.439  0.00  0.00    +0.054 C 
ENDBRANCH   5  11
BRANCH   4  19
ATOM     17  O   UNL     1      31.811  -6.514 -20.485  0.00  0.00    -0.434 OA
ATOM     18  O   UNL     1      32.776  -8.331 -19.529  0.00  0.00    -0.226 OA
ATOM     19  N   UNL     1      32.254  -8.266 -21.836  0.00  0.00    -0.219 N 
ATOM     20  C   UNL     1      31.575  -6.054 -21.822  0.00  0.00    +0.210 C 
ATOM     21  C   UNL     1      31.547  -7.318 -22.655  0.00  0.00    +0.147 C 
ATOM     22  C   UNL     1      32.342  -7.783 -20.534  0.00  0.00    +0.409 C 
BRANCH  20  23
ATOM     23  C   UNL     1      32.694  -5.100 -22.219  0.00  0.00    +0.134 C 
BRANCH  23  25
ATOM     24  O   UNL     1      35.285  -5.194 -25.671  0.00  0.00    -0.349 OA
ATOM     25  N   UNL     1      32.506  -4.662 -23.579  0.00  0.00    -0.312 N 
ATOM     26  N   UNL     1      34.693  -5.297 -24.418  0.00  0.00    -0.062 NA
ATOM     27  C   UNL     1      33.472  -4.776 -24.568  0.00  0.00    +0.171 C 
ATOM     28  C   UNL     1      33.238  -4.332 -25.880  0.00  0.00    +0.081 C 
ATOM     29  C   UNL     1      34.408  -4.617 -26.534  0.00  0.00    +0.215 C 
ATOM     30  H   UNL     1      31.641  -4.256 -23.819  0.00  0.00    +0.148 HD
ENDBRANCH  23  25
ENDBRANCH  20  23
ENDBRANCH   4  19
TORSDOF 4
ENDMDL
MODEL 5
REMARK VINA RESULT:     -11.3      2.432      4.202
REMARK  Name = 25184541
REMARK  4 active torsions:
REMARK  status: ('A' for Active; 'I' for Inactive)
REMARK    1  A    between atoms: C_4  and  N_19
REMARK    2  A    between atoms: C_5  and  N_11
REMARK    3  A    between atoms: C_20  and  C_23
REMARK    4  A    between atoms: C_23  and  N_25
REMARK                            x       y       z     vdW  Elec       q    Type
REMARK                         _______ _______ _______ _____ _____    ______ ____
ROOT
ATOM      1  F   UNL     1      37.116 -21.536 -18.531  0.00  0.00    -0.200 F 
ATOM      2  F   UNL     1      37.326 -19.859 -20.657  0.00  0.00    -0.200 F 
ATOM      3  F   UNL     1      32.594 -19.767 -21.051  0.00  0.00    -0.203 F 
ATOM      4  C   UNL     1      34.747 -21.512 -18.699  0.00  0.00    +0.089 C 
ATOM      5  C   UNL     1      34.963 -19.791 -20.883  0.00  0.00    +0.110 C 
ATOM      6  C   UNL     1      36.004 -21.106 -19.145  0.00  0.00    +0.182 C 
ATOM      7  C   UNL     1      33.597 -21.057 -19.345  0.00  0.00    +0.048 C 
ATOM      8  C   UNL     1      36.112 -20.245 -20.238  0.00  0.00    +0.184 C 
ATOM      9  C   UNL     1      33.706 -20.197 -20.437  0.00  0.00    +0.157 C 
ENDROOT
BRANCH   5  11
ATOM     10  O   UNL     1      35.325 -16.358 -25.157  0.00  0.00    -0.291 OA
ATOM     11  N   UNL     1      35.073 -18.917 -21.997  0.00  0.00    -0.282 N 
ATOM     12  C   UNL     1      35.705 -17.606 -21.772  0.00  0.00    +0.104 C 
ATOM     13  C   UNL     1      35.181 -16.569 -22.765  0.00  0.00    +0.091 C 
ATOM     14  C   UNL     1      34.785 -19.303 -23.298  0.00  0.00    +0.068 C 
ATOM     15  C   UNL     1      35.161 -17.094 -24.186  0.00  0.00    +0.176 C 
ATOM     16  C   UNL     1      34.840 -18.525 -24.384  0.00  0.00    +0.054 C 
ENDBRANCH   5  11
BRANCH   4  19
ATOM     17  O   UNL     1      34.203 -24.193 -16.297  0.00  0.00    -0.434 OA
ATOM     18  O   UNL     1      33.700 -24.362 -18.502  0.00  0.00    -0.226 OA
ATOM     19  N   UNL     1      34.633 -22.391 -17.584  0.00  0.00    -0.219 N 
ATOM     20  C   UNL     1      34.950 -23.287 -15.474  0.00  0.00    +0.210 C 
ATOM     21  C   UNL     1      34.924 -21.979 -16.236  0.00  0.00    +0.147 C 
ATOM     22  C   UNL     1      34.148 -23.695 -17.579  0.00  0.00    +0.409 C 
BRANCH  20  23
ATOM     23  C   UNL     1      36.356 -23.842 -15.283  0.00  0.00    +0.134 C 
BRANCH  23  25
ATOM     24  O   UNL     1      35.363 -24.774 -11.187  0.00  0.00    -0.349 OA
ATOM     25  N   UNL     1      36.899 -23.382 -14.030  0.00  0.00    -0.312 N 
ATOM     26  N   UNL     1      35.454 -24.674 -12.569  0.00  0.00    -0.062 NA
ATOM     27  C   UNL     1      36.442 -23.802 -12.790  0.00  0.00    +0.171 C 
ATOM     28  C   UNL     1      37.006 -23.323 -11.596  0.00  0.00    +0.081 C 
ATOM     29  C   UNL     1      36.293 -23.964 -10.618  0.00  0.00    +0.215 C 
ATOM     30  H   UNL     1      37.638 -22.731 -14.057  0.00  0.00    +0.148 HD
ENDBRANCH  23  25
ENDBRANCH  20  23
ENDBRANCH   4  19
TORSDOF 4
ENDMDL
MODEL 6
REMARK VINA RESULT:     -11.2      9.511     14.213
REMARK  Name = 25184541
REMARK  4 active torsions:
REMARK  status: ('A' for Active; 'I' for Inactive)
REMARK    1  A    between atoms: C_4  and  N_19
REMARK    2  A    between atoms: C_5  and  N_11
REMARK    3  A    between atoms: C_20  and  C_23
REMARK    4  A    between atoms: C_23  and  N_25
REMARK                            x       y       z     vdW  Elec       q    Type
REMARK                         _______ _______ _______ _____ _____    ______ ____
ROOT
ATOM      1  F   UNL     1      31.297 -10.749 -20.705  0.00  0.00    -0.200 F 
ATOM      2  F   UNL     1      32.111 -13.164 -21.646  0.00  0.00    -0.200 F 
ATOM      3  F   UNL     1      34.917 -10.988 -24.801  0.00  0.00    -0.203 F 
ATOM      4  C   UNL     1      32.689  -9.629 -22.270  0.00  0.00    +0.089 C 
ATOM      5  C   UNL     1      33.524 -12.109 -23.236  0.00  0.00    +0.110 C 
ATOM      6  C   UNL     1      32.184 -10.802 -21.710  0.00  0.00    +0.182 C 
ATOM      7  C   UNL     1      33.613  -9.696 -23.313  0.00  0.00    +0.048 C 
ATOM      8  C   UNL     1      32.602 -12.042 -22.193  0.00  0.00    +0.184 C 
ATOM      9  C   UNL     1      34.030 -10.935 -23.796  0.00  0.00    +0.157 C 
ENDROOT
BRANCH   5  11
ATOM     10  O   UNL     1      35.076 -17.020 -25.146  0.00  0.00    -0.291 OA
ATOM     11  N   UNL     1      33.947 -13.371 -23.731  0.00  0.00    -0.282 N 
ATOM     12  C   UNL     1      33.567 -13.722 -25.110  0.00  0.00    +0.104 C 
ATOM     13  C   UNL     1      33.468 -15.237 -25.280  0.00  0.00    +0.091 C 
ATOM     14  C   UNL     1      34.836 -14.193 -23.055  0.00  0.00    +0.068 C 
ATOM     15  C   UNL     1      34.657 -15.962 -24.683  0.00  0.00    +0.176 C 
ATOM     16  C   UNL     1      35.252 -15.401 -23.449  0.00  0.00    +0.054 C 
ENDBRANCH   5  11
BRANCH   4  19
ATOM     17  O   UNL     1      31.831  -6.614 -20.417  0.00  0.00    -0.434 OA
ATOM     18  O   UNL     1      32.794  -8.437 -19.473  0.00  0.00    -0.226 OA
ATOM     19  N   UNL     1      32.266  -8.361 -21.778  0.00  0.00    -0.219 N 
ATOM     20  C   UNL     1      31.591  -6.148 -21.752  0.00  0.00    +0.210 C 
ATOM     21  C   UNL     1      31.557  -7.408 -22.590  0.00  0.00    +0.147 C 
ATOM     22  C   UNL     1      32.359  -7.884 -20.473  0.00  0.00    +0.409 C 
BRANCH  20  23
ATOM     23  C   UNL     1      32.711  -5.194 -22.148  0.00  0.00    +0.134 C 
BRANCH  23  25
ATOM     24  O   UNL     1      30.410  -1.786 -23.461  0.00  0.00    -0.349 OA
ATOM     25  N   UNL     1      32.453  -4.651 -23.457  0.00  0.00    -0.312 N 
ATOM     26  N   UNL     1      31.058  -2.792 -22.756  0.00  0.00    -0.062 NA
ATOM     27  C   UNL     1      31.674  -3.526 -23.687  0.00  0.00    +0.171 C 
ATOM     28  C   UNL     1      31.453  -3.037 -24.985  0.00  0.00    +0.081 C 
ATOM     29  C   UNL     1      30.653  -1.942 -24.788  0.00  0.00    +0.215 C 
ATOM     30  H   UNL     1      32.853  -5.105 -24.234  0.00  0.00    +0.148 HD
ENDBRANCH  23  25
ENDBRANCH  20  23
ENDBRANCH   4  19
TORSDOF 4
ENDMDL
MODEL 7
REMARK VINA RESULT:     -11.1      9.559     14.307
REMARK  Name = 25184541
REMARK  4 active torsions:
REMARK  status: ('A' for Active; 'I' for Inactive)
REMARK    1  A    between atoms: C_4  and  N_19
REMARK    2  A    between atoms: C_5  and  N_11
REMARK    3  A    between atoms: C_20  and  C_23
REMARK    4  A    between atoms: C_23  and  N_25
REMARK                            x       y       z     vdW  Elec       q    Type
REMARK                         _______ _______ _______ _____ _____    ______ ____
ROOT
ATOM      1  F   UNL     1      34.014  -8.607 -23.913  0.00  0.00    -0.200 F 
ATOM      2  F   UNL     1      34.830 -11.019 -24.859  0.00  0.00    -0.200 F 
ATOM      3  F   UNL     1      32.181 -13.202 -21.576  0.00  0.00    -0.203 F 
ATOM      4  C   UNL     1      32.679  -9.666 -22.259  0.00  0.00    +0.089 C 
ATOM      5  C   UNL     1      33.518 -12.143 -23.230  0.00  0.00    +0.110 C 
ATOM      6  C   UNL     1      33.563  -9.730 -23.336  0.00  0.00    +0.182 C 
ATOM      7  C   UNL     1      32.214 -10.841 -21.668  0.00  0.00    +0.048 C 
ATOM      8  C   UNL     1      33.982 -10.969 -23.822  0.00  0.00    +0.184 C 
ATOM      9  C   UNL     1      32.634 -12.078 -22.153  0.00  0.00    +0.157 C 
ENDROOT
BRANCH   5  11
ATOM     10  O   UNL     1      35.094 -17.052 -25.126  0.00  0.00    -0.291 OA
ATOM     11  N   UNL     1      33.946 -13.404 -23.722  0.00  0.00    -0.282 N 
ATOM     12  C   UNL     1      33.525 -13.782 -25.082  0.00  0.00    +0.104 C 
ATOM     13  C   UNL     1      33.448 -15.301 -25.227  0.00  0.00    +0.091 C 
ATOM     14  C   UNL     1      34.874 -14.200 -23.067  0.00  0.00    +0.068 C 
ATOM     15  C   UNL     1      34.671 -15.995 -24.663  0.00  0.00    +0.176 C 
ATOM     16  C   UNL     1      35.299 -15.405 -23.459  0.00  0.00    +0.054 C 
ENDBRANCH   5  11
BRANCH   4  19
ATOM     17  O   UNL     1      31.787  -6.671 -20.391  0.00  0.00    -0.434 OA
ATOM     18  O   UNL     1      32.721  -8.509 -19.446  0.00  0.00    -0.226 OA
ATOM     19  N   UNL     1      32.248  -8.403 -21.762  0.00  0.00    -0.219 N 
ATOM     20  C   UNL     1      31.581  -6.187 -21.725  0.00  0.00    +0.210 C 
ATOM     21  C   UNL     1      31.563  -7.437 -22.579  0.00  0.00    +0.147 C 
ATOM     22  C   UNL     1      32.312  -7.942 -20.450  0.00  0.00    +0.409 C 
BRANCH  20  23
ATOM     23  C   UNL     1      32.713  -5.233 -22.082  0.00  0.00    +0.134 C 
BRANCH  23  25
ATOM     24  O   UNL     1      30.475  -1.848 -23.557  0.00  0.00    -0.349 OA
ATOM     25  N   UNL     1      32.515  -4.712 -23.411  0.00  0.00    -0.312 N 
ATOM     26  N   UNL     1      31.090  -2.842 -22.805  0.00  0.00    -0.062 NA
ATOM     27  C   UNL     1      31.748  -3.592 -23.695  0.00  0.00    +0.171 C 
ATOM     28  C   UNL     1      31.586  -3.125 -25.010  0.00  0.00    +0.081 C 
ATOM     29  C   UNL     1      30.778  -2.027 -24.869  0.00  0.00    +0.215 C 
ATOM     30  H   UNL     1      32.950  -5.180 -24.161  0.00  0.00    +0.148 HD
ENDBRANCH  23  25
ENDBRANCH  20  23
ENDBRANCH   4  19
TORSDOF 4
ENDMDL
MODEL 8
REMARK VINA RESULT:     -11.0      2.780      5.107
REMARK  Name = 25184541
REMARK  4 active torsions:
REMARK  status: ('A' for Active; 'I' for Inactive)
REMARK    1  A    between atoms: C_4  and  N_19
REMARK    2  A    between atoms: C_5  and  N_11
REMARK    3  A    between atoms: C_20  and  C_23
REMARK    4  A    between atoms: C_23  and  N_25
REMARK                            x       y       z     vdW  Elec       q    Type
REMARK                         _______ _______ _______ _____ _____    ______ ____
ROOT
ATOM      1  F   UNL     1      37.186 -21.669 -18.195  0.00  0.00    -0.200 F 
ATOM      2  F   UNL     1      37.378 -20.115 -20.414  0.00  0.00    -0.200 F 
ATOM      3  F   UNL     1      32.641 -20.023 -20.758  0.00  0.00    -0.203 F 
ATOM      4  C   UNL     1      34.815 -21.644 -18.337  0.00  0.00    +0.089 C 
ATOM      5  C   UNL     1      35.013 -20.049 -20.617  0.00  0.00    +0.110 C 
ATOM      6  C   UNL     1      36.069 -21.269 -18.820  0.00  0.00    +0.182 C 
ATOM      7  C   UNL     1      33.660 -21.220 -18.994  0.00  0.00    +0.048 C 
ATOM      8  C   UNL     1      36.167 -20.471 -19.960  0.00  0.00    +0.184 C 
ATOM      9  C   UNL     1      33.759 -20.423 -20.134  0.00  0.00    +0.157 C 
ENDROOT
BRANCH   5  11
ATOM     10  O   UNL     1      35.335 -16.863 -25.081  0.00  0.00    -0.291 OA
ATOM     11  N   UNL     1      35.112 -19.239 -21.779  0.00  0.00    -0.282 N 
ATOM     12  C   UNL     1      35.718 -17.904 -21.628  0.00  0.00    +0.104 C 
ATOM     13  C   UNL     1      35.181 -16.938 -22.682  0.00  0.00    +0.091 C 
ATOM     14  C   UNL     1      34.840 -19.705 -23.057  0.00  0.00    +0.068 C 
ATOM     15  C   UNL     1      35.180 -17.545 -24.070  0.00  0.00    +0.176 C 
ATOM     16  C   UNL     1      34.887 -18.991 -24.186  0.00  0.00    +0.054 C 
ENDBRANCH   5  11
BRANCH   4  19
ATOM     17  O   UNL     1      33.981 -23.951 -15.647  0.00  0.00    -0.434 OA
ATOM     18  O   UNL     1      32.711 -23.676 -17.505  0.00  0.00    -0.226 OA
ATOM     19  N   UNL     1      34.711 -22.458 -17.173  0.00  0.00    -0.219 N 
ATOM     20  C   UNL     1      35.302 -23.573 -15.234  0.00  0.00    +0.210 C 
ATOM     21  C   UNL     1      35.618 -22.346 -16.062  0.00  0.00    +0.147 C 
ATOM     22  C   UNL     1      33.713 -23.378 -16.869  0.00  0.00    +0.409 C 
BRANCH  20  23
ATOM     23  C   UNL     1      36.250 -24.736 -15.498  0.00  0.00    +0.134 C 
BRANCH  23  25
ATOM     24  O   UNL     1      39.725 -27.143 -14.618  0.00  0.00    -0.349 OA
ATOM     25  N   UNL     1      37.583 -24.388 -15.074  0.00  0.00    -0.312 N 
ATOM     26  N   UNL     1      38.474 -26.643 -14.960  0.00  0.00    -0.062 NA
ATOM     27  C   UNL     1      38.585 -25.317 -14.836  0.00  0.00    +0.171 C 
ATOM     28  C   UNL     1      39.869 -24.926 -14.423  0.00  0.00    +0.081 C 
ATOM     29  C   UNL     1      40.548 -26.109 -14.300  0.00  0.00    +0.215 C 
ATOM     30  H   UNL     1      37.794 -23.435 -14.944  0.00  0.00    +0.148 HD
ENDBRANCH  23  25
ENDBRANCH  20  23
ENDBRANCH   4  19
TORSDOF 4
ENDMDL
MODEL 9
REMARK VINA RESULT:     -11.0      2.616      3.614
REMARK  Name = 25184541
REMARK  4 active torsions:
REMARK  status: ('A' for Active; 'I' for Inactive)
REMARK    1  A    between atoms: C_4  and  N_19
REMARK    2  A    between atoms: C_5  and  N_11
REMARK    3  A    between atoms: C_20  and  C_23
REMARK    4  A    between atoms: C_23  and  N_25
REMARK                            x       y       z     vdW  Elec       q    Type
REMARK                         _______ _______ _______ _____ _____    ______ ____
ROOT
ATOM      1  F   UNL     1      33.069 -21.625 -18.724  0.00  0.00    -0.200 F 
ATOM      2  F   UNL     1      32.836 -19.915 -20.821  0.00  0.00    -0.200 F 
ATOM      3  F   UNL     1      37.552 -19.355 -20.887  0.00  0.00    -0.203 F 
ATOM      4  C   UNL     1      35.430 -21.369 -18.729  0.00  0.00    +0.089 C 
ATOM      5  C   UNL     1      35.190 -19.611 -20.881  0.00  0.00    +0.110 C 
ATOM      6  C   UNL     1      34.170 -21.071 -19.250  0.00  0.00    +0.182 C 
ATOM      7  C   UNL     1      36.569 -20.788 -19.285  0.00  0.00    +0.048 C 
ATOM      8  C   UNL     1      34.051 -20.192 -20.327  0.00  0.00    +0.184 C 
ATOM      9  C   UNL     1      36.449 -19.909 -20.361  0.00  0.00    +0.157 C 
ENDROOT
BRANCH   5  11
ATOM     10  O   UNL     1      34.777 -16.190 -25.160  0.00  0.00    -0.291 OA
ATOM     11  N   UNL     1      35.069 -18.714 -21.975  0.00  0.00    -0.282 N 
ATOM     12  C   UNL     1      34.333 -19.185 -23.162  0.00  0.00    +0.104 C 
ATOM     13  C   UNL     1      34.825 -18.479 -24.425  0.00  0.00    +0.091 C 
ATOM     14  C   UNL     1      35.444 -17.380 -21.911  0.00  0.00    +0.068 C 
ATOM     15  C   UNL     1      34.949 -16.982 -24.236  0.00  0.00    +0.176 C 
ATOM     16  C   UNL     1      35.383 -16.492 -22.908  0.00  0.00    +0.054 C 
ENDBRANCH   5  11
BRANCH   4  19
ATOM     17  O   UNL     1      36.393 -23.457 -15.906  0.00  0.00    -0.434 OA
ATOM     18  O   UNL     1      37.820 -22.058 -16.979  0.00  0.00    -0.226 OA
ATOM     19  N   UNL     1      35.555 -22.266 -17.631  0.00  0.00    -0.219 N 
ATOM     20  C   UNL     1      34.974 -23.662 -15.879  0.00  0.00    +0.210 C 
ATOM     21  C   UNL     1      34.494 -23.145 -17.218  0.00  0.00    +0.147 C 
ATOM     22  C   UNL     1      36.692 -22.520 -16.869  0.00  0.00    +0.409 C 
BRANCH  20  23
ATOM     23  C   UNL     1      34.390 -22.899 -14.697  0.00  0.00    +0.134 C 
BRANCH  23  25
ATOM     24  O   UNL     1      35.089 -24.909 -10.941  0.00  0.00    -0.349 OA
ATOM     25  N   UNL     1      35.396 -22.723 -13.681  0.00  0.00    -0.312 N 
ATOM     26  N   UNL     1      34.624 -24.459 -12.170  0.00  0.00    -0.062 NA
ATOM     27  C   UNL     1      35.461 -23.477 -12.519  0.00  0.00    +0.171 C 
ATOM     28  C   UNL     1      36.463 -23.265 -11.558  0.00  0.00    +0.081 C 
ATOM     29  C   UNL     1      36.185 -24.190 -10.586  0.00  0.00    +0.215 C 
ATOM     30  H   UNL     1      36.076 -22.024 -13.819  0.00  0.00    +0.148 HD
ENDBRANCH  23  25
ENDBRANCH  20  23
ENDBRANCH   4  19
TORSDOF 4
ENDMDL
