MODEL 1
REMARK VINA RESULT:     -11.6      0.000      0.000
REMARK  Name = 448903
REMARK  11 active torsions:
REMARK  status: ('A' for Active; 'I' for Inactive)
REMARK    1  A    between atoms: N_1  and  C_22
REMARK    2  A    between atoms: C_8  and  N_11
REMARK    3  A    between atoms: C_12  and  C_14
REMARK    4  A    between atoms: C_14  and  C_15
REMARK    5  A    between atoms: C_15  and  C_16
REMARK    6  A    between atoms: C_22  and  C_23
REMARK    7  A    between atoms: C_23  and  C_24
REMARK    8  A    between atoms: C_24  and  N_25
REMARK    9  A    between atoms: C_24  and  C_35
REMARK   10  A    between atoms: C_29  and  C_32
REMARK   11  A    between atoms: C_35  and  O_36
REMARK                            x       y       z     vdW  Elec       q    Type
REMARK                         _______ _______ _______ _____ _____    ______ ____
ROOT
ATOM      1  N   UNL     1      32.673 -24.590 -13.887  0.00  0.00    -0.286 N 
ATOM      2  C   UNL     1      32.091 -23.855 -14.895  0.00  0.00    +0.053 C 
ATOM      3  C   UNL     1      30.708 -23.933 -14.712  0.00  0.00    +0.015 C 
ATOM      4  C   UNL     1      31.710 -25.126 -13.076  0.00  0.00    +0.065 C 
ATOM      5  C   UNL     1      30.483 -24.737 -13.560  0.00  0.00    +0.017 C 
ATOM      6  C   UNL     1      32.675 -23.135 -15.943  0.00  0.00    +0.029 C 
ATOM      7  C   UNL     1      29.866 -23.260 -15.620  0.00  0.00    +0.003 C 
ATOM      8  C   UNL     1      31.820 -22.475 -16.831  0.00  0.00    +0.052 C 
ATOM      9  C   UNL     1      30.436 -22.535 -16.673  0.00  0.00    +0.015 C 
ENDROOT
BRANCH   8  11
ATOM     10  O   UNL     1      33.915 -23.231 -18.850  0.00  0.00    -0.275 OA
ATOM     11  N   UNL     1      32.362 -21.745 -17.889  0.00  0.00    -0.284 N 
ATOM     12  C   UNL     1      33.332 -22.151 -18.814  0.00  0.00    +0.226 C 
ATOM     13  H   UNL     1      32.020 -20.828 -17.999  0.00  0.00    +0.155 HD
BRANCH  12  14
ATOM     14  C   UNL     1      33.665 -21.064 -19.824  0.00  0.00    +0.090 C 
BRANCH  14  15
ATOM     15  C   UNL     1      35.152 -20.709 -19.803  0.00  0.00    +0.036 C 
BRANCH  15  16
ATOM     16  C   UNL     1      35.558 -19.762 -20.906  0.00  0.00    -0.022 C 
ATOM     17  C   UNL     1      34.639 -19.408 -21.893  0.00  0.00    -0.004 C 
ATOM     18  C   UNL     1      36.851 -19.241 -20.937  0.00  0.00    -0.004 C 
ATOM     19  C   UNL     1      35.014 -18.533 -22.913  0.00  0.00    -0.000 C 
ATOM     20  C   UNL     1      37.226 -18.366 -21.957  0.00  0.00    -0.000 C 
ATOM     21  C   UNL     1      36.308 -18.012 -22.945  0.00  0.00    -0.000 C 
ENDBRANCH  15  16
ENDBRANCH  14  15
ENDBRANCH  12  14
ENDBRANCH   8  11
BRANCH   1  22
ATOM     22  C   UNL     1      34.096 -24.778 -13.698  0.00  0.00    +0.097 C 
BRANCH  22  23
ATOM     23  C   UNL     1      34.679 -24.022 -12.496  0.00  0.00    +0.040 C 
BRANCH  23  24
ATOM     24  C   UNL     1      35.973 -24.627 -11.906  0.00  0.00    +0.091 C 
BRANCH  24  25
ATOM     25  N   UNL     1      37.120 -24.575 -12.828  0.00  0.00    -0.246 NA
ATOM     26  N   UNL     1      38.621 -23.911 -14.324  0.00  0.00    -0.251 NA
ATOM     27  C   UNL     1      38.037 -25.572 -13.052  0.00  0.00    +0.125 C 
ATOM     28  C   UNL     1      37.501 -23.589 -13.609  0.00  0.00    +0.201 C 
ATOM     29  C   UNL     1      38.978 -25.183 -13.977  0.00  0.00    +0.124 C 
BRANCH  29  32
ATOM     30  O   UNL     1      41.263 -25.444 -14.524  0.00  0.00    -0.269 OA
ATOM     31  N   UNL     1      39.879 -27.199 -14.971  0.00  0.00    -0.324 N 
ATOM     32  C   UNL     1      40.095 -25.901 -14.493  0.00  0.00    +0.257 C 
ATOM     33  H   UNL     1      40.630 -27.721 -15.334  0.00  0.00    +0.145 HD
ATOM     34  H   UNL     1      38.975 -27.590 -14.944  0.00  0.00    +0.145 HD
ENDBRANCH  29  32
ENDBRANCH  24  25
BRANCH  24  35
ATOM     35  C   UNL     1      36.326 -23.950 -10.571  0.00  0.00    +0.153 C 
BRANCH  35  36
ATOM     36  O   UNL     1      35.626 -24.590  -9.510  0.00  0.00    -0.381 OA
ATOM     37  H   UNL     1      34.735 -24.828  -9.808  0.00  0.00    +0.210 HD
ENDBRANCH  35  36
ENDBRANCH  24  35
ENDBRANCH  23  24
ENDBRANCH  22  23
ENDBRANCH   1  22
TORSDOF 11
ENDMDL
MODEL 2
REMARK VINA RESULT:     -11.4      3.032      6.948
REMARK  Name = 448903
REMARK  11 active torsions:
REMARK  status: ('A' for Active; 'I' for Inactive)
REMARK    1  A    between atoms: N_1  and  C_22
REMARK    2  A    between atoms: C_8  and  N_11
REMARK    3  A    between atoms: C_12  and  C_14
REMARK    4  A    between atoms: C_14  and  C_15
REMARK    5  A    between atoms: C_15  and  C_16
REMARK    6  A    between atoms: C_22  and  C_23
REMARK    7  A    between atoms: C_23  and  C_24
REMARK    8  A    between atoms: C_24  and  N_25
REMARK    9  A    between atoms: C_24  and  C_35
REMARK   10  A    between atoms: C_29  and  C_32
REMARK   11  A    between atoms: C_35  and  O_36
REMARK                            x       y       z     vdW  Elec       q    Type
REMARK                         _______ _______ _______ _____ _____    ______ ____
ROOT
ATOM      1  N   UNL     1      34.680 -23.696 -15.014  0.00  0.00    -0.286 N 
ATOM      2  C   UNL     1      35.333 -22.941 -15.962  0.00  0.00    +0.053 C 
ATOM      3  C   UNL     1      36.683 -22.910 -15.604  0.00  0.00    +0.015 C 
ATOM      4  C   UNL     1      35.568 -24.144 -14.074  0.00  0.00    +0.065 C 
ATOM      5  C   UNL     1      36.815 -23.675 -14.411  0.00  0.00    +0.017 C 
ATOM      6  C   UNL     1      34.837 -22.288 -17.097  0.00  0.00    +0.029 C 
ATOM      7  C   UNL     1      37.584 -22.194 -16.418  0.00  0.00    +0.003 C 
ATOM      8  C   UNL     1      35.750 -21.585 -17.889  0.00  0.00    +0.052 C 
ATOM      9  C   UNL     1      37.102 -21.538 -17.556  0.00  0.00    +0.015 C 
ENDROOT
BRANCH   8  11
ATOM     10  O   UNL     1      33.116 -21.757 -19.329  0.00  0.00    -0.275 OA
ATOM     11  N   UNL     1      35.297 -20.921 -19.030  0.00  0.00    -0.284 N 
ATOM     12  C   UNL     1      34.049 -21.028 -19.656  0.00  0.00    +0.226 C 
ATOM     13  H   UNL     1      35.936 -20.300 -19.449  0.00  0.00    +0.155 HD
BRANCH  12  14
ATOM     14  C   UNL     1      33.935 -20.139 -20.884  0.00  0.00    +0.090 C 
BRANCH  14  15
ATOM     15  C   UNL     1      35.233 -19.375 -21.151  0.00  0.00    +0.036 C 
BRANCH  15  16
ATOM     16  C   UNL     1      35.148 -18.446 -22.338  0.00  0.00    -0.022 C 
ATOM     17  C   UNL     1      35.563 -17.121 -22.217  0.00  0.00    -0.004 C 
ATOM     18  C   UNL     1      34.654 -18.915 -23.556  0.00  0.00    -0.004 C 
ATOM     19  C   UNL     1      35.484 -16.262 -23.314  0.00  0.00    -0.000 C 
ATOM     20  C   UNL     1      34.575 -18.056 -24.652  0.00  0.00    -0.000 C 
ATOM     21  C   UNL     1      34.990 -16.730 -24.531  0.00  0.00    -0.000 C 
ENDBRANCH  15  16
ENDBRANCH  14  15
ENDBRANCH  12  14
ENDBRANCH   8  11
BRANCH   1  22
ATOM     22  C   UNL     1      33.262 -23.985 -15.000  0.00  0.00    +0.097 C 
BRANCH  22  23
ATOM     23  C   UNL     1      32.376 -22.783 -14.647  0.00  0.00    +0.040 C 
BRANCH  23  24
ATOM     24  C   UNL     1      30.954 -23.137 -14.154  0.00  0.00    +0.091 C 
BRANCH  24  25
ATOM     25  N   UNL     1      29.901 -22.851 -15.143  0.00  0.00    -0.246 NA
ATOM     26  N   UNL     1      28.774 -22.597 -17.039  0.00  0.00    -0.251 NA
ATOM     27  C   UNL     1      28.625 -22.421 -14.879  0.00  0.00    +0.125 C 
ATOM     28  C   UNL     1      29.958 -22.948 -16.452  0.00  0.00    +0.201 C 
ATOM     29  C   UNL     1      27.906 -22.255 -16.040  0.00  0.00    +0.124 C 
BRANCH  29  32
ATOM     30  O   UNL     1      25.651 -22.008 -15.375  0.00  0.00    -0.269 OA
ATOM     31  N   UNL     1      26.238 -21.151 -17.404  0.00  0.00    -0.324 N 
ATOM     32  C   UNL     1      26.559 -21.829 -16.222  0.00  0.00    +0.257 C 
ATOM     33  H   UNL     1      25.315 -20.843 -17.560  0.00  0.00    +0.145 HD
ATOM     34  H   UNL     1      26.933 -20.983 -18.080  0.00  0.00    +0.145 HD
ENDBRANCH  29  32
ENDBRANCH  24  25
BRANCH  24  35
ATOM     35  C   UNL     1      30.887 -24.607 -13.708  0.00  0.00    +0.153 C 
BRANCH  35  36
ATOM     36  O   UNL     1      30.560 -24.673 -12.324  0.00  0.00    -0.381 OA
ATOM     37  H   UNL     1      30.300 -23.792 -12.011  0.00  0.00    +0.210 HD
ENDBRANCH  35  36
ENDBRANCH  24  35
ENDBRANCH  23  24
ENDBRANCH  22  23
ENDBRANCH   1  22
TORSDOF 11
ENDMDL
MODEL 3
REMARK VINA RESULT:     -11.3      3.718      7.498
REMARK  Name = 448903
REMARK  11 active torsions:
REMARK  status: ('A' for Active; 'I' for Inactive)
REMARK    1  A    between atoms: N_1  and  C_22
REMARK    2  A    between atoms: C_8  and  N_11
REMARK    3  A    between atoms: C_12  and  C_14
REMARK    4  A    between atoms: C_14  and  C_15
REMARK    5  A    between atoms: C_15  and  C_16
REMARK    6  A    between atoms: C_22  and  C_23
REMARK    7  A    between atoms: C_23  and  C_24
REMARK    8  A    between atoms: C_24  and  N_25
REMARK    9  A    between atoms: C_24  and  C_35
REMARK   10  A    between atoms: C_29  and  C_32
REMARK   11  A    between atoms: C_35  and  O_36
REMARK                            x       y       z     vdW  Elec       q    Type
REMARK                         _______ _______ _______ _____ _____    ______ ____
ROOT
ATOM      1  N   UNL     1      33.735 -23.124 -16.187  0.00  0.00    -0.286 N 
ATOM      2  C   UNL     1      34.506 -22.481 -17.129  0.00  0.00    +0.053 C 
ATOM      3  C   UNL     1      35.814 -22.454 -16.638  0.00  0.00    +0.015 C 
ATOM      4  C   UNL     1      34.507 -23.504 -15.123  0.00  0.00    +0.065 C 
ATOM      5  C   UNL     1      35.798 -23.104 -15.372  0.00  0.00    +0.017 C 
ATOM      6  C   UNL     1      34.150 -21.926 -18.363  0.00  0.00    +0.029 C 
ATOM      7  C   UNL     1      36.817 -21.844 -17.417  0.00  0.00    +0.003 C 
ATOM      8  C   UNL     1      35.163 -21.327 -19.119  0.00  0.00    +0.052 C 
ATOM      9  C   UNL     1      36.477 -21.286 -18.655  0.00  0.00    +0.015 C 
ENDROOT
BRANCH   8  11
ATOM     10  O   UNL     1      36.214 -18.846 -20.454  0.00  0.00    -0.275 OA
ATOM     11  N   UNL     1      34.852 -20.764 -20.357  0.00  0.00    -0.284 N 
ATOM     12  C   UNL     1      35.383 -19.607 -20.941  0.00  0.00    +0.226 C 
ATOM     13  H   UNL     1      34.171 -21.239 -20.887  0.00  0.00    +0.155 HD
BRANCH  12  14
ATOM     14  C   UNL     1      34.785 -19.317 -22.309  0.00  0.00    +0.090 C 
BRANCH  14  15
ATOM     15  C   UNL     1      35.718 -18.457 -23.162  0.00  0.00    +0.036 C 
BRANCH  15  16
ATOM     16  C   UNL     1      35.210 -17.052 -23.373  0.00  0.00    -0.022 C 
ATOM     17  C   UNL     1      34.628 -16.695 -24.588  0.00  0.00    -0.004 C 
ATOM     18  C   UNL     1      35.322 -16.109 -22.350  0.00  0.00    -0.004 C 
ATOM     19  C   UNL     1      34.159 -15.395 -24.783  0.00  0.00    -0.000 C 
ATOM     20  C   UNL     1      34.853 -14.810 -22.544  0.00  0.00    -0.000 C 
ATOM     21  C   UNL     1      34.272 -14.453 -23.761  0.00  0.00    -0.000 C 
ENDBRANCH  15  16
ENDBRANCH  14  15
ENDBRANCH  12  14
ENDBRANCH   8  11
BRANCH   1  22
ATOM     22  C   UNL     1      32.312 -23.370 -16.292  0.00  0.00    +0.097 C 
BRANCH  22  23
ATOM     23  C   UNL     1      31.472 -22.703 -15.194  0.00  0.00    +0.040 C 
BRANCH  23  24
ATOM     24  C   UNL     1      30.155 -23.430 -14.843  0.00  0.00    +0.091 C 
BRANCH  24  25
ATOM     25  N   UNL     1      29.106 -23.275 -15.865  0.00  0.00    -0.246 NA
ATOM     26  N   UNL     1      27.651 -23.662 -17.498  0.00  0.00    -0.251 NA
ATOM     27  C   UNL     1      28.412 -22.129 -16.160  0.00  0.00    +0.125 C 
ATOM     28  C   UNL     1      28.624 -24.180 -16.688  0.00  0.00    +0.201 C 
ATOM     29  C   UNL     1      27.504 -22.343 -17.170  0.00  0.00    +0.124 C 
BRANCH  29  32
ATOM     30  O   UNL     1      26.370 -20.277 -17.349  0.00  0.00    -0.269 OA
ATOM     31  N   UNL     1      25.916 -21.854 -18.931  0.00  0.00    -0.324 N 
ATOM     32  C   UNL     1      26.590 -21.436 -17.777  0.00  0.00    +0.257 C 
ATOM     33  H   UNL     1      25.278 -21.250 -19.375  0.00  0.00    +0.145 HD
ATOM     34  H   UNL     1      26.081 -22.752 -19.300  0.00  0.00    +0.145 HD
ENDBRANCH  29  32
ENDBRANCH  24  25
BRANCH  24  35
ATOM     35  C   UNL     1      30.416 -24.920 -14.563  0.00  0.00    +0.153 C 
BRANCH  35  36
ATOM     36  O   UNL     1      29.268 -25.503 -13.958  0.00  0.00    -0.381 OA
ATOM     37  H   UNL     1      29.544 -26.070 -13.220  0.00  0.00    +0.210 HD
ENDBRANCH  35  36
ENDBRANCH  24  35
ENDBRANCH  23  24
ENDBRANCH  22  23
ENDBRANCH   1  22
TORSDOF 11
ENDMDL
MODEL 4
REMARK VINA RESULT:     -11.0      2.500      3.636
REMARK  Name = 448903
REMARK  11 active torsions:
REMARK  status: ('A' for Active; 'I' for Inactive)
REMARK    1  A    between atoms: N_1  and  C_22
REMARK    2  A    between atoms: C_8  and  N_11
REMARK    3  A    between atoms: C_12  and  C_14
REMARK    4  A    between atoms: C_14  and  C_15
REMARK    5  A    between atoms: C_15  and  C_16
REMARK    6  A    between atoms: C_22  and  C_23
REMARK    7  A    between atoms: C_23  and  C_24
REMARK    8  A    between atoms: C_24  and  N_25
REMARK    9  A    between atoms: C_24  and  C_35
REMARK   10  A    between atoms: C_29  and  C_32
REMARK   11  A    between atoms: C_35  and  O_36
REMARK                            x       y       z     vdW  Elec       q    Type
REMARK                         _______ _______ _______ _____ _____    ______ ____
ROOT
ATOM      1  N   UNL     1      36.020 -23.098 -15.783  0.00  0.00    -0.286 N 
ATOM      2  C   UNL     1      35.511 -22.510 -16.919  0.00  0.00    +0.053 C 
ATOM      3  C   UNL     1      34.158 -22.852 -16.985  0.00  0.00    +0.015 C 
ATOM      4  C   UNL     1      35.040 -23.795 -15.131  0.00  0.00    +0.065 C 
ATOM      5  C   UNL     1      33.875 -23.662 -15.850  0.00  0.00    +0.017 C 
ATOM      6  C   UNL     1      36.137 -21.712 -17.882  0.00  0.00    +0.029 C 
ATOM      7  C   UNL     1      33.391 -22.374 -18.067  0.00  0.00    +0.003 C 
ATOM      8  C   UNL     1      35.355 -21.249 -18.945  0.00  0.00    +0.052 C 
ATOM      9  C   UNL     1      34.003 -21.574 -19.037  0.00  0.00    +0.015 C 
ENDROOT
BRANCH   8  11
ATOM     10  O   UNL     1      34.101 -19.641 -21.155  0.00  0.00    -0.275 OA
ATOM     11  N   UNL     1      35.940 -20.448 -19.927  0.00  0.00    -0.284 N 
ATOM     12  C   UNL     1      35.307 -19.705 -20.931  0.00  0.00    +0.226 C 
ATOM     13  H   UNL     1      36.924 -20.399 -19.913  0.00  0.00    +0.155 HD
BRANCH  12  14
ATOM     14  C   UNL     1      36.293 -18.957 -21.814  0.00  0.00    +0.090 C 
BRANCH  14  15
ATOM     15  C   UNL     1      35.729 -18.718 -23.215  0.00  0.00    +0.036 C 
BRANCH  15  16
ATOM     16  C   UNL     1      35.253 -17.302 -23.435  0.00  0.00    -0.022 C 
ATOM     17  C   UNL     1      34.624 -16.956 -24.629  0.00  0.00    -0.004 C 
ATOM     18  C   UNL     1      35.443 -16.341 -22.441  0.00  0.00    -0.004 C 
ATOM     19  C   UNL     1      34.185 -15.647 -24.833  0.00  0.00    -0.000 C 
ATOM     20  C   UNL     1      35.004 -15.033 -22.645  0.00  0.00    -0.000 C 
ATOM     21  C   UNL     1      34.375 -14.686 -23.841  0.00  0.00    -0.000 C 
ENDBRANCH  15  16
ENDBRANCH  14  15
ENDBRANCH  12  14
ENDBRANCH   8  11
BRANCH   1  22
ATOM     22  C   UNL     1      37.392 -23.002 -15.329  0.00  0.00    +0.097 C 
BRANCH  22  23
ATOM     23  C   UNL     1      37.555 -23.011 -13.804  0.00  0.00    +0.040 C 
BRANCH  23  24
ATOM     24  C   UNL     1      37.889 -24.389 -13.188  0.00  0.00    +0.091 C 
BRANCH  24  25
ATOM     25  N   UNL     1      38.932 -25.125 -13.923  0.00  0.00    -0.246 NA
ATOM     26  N   UNL     1      40.855 -25.732 -14.853  0.00  0.00    -0.251 NA
ATOM     27  C   UNL     1      38.788 -26.332 -14.560  0.00  0.00    +0.125 C 
ATOM     28  C   UNL     1      40.188 -24.791 -14.117  0.00  0.00    +0.201 C 
ATOM     29  C   UNL     1      39.968 -26.729 -15.145  0.00  0.00    +0.124 C 
BRANCH  29  32
ATOM     30  O   UNL     1      41.086 -28.775 -15.534  0.00  0.00    -0.269 OA
ATOM     31  N   UNL     1      39.565 -28.107 -17.095  0.00  0.00    -0.324 N 
ATOM     32  C   UNL     1      40.259 -27.904 -15.896  0.00  0.00    +0.257 C 
ATOM     33  H   UNL     1      39.744 -28.909 -17.637  0.00  0.00    +0.145 HD
ATOM     34  H   UNL     1      38.899 -27.448 -17.396  0.00  0.00    +0.145 HD
ENDBRANCH  29  32
ENDBRANCH  24  25
BRANCH  24  35
ATOM     35  C   UNL     1      38.280 -24.240 -11.708  0.00  0.00    +0.153 C 
BRANCH  35  36
ATOM     36  O   UNL     1      38.613 -22.884 -11.435  0.00  0.00    -0.381 OA
ATOM     37  H   UNL     1      39.537 -22.831 -11.142  0.00  0.00    +0.210 HD
ENDBRANCH  35  36
ENDBRANCH  24  35
ENDBRANCH  23  24
ENDBRANCH  22  23
ENDBRANCH   1  22
TORSDOF 11
ENDMDL
MODEL 5
REMARK VINA RESULT:     -11.0      2.758      6.245
REMARK  Name = 448903
REMARK  11 active torsions:
REMARK  status: ('A' for Active; 'I' for Inactive)
REMARK    1  A    between atoms: N_1  and  C_22
REMARK    2  A    between atoms: C_8  and  N_11
REMARK    3  A    between atoms: C_12  and  C_14
REMARK    4  A    between atoms: C_14  and  C_15
REMARK    5  A    between atoms: C_15  and  C_16
REMARK    6  A    between atoms: C_22  and  C_23
REMARK    7  A    between atoms: C_23  and  C_24
REMARK    8  A    between atoms: C_24  and  N_25
REMARK    9  A    between atoms: C_24  and  C_35
REMARK   10  A    between atoms: C_29  and  C_32
REMARK   11  A    between atoms: C_35  and  O_36
REMARK                            x       y       z     vdW  Elec       q    Type
REMARK                         _______ _______ _______ _____ _____    ______ ____
ROOT
ATOM      1  N   UNL     1      34.522 -22.033 -18.250  0.00  0.00    -0.286 N 
ATOM      2  C   UNL     1      35.048 -21.159 -19.175  0.00  0.00    +0.053 C 
ATOM      3  C   UNL     1      36.401 -21.000 -18.864  0.00  0.00    +0.015 C 
ATOM      4  C   UNL     1      35.491 -22.431 -17.371  0.00  0.00    +0.065 C 
ATOM      5  C   UNL     1      36.666 -21.810 -17.724  0.00  0.00    +0.017 C 
ATOM      6  C   UNL     1      34.438 -20.503 -20.249  0.00  0.00    +0.029 C 
ATOM      7  C   UNL     1      37.185 -20.145 -19.665  0.00  0.00    +0.003 C 
ATOM      8  C   UNL     1      35.236 -19.661 -21.030  0.00  0.00    +0.052 C 
ATOM      9  C   UNL     1      36.588 -19.484 -20.745  0.00  0.00    +0.015 C 
ENDROOT
BRANCH   8  11
ATOM     10  O   UNL     1      35.600 -20.064 -23.987  0.00  0.00    -0.275 OA
ATOM     11  N   UNL     1      34.666 -18.989 -22.113  0.00  0.00    -0.284 N 
ATOM     12  C   UNL     1      34.860 -19.227 -23.479  0.00  0.00    +0.226 C 
ATOM     13  H   UNL     1      34.050 -18.255 -21.888  0.00  0.00    +0.155 HD
BRANCH  12  14
ATOM     14  C   UNL     1      34.058 -18.278 -24.356  0.00  0.00    +0.090 C 
BRANCH  14  15
ATOM     15  C   UNL     1      34.914 -17.114 -24.858  0.00  0.00    +0.036 C 
BRANCH  15  16
ATOM     16  C   UNL     1      34.579 -15.797 -24.200  0.00  0.00    -0.022 C 
ATOM     17  C   UNL     1      33.794 -14.861 -24.871  0.00  0.00    -0.004 C 
ATOM     18  C   UNL     1      35.054 -15.518 -22.918  0.00  0.00    -0.004 C 
ATOM     19  C   UNL     1      33.484 -13.644 -24.263  0.00  0.00    -0.000 C 
ATOM     20  C   UNL     1      34.745 -14.301 -22.309  0.00  0.00    -0.000 C 
ATOM     21  C   UNL     1      33.960 -13.364 -22.982  0.00  0.00    -0.000 C 
ENDBRANCH  15  16
ENDBRANCH  14  15
ENDBRANCH  12  14
ENDBRANCH   8  11
BRANCH   1  22
ATOM     22  C   UNL     1      33.145 -22.476 -18.202  0.00  0.00    +0.097 C 
BRANCH  22  23
ATOM     23  C   UNL     1      32.458 -22.258 -16.847  0.00  0.00    +0.040 C 
BRANCH  23  24
ATOM     24  C   UNL     1      31.803 -23.516 -16.233  0.00  0.00    +0.091 C 
BRANCH  24  25
ATOM     25  N   UNL     1      32.363 -23.892 -14.925  0.00  0.00    -0.246 NA
ATOM     26  N   UNL     1      32.630 -24.728 -12.884  0.00  0.00    -0.251 NA
ATOM     27  C   UNL     1      33.618 -23.598 -14.455  0.00  0.00    +0.125 C 
ATOM     28  C   UNL     1      31.794 -24.573 -13.955  0.00  0.00    +0.201 C 
ATOM     29  C   UNL     1      33.808 -24.106 -13.191  0.00  0.00    +0.124 C 
BRANCH  29  32
ATOM     30  O   UNL     1      35.094 -24.721 -11.306  0.00  0.00    -0.269 OA
ATOM     31  N   UNL     1      35.984 -23.160 -12.708  0.00  0.00    -0.324 N 
ATOM     32  C   UNL     1      34.951 -24.033 -12.345  0.00  0.00    +0.257 C 
ATOM     33  H   UNL     1      36.788 -23.087 -12.144  0.00  0.00    +0.145 HD
ATOM     34  H   UNL     1      35.906 -22.619 -13.527  0.00  0.00    +0.145 HD
ENDBRANCH  29  32
ENDBRANCH  24  25
BRANCH  24  35
ATOM     35  C   UNL     1      30.279 -23.339 -16.135  0.00  0.00    +0.153 C 
BRANCH  35  36
ATOM     36  O   UNL     1      29.878 -22.200 -16.889  0.00  0.00    -0.381 OA
ATOM     37  H   UNL     1      29.942 -21.407 -16.335  0.00  0.00    +0.210 HD
ENDBRANCH  35  36
ENDBRANCH  24  35
ENDBRANCH  23  24
ENDBRANCH  22  23
ENDBRANCH   1  22
TORSDOF 11
ENDMDL
MODEL 6
REMARK VINA RESULT:     -11.0      3.812      7.708
REMARK  Name = 448903
REMARK  11 active torsions:
REMARK  status: ('A' for Active; 'I' for Inactive)
REMARK    1  A    between atoms: N_1  and  C_22
REMARK    2  A    between atoms: C_8  and  N_11
REMARK    3  A    between atoms: C_12  and  C_14
REMARK    4  A    between atoms: C_14  and  C_15
REMARK    5  A    between atoms: C_15  and  C_16
REMARK    6  A    between atoms: C_22  and  C_23
REMARK    7  A    between atoms: C_23  and  C_24
REMARK    8  A    between atoms: C_24  and  N_25
REMARK    9  A    between atoms: C_24  and  C_35
REMARK   10  A    between atoms: C_29  and  C_32
REMARK   11  A    between atoms: C_35  and  O_36
REMARK                            x       y       z     vdW  Elec       q    Type
REMARK                         _______ _______ _______ _____ _____    ______ ____
ROOT
ATOM      1  N   UNL     1      34.763 -21.766 -18.476  0.00  0.00    -0.286 N 
ATOM      2  C   UNL     1      35.280 -20.881 -19.395  0.00  0.00    +0.053 C 
ATOM      3  C   UNL     1      36.635 -20.722 -19.092  0.00  0.00    +0.015 C 
ATOM      4  C   UNL     1      35.740 -22.171 -17.607  0.00  0.00    +0.065 C 
ATOM      5  C   UNL     1      36.910 -21.542 -17.962  0.00  0.00    +0.017 C 
ATOM      6  C   UNL     1      34.660 -20.217 -20.459  0.00  0.00    +0.029 C 
ATOM      7  C   UNL     1      37.410 -19.856 -19.891  0.00  0.00    +0.003 C 
ATOM      8  C   UNL     1      35.450 -19.365 -21.237  0.00  0.00    +0.052 C 
ATOM      9  C   UNL     1      36.804 -19.187 -20.959  0.00  0.00    +0.015 C 
ENDROOT
BRANCH   8  11
ATOM     10  O   UNL     1      35.406 -20.023 -24.171  0.00  0.00    -0.275 OA
ATOM     11  N   UNL     1      34.871 -18.685 -22.309  0.00  0.00    -0.284 N 
ATOM     12  C   UNL     1      34.868 -19.043 -23.663  0.00  0.00    +0.226 C 
ATOM     13  H   UNL     1      34.405 -17.846 -22.086  0.00  0.00    +0.155 HD
BRANCH  12  14
ATOM     14  C   UNL     1      34.127 -18.038 -24.531  0.00  0.00    +0.090 C 
BRANCH  14  15
ATOM     15  C   UNL     1      35.008 -16.838 -24.882  0.00  0.00    +0.036 C 
BRANCH  15  16
ATOM     16  C   UNL     1      34.582 -15.562 -24.199  0.00  0.00    -0.022 C 
ATOM     17  C   UNL     1      33.762 -14.653 -24.866  0.00  0.00    -0.004 C 
ATOM     18  C   UNL     1      35.007 -15.292 -22.897  0.00  0.00    -0.004 C 
ATOM     19  C   UNL     1      33.369 -13.473 -24.235  0.00  0.00    -0.000 C 
ATOM     20  C   UNL     1      34.614 -14.112 -22.266  0.00  0.00    -0.000 C 
ATOM     21  C   UNL     1      33.794 -13.203 -22.934  0.00  0.00    -0.000 C 
ENDBRANCH  15  16
ENDBRANCH  14  15
ENDBRANCH  12  14
ENDBRANCH   8  11
BRANCH   1  22
ATOM     22  C   UNL     1      33.387 -22.214 -18.422  0.00  0.00    +0.097 C 
BRANCH  22  23
ATOM     23  C   UNL     1      33.139 -23.379 -17.454  0.00  0.00    +0.040 C 
BRANCH  23  24
ATOM     24  C   UNL     1      32.557 -22.977 -16.080  0.00  0.00    +0.091 C 
BRANCH  24  25
ATOM     25  N   UNL     1      31.113 -23.238 -15.953  0.00  0.00    -0.246 NA
ATOM     26  N   UNL     1      29.151 -24.166 -15.483  0.00  0.00    -0.251 NA
ATOM     27  C   UNL     1      30.093 -22.425 -16.377  0.00  0.00    +0.125 C 
ATOM     28  C   UNL     1      30.513 -24.278 -15.419  0.00  0.00    +0.201 C 
ATOM     29  C   UNL     1      28.866 -22.979 -16.096  0.00  0.00    +0.124 C 
BRANCH  29  32
ATOM     30  O   UNL     1      27.058 -22.406 -17.508  0.00  0.00    -0.269 OA
ATOM     31  N   UNL     1      26.784 -22.056 -15.273  0.00  0.00    -0.324 N 
ATOM     32  C   UNL     1      27.560 -22.475 -16.360  0.00  0.00    +0.257 C 
ATOM     33  H   UNL     1      25.877 -21.703 -15.422  0.00  0.00    +0.145 HD
ATOM     34  H   UNL     1      27.146 -22.114 -14.358  0.00  0.00    +0.145 HD
ENDBRANCH  29  32
ENDBRANCH  24  25
BRANCH  24  35
ATOM     35  C   UNL     1      33.329 -23.666 -14.943  0.00  0.00    +0.153 C 
BRANCH  35  36
ATOM     36  O   UNL     1      34.088 -22.700 -14.225  0.00  0.00    -0.381 OA
ATOM     37  H   UNL     1      33.540 -22.315 -13.523  0.00  0.00    +0.210 HD
ENDBRANCH  35  36
ENDBRANCH  24  35
ENDBRANCH  23  24
ENDBRANCH  22  23
ENDBRANCH   1  22
TORSDOF 11
ENDMDL
MODEL 7
REMARK VINA RESULT:     -10.7      9.678     14.197
REMARK  Name = 448903
REMARK  11 active torsions:
REMARK  status: ('A' for Active; 'I' for Inactive)
REMARK    1  A    between atoms: N_1  and  C_22
REMARK    2  A    between atoms: C_8  and  N_11
REMARK    3  A    between atoms: C_12  and  C_14
REMARK    4  A    between atoms: C_14  and  C_15
REMARK    5  A    between atoms: C_15  and  C_16
REMARK    6  A    between atoms: C_22  and  C_23
REMARK    7  A    between atoms: C_23  and  C_24
REMARK    8  A    between atoms: C_24  and  N_25
REMARK    9  A    between atoms: C_24  and  C_35
REMARK   10  A    between atoms: C_29  and  C_32
REMARK   11  A    between atoms: C_35  and  O_36
REMARK                            x       y       z     vdW  Elec       q    Type
REMARK                         _______ _______ _______ _____ _____    ______ ____
ROOT
ATOM      1  N   UNL     1      33.210 -13.002 -22.128  0.00  0.00    -0.286 N 
ATOM      2  C   UNL     1      32.646 -11.807 -21.741  0.00  0.00    +0.053 C 
ATOM      3  C   UNL     1      32.253 -11.952 -20.408  0.00  0.00    +0.015 C 
ATOM      4  C   UNL     1      33.187 -13.893 -21.090  0.00  0.00    +0.065 C 
ATOM      5  C   UNL     1      32.602 -13.273 -20.012  0.00  0.00    +0.017 C 
ATOM      6  C   UNL     1      32.456 -10.622 -22.461  0.00  0.00    +0.029 C 
ATOM      7  C   UNL     1      31.640 -10.861 -19.760  0.00  0.00    +0.003 C 
ATOM      8  C   UNL     1      31.847  -9.553 -21.796  0.00  0.00    +0.052 C 
ATOM      9  C   UNL     1      31.444  -9.669 -20.467  0.00  0.00    +0.015 C 
ENDROOT
BRANCH   8  11
ATOM     10  O   UNL     1      33.235  -6.899 -21.536  0.00  0.00    -0.275 OA
ATOM     11  N   UNL     1      31.640  -8.352 -22.477  0.00  0.00    -0.284 N 
ATOM     12  C   UNL     1      32.327  -7.141 -22.326  0.00  0.00    +0.226 C 
ATOM     13  H   UNL     1      30.919  -8.356 -23.148  0.00  0.00    +0.155 HD
BRANCH  12  14
ATOM     14  C   UNL     1      31.806  -6.056 -23.254  0.00  0.00    +0.090 C 
BRANCH  14  15
ATOM     15  C   UNL     1      32.743  -4.848 -23.293  0.00  0.00    +0.036 C 
BRANCH  15  16
ATOM     16  C   UNL     1      33.566  -4.769 -24.555  0.00  0.00    -0.022 C 
ATOM     17  C   UNL     1      34.777  -5.455 -24.642  0.00  0.00    -0.004 C 
ATOM     18  C   UNL     1      33.115  -4.011 -25.636  0.00  0.00    -0.004 C 
ATOM     19  C   UNL     1      35.539  -5.382 -25.808  0.00  0.00    -0.000 C 
ATOM     20  C   UNL     1      33.876  -3.938 -26.803  0.00  0.00    -0.000 C 
ATOM     21  C   UNL     1      35.088  -4.624 -26.889  0.00  0.00    -0.000 C 
ENDBRANCH  15  16
ENDBRANCH  14  15
ENDBRANCH  12  14
ENDBRANCH   8  11
BRANCH   1  22
ATOM     22  C   UNL     1      33.752 -13.290 -23.439  0.00  0.00    +0.097 C 
BRANCH  22  23
ATOM     23  C   UNL     1      34.924 -14.280 -23.435  0.00  0.00    +0.040 C 
BRANCH  23  24
ATOM     24  C   UNL     1      34.750 -15.508 -24.357  0.00  0.00    +0.091 C 
BRANCH  24  25
ATOM     25  N   UNL     1      34.996 -16.792 -23.680  0.00  0.00    -0.246 NA
ATOM     26  N   UNL     1      35.054 -18.953 -23.169  0.00  0.00    -0.251 NA
ATOM     27  C   UNL     1      35.654 -16.978 -22.490  0.00  0.00    +0.125 C 
ATOM     28  C   UNL     1      34.648 -18.000 -24.063  0.00  0.00    +0.201 C 
ATOM     29  C   UNL     1      35.703 -18.311 -22.153  0.00  0.00    +0.124 C 
BRANCH  29  32
ATOM     30  O   UNL     1      35.723 -19.847 -20.355  0.00  0.00    -0.269 OA
ATOM     31  N   UNL     1      37.567 -18.534 -20.624  0.00  0.00    -0.324 N 
ATOM     32  C   UNL     1      36.285 -18.938 -21.014  0.00  0.00    +0.257 C 
ATOM     33  H   UNL     1      37.997 -18.949 -19.841  0.00  0.00    +0.145 HD
ATOM     34  H   UNL     1      38.039 -17.834 -21.132  0.00  0.00    +0.145 HD
ENDBRANCH  29  32
ENDBRANCH  24  25
BRANCH  24  35
ATOM     35  C   UNL     1      33.357 -15.502 -25.008  0.00  0.00    +0.153 C 
BRANCH  35  36
ATOM     36  O   UNL     1      33.414 -14.824 -26.258  0.00  0.00    -0.381 OA
ATOM     37  H   UNL     1      33.430 -15.474 -26.978  0.00  0.00    +0.210 HD
ENDBRANCH  35  36
ENDBRANCH  24  35
ENDBRANCH  23  24
ENDBRANCH  22  23
ENDBRANCH   1  22
TORSDOF 11
ENDMDL
MODEL 8
REMARK VINA RESULT:     -10.6      7.857     12.380
REMARK  Name = 448903
REMARK  11 active torsions:
REMARK  status: ('A' for Active; 'I' for Inactive)
REMARK    1  A    between atoms: N_1  and  C_22
REMARK    2  A    between atoms: C_8  and  N_11
REMARK    3  A    between atoms: C_12  and  C_14
REMARK    4  A    between atoms: C_14  and  C_15
REMARK    5  A    between atoms: C_15  and  C_16
REMARK    6  A    between atoms: C_22  and  C_23
REMARK    7  A    between atoms: C_23  and  C_24
REMARK    8  A    between atoms: C_24  and  N_25
REMARK    9  A    between atoms: C_24  and  C_35
REMARK   10  A    between atoms: C_29  and  C_32
REMARK   11  A    between atoms: C_35  and  O_36
REMARK                            x       y       z     vdW  Elec       q    Type
REMARK                         _______ _______ _______ _____ _____    ______ ____
ROOT
ATOM      1  N   UNL     1      34.939 -15.976 -23.203  0.00  0.00    -0.286 N 
ATOM      2  C   UNL     1      34.512 -14.800 -23.776  0.00  0.00    +0.053 C 
ATOM      3  C   UNL     1      33.937 -15.129 -25.006  0.00  0.00    +0.015 C 
ATOM      4  C   UNL     1      34.655 -17.033 -24.024  0.00  0.00    +0.065 C 
ATOM      5  C   UNL     1      34.034 -16.542 -25.148  0.00  0.00    +0.017 C 
ATOM      6  C   UNL     1      34.589 -13.484 -23.306  0.00  0.00    +0.029 C 
ATOM      7  C   UNL     1      33.413 -14.095 -25.808  0.00  0.00    +0.003 C 
ATOM      8  C   UNL     1      34.062 -12.475 -24.119  0.00  0.00    +0.052 C 
ATOM      9  C   UNL     1      33.482 -12.774 -25.350  0.00  0.00    +0.015 C 
ENDROOT
BRANCH   8  11
ATOM     10  O   UNL     1      35.420 -10.083 -25.331  0.00  0.00    -0.275 OA
ATOM     11  N   UNL     1      34.117 -11.149 -23.686  0.00  0.00    -0.284 N 
ATOM     12  C   UNL     1      34.756 -10.064 -24.299  0.00  0.00    +0.226 C 
ATOM     13  H   UNL     1      33.648 -10.952 -22.843  0.00  0.00    +0.155 HD
BRANCH  12  14
ATOM     14  C   UNL     1      34.588  -8.771 -23.516  0.00  0.00    +0.090 C 
BRANCH  14  15
ATOM     15  C   UNL     1      35.537  -7.682 -24.016  0.00  0.00    +0.036 C 
BRANCH  15  16
ATOM     16  C   UNL     1      34.842  -6.379 -24.328  0.00  0.00    -0.022 C 
ATOM     17  C   UNL     1      35.257  -5.608 -25.413  0.00  0.00    -0.004 C 
ATOM     18  C   UNL     1      33.781  -5.946 -23.530  0.00  0.00    -0.004 C 
ATOM     19  C   UNL     1      34.614  -4.404 -25.701  0.00  0.00    -0.000 C 
ATOM     20  C   UNL     1      33.138  -4.742 -23.819  0.00  0.00    -0.000 C 
ATOM     21  C   UNL     1      33.555  -3.971 -24.904  0.00  0.00    -0.000 C 
ENDBRANCH  15  16
ENDBRANCH  14  15
ENDBRANCH  12  14
ENDBRANCH   8  11
BRANCH   1  22
ATOM     22  C   UNL     1      35.596 -16.094 -21.918  0.00  0.00    +0.097 C 
BRANCH  22  23
ATOM     23  C   UNL     1      35.297 -17.403 -21.174  0.00  0.00    +0.040 C 
BRANCH  23  24
ATOM     24  C   UNL     1      36.510 -18.341 -20.983  0.00  0.00    +0.091 C 
BRANCH  24  25
ATOM     25  N   UNL     1      36.177 -19.603 -20.302  0.00  0.00    -0.246 NA
ATOM     26  N   UNL     1      36.296 -21.485 -19.128  0.00  0.00    -0.251 NA
ATOM     27  C   UNL     1      34.945 -20.204 -20.248  0.00  0.00    +0.125 C 
ATOM     28  C   UNL     1      36.968 -20.399 -19.617  0.00  0.00    +0.201 C 
ATOM     29  C   UNL     1      34.993 -21.374 -19.525  0.00  0.00    +0.124 C 
BRANCH  29  32
ATOM     30  O   UNL     1      34.087 -23.545 -19.292  0.00  0.00    -0.269 OA
ATOM     31  N   UNL     1      32.718 -21.789 -18.806  0.00  0.00    -0.324 N 
ATOM     32  C   UNL     1      33.953 -22.299 -19.224  0.00  0.00    +0.257 C 
ATOM     33  H   UNL     1      31.980 -22.402 -18.590  0.00  0.00    +0.145 HD
ATOM     34  H   UNL     1      32.589 -20.815 -18.728  0.00  0.00    +0.145 HD
ENDBRANCH  29  32
ENDBRANCH  24  25
BRANCH  24  35
ATOM     35  C   UNL     1      37.194 -18.622 -22.331  0.00  0.00    +0.153 C 
BRANCH  35  36
ATOM     36  O   UNL     1      38.556 -18.213 -22.273  0.00  0.00    -0.381 OA
ATOM     37  H   UNL     1      38.732 -17.797 -21.414  0.00  0.00    +0.210 HD
ENDBRANCH  35  36
ENDBRANCH  24  35
ENDBRANCH  23  24
ENDBRANCH  22  23
ENDBRANCH   1  22
TORSDOF 11
ENDMDL
MODEL 9
REMARK VINA RESULT:     -10.6      3.037      9.025
REMARK  Name = 448903
REMARK  11 active torsions:
REMARK  status: ('A' for Active; 'I' for Inactive)
REMARK    1  A    between atoms: N_1  and  C_22
REMARK    2  A    between atoms: C_8  and  N_11
REMARK    3  A    between atoms: C_12  and  C_14
REMARK    4  A    between atoms: C_14  and  C_15
REMARK    5  A    between atoms: C_15  and  C_16
REMARK    6  A    between atoms: C_22  and  C_23
REMARK    7  A    between atoms: C_23  and  C_24
REMARK    8  A    between atoms: C_24  and  N_25
REMARK    9  A    between atoms: C_24  and  C_35
REMARK   10  A    between atoms: C_29  and  C_32
REMARK   11  A    between atoms: C_35  and  O_36
REMARK                            x       y       z     vdW  Elec       q    Type
REMARK                         _______ _______ _______ _____ _____    ______ ____
ROOT
ATOM      1  N   UNL     1      33.683 -22.781 -17.232  0.00  0.00    -0.286 N 
ATOM      2  C   UNL     1      34.968 -22.571 -16.783  0.00  0.00    +0.053 C 
ATOM      3  C   UNL     1      35.663 -21.933 -17.814  0.00  0.00    +0.015 C 
ATOM      4  C   UNL     1      33.542 -22.298 -18.505  0.00  0.00    +0.065 C 
ATOM      5  C   UNL     1      34.749 -21.767 -18.893  0.00  0.00    +0.017 C 
ATOM      6  C   UNL     1      35.563 -22.893 -15.558  0.00  0.00    +0.029 C 
ATOM      7  C   UNL     1      37.018 -21.600 -17.614  0.00  0.00    +0.003 C 
ATOM      8  C   UNL     1      36.907 -22.552 -15.383  0.00  0.00    +0.052 C 
ATOM      9  C   UNL     1      37.625 -21.915 -16.393  0.00  0.00    +0.015 C 
ENDROOT
BRANCH   8  11
ATOM     10  O   UNL     1      35.752 -23.370 -12.730  0.00  0.00    -0.275 OA
ATOM     11  N   UNL     1      37.538 -22.855 -14.175  0.00  0.00    -0.284 N 
ATOM     12  C   UNL     1      36.951 -23.246 -12.965  0.00  0.00    +0.226 C 
ATOM     13  H   UNL     1      38.520 -22.784 -14.173  0.00  0.00    +0.155 HD
BRANCH  12  14
ATOM     14  C   UNL     1      37.978 -23.487 -11.870  0.00  0.00    +0.090 C 
BRANCH  14  15
ATOM     15  C   UNL     1      38.337 -24.968 -11.749  0.00  0.00    +0.036 C 
BRANCH  15  16
ATOM     16  C   UNL     1      38.814 -25.577 -13.045  0.00  0.00    -0.022 C 
ATOM     17  C   UNL     1      40.121 -25.357 -13.478  0.00  0.00    -0.004 C 
ATOM     18  C   UNL     1      37.948 -26.359 -13.809  0.00  0.00    -0.004 C 
ATOM     19  C   UNL     1      40.562 -25.920 -14.677  0.00  0.00    -0.000 C 
ATOM     20  C   UNL     1      38.389 -26.921 -15.007  0.00  0.00    -0.000 C 
ATOM     21  C   UNL     1      39.696 -26.701 -15.441  0.00  0.00    -0.000 C 
ENDBRANCH  15  16
ENDBRANCH  14  15
ENDBRANCH  12  14
ENDBRANCH   8  11
BRANCH   1  22
ATOM     22  C   UNL     1      32.624 -23.418 -16.478  0.00  0.00    +0.097 C 
BRANCH  22  23
ATOM     23  C   UNL     1      32.214 -22.666 -15.205  0.00  0.00    +0.040 C 
BRANCH  23  24
ATOM     24  C   UNL     1      31.026 -23.282 -14.433  0.00  0.00    +0.091 C 
BRANCH  24  25
ATOM     25  N   UNL     1      29.767 -23.287 -15.197  0.00  0.00    -0.246 NA
ATOM     26  N   UNL     1      28.112 -23.843 -16.569  0.00  0.00    -0.251 NA
ATOM     27  C   UNL     1      28.777 -22.338 -15.151  0.00  0.00    +0.125 C 
ATOM     28  C   UNL     1      29.335 -24.180 -16.059  0.00  0.00    +0.201 C 
ATOM     29  C   UNL     1      27.740 -22.660 -15.994  0.00  0.00    +0.124 C 
BRANCH  29  32
ATOM     30  O   UNL     1      25.572 -21.897 -15.438  0.00  0.00    -0.269 OA
ATOM     31  N   UNL     1      26.402 -21.284 -17.471  0.00  0.00    -0.324 N 
ATOM     32  C   UNL     1      26.526 -21.960 -16.251  0.00  0.00    +0.257 C 
ATOM     33  H   UNL     1      25.576 -20.790 -17.678  0.00  0.00    +0.145 HD
ATOM     34  H   UNL     1      27.141 -21.302 -18.122  0.00  0.00    +0.145 HD
ENDBRANCH  29  32
ENDBRANCH  24  25
BRANCH  24  35
ATOM     35  C   UNL     1      31.369 -24.703 -13.955  0.00  0.00    +0.153 C 
BRANCH  35  36
ATOM     36  O   UNL     1      30.859 -24.903 -12.641  0.00  0.00    -0.381 OA
ATOM     37  H   UNL     1      31.276 -24.273 -12.033  0.00  0.00    +0.210 HD
ENDBRANCH  35  36
ENDBRANCH  24  35
ENDBRANCH  23  24
ENDBRANCH  22  23
ENDBRANCH   1  22
TORSDOF 11
ENDMDL
