MODEL 1
REMARK VINA RESULT:     -12.7      0.000      0.000
REMARK  Name = 11581936
REMARK  5 active torsions:
REMARK  status: ('A' for Active; 'I' for Inactive)
REMARK    1  A    between atoms: C_1  and  C_9
REMARK    2  A    between atoms: C_4  and  O_19
REMARK    3  A    between atoms: C_10  and  C_14
REMARK    4  A    between atoms: O_19  and  C_20
REMARK    5  A    between atoms: C_20  and  C_22
REMARK                            x       y       z     vdW  Elec       q    Type
REMARK                         _______ _______ _______ _____ _____    ______ ____
ROOT
ATOM      1  C   UNL     1      33.892 -21.785 -18.442  0.00  0.00    +0.019 C 
ATOM      2  C   UNL     1      35.253 -21.961 -18.688  0.00  0.00    +0.005 C 
ATOM      3  C   UNL     1      33.137 -20.946 -19.262  0.00  0.00    +0.005 C 
ATOM      4  C   UNL     1      35.101 -20.464 -20.568  0.00  0.00    +0.139 C 
ATOM      5  C   UNL     1      35.859 -21.298 -19.755  0.00  0.00    +0.037 C 
ATOM      6  C   UNL     1      33.743 -20.284 -20.329  0.00  0.00    +0.037 C 
ENDROOT
BRANCH   1   9
ATOM      7  N   UNL     1      31.732 -23.303 -16.173  0.00  0.00    -0.208 N 
ATOM      8  N   UNL     1      31.939 -22.643 -17.325  0.00  0.00    -0.178 NA
ATOM      9  C   UNL     1      33.267 -22.468 -17.344  0.00  0.00    +0.100 C 
ATOM     10  C   UNL     1      33.897 -23.016 -16.207  0.00  0.00    +0.036 C 
ATOM     11  C   UNL     1      32.871 -23.552 -15.466  0.00  0.00    +0.086 C 
ATOM     12  C   UNL     1      30.390 -23.677 -15.794  0.00  0.00    +0.140 C 
BRANCH  10  14
ATOM     13  N   UNL     1      37.955 -23.159 -15.019  0.00  0.00    -0.242 NA
ATOM     14  C   UNL     1      35.270 -23.065 -15.806  0.00  0.00    +0.006 C 
ATOM     15  C   UNL     1      36.053 -21.914 -15.841  0.00  0.00    +0.021 C 
ATOM     16  C   UNL     1      35.834 -24.263 -15.376  0.00  0.00    +0.021 C 
ATOM     17  C   UNL     1      37.376 -22.013 -15.442  0.00  0.00    +0.099 C 
ATOM     18  C   UNL     1      37.166 -24.258 -14.998  0.00  0.00    +0.099 C 
ENDBRANCH  10  14
ENDBRANCH   1   9
BRANCH   4  19
ATOM     19  O   UNL     1      35.697 -19.812 -21.617  0.00  0.00    -0.468 OA
BRANCH  19  20
ATOM     20  C   UNL     1      36.234 -18.523 -21.348  0.00  0.00    +0.264 C 
BRANCH  20  22
ATOM     21  N   UNL     1      35.436 -16.292 -21.843  0.00  0.00    -0.406 NA
ATOM     22  C   UNL     1      35.664 -17.539 -22.315  0.00  0.00    +0.152 C 
ATOM     23  C   UNL     1      34.620 -15.688 -24.029  0.00  0.00    +0.026 C 
ATOM     24  C   UNL     1      34.922 -15.376 -22.687  0.00  0.00    +0.113 C 
ATOM     25  C   UNL     1      35.400 -17.936 -23.610  0.00  0.00    +0.031 C 
ATOM     26  C   UNL     1      34.870 -16.991 -24.477  0.00  0.00    +0.005 C 
ATOM     27  C   UNL     1      34.083 -14.707 -24.881  0.00  0.00    +0.002 C 
ATOM     28  C   UNL     1      34.674 -14.081 -22.242  0.00  0.00    +0.085 C 
ATOM     29  C   UNL     1      33.844 -13.419 -24.411  0.00  0.00    -0.004 C 
ATOM     30  C   UNL     1      34.139 -13.106 -23.090  0.00  0.00    -0.019 C 
ENDBRANCH  20  22
ENDBRANCH  19  20
ENDBRANCH   4  19
TORSDOF 5
ENDMDL
MODEL 2
REMARK VINA RESULT:     -12.3      1.336      1.946
REMARK  Name = 11581936
REMARK  5 active torsions:
REMARK  status: ('A' for Active; 'I' for Inactive)
REMARK    1  A    between atoms: C_1  and  C_9
REMARK    2  A    between atoms: C_4  and  O_19
REMARK    3  A    between atoms: C_10  and  C_14
REMARK    4  A    between atoms: O_19  and  C_20
REMARK    5  A    between atoms: C_20  and  C_22
REMARK                            x       y       z     vdW  Elec       q    Type
REMARK                         _______ _______ _______ _____ _____    ______ ____
ROOT
ATOM      1  C   UNL     1      34.129 -22.757 -16.825  0.00  0.00    +0.019 C 
ATOM      2  C   UNL     1      35.474 -22.391 -16.843  0.00  0.00    +0.005 C 
ATOM      3  C   UNL     1      33.339 -22.570 -17.959  0.00  0.00    +0.005 C 
ATOM      4  C   UNL     1      35.238 -21.655 -19.124  0.00  0.00    +0.139 C 
ATOM      5  C   UNL     1      36.030 -21.838 -17.997  0.00  0.00    +0.037 C 
ATOM      6  C   UNL     1      33.895 -22.018 -19.114  0.00  0.00    +0.037 C 
ENDROOT
BRANCH   1   9
ATOM      7  N   UNL     1      32.074 -23.952 -14.281  0.00  0.00    -0.208 N 
ATOM      8  N   UNL     1      32.227 -23.365 -15.480  0.00  0.00    -0.178 NA
ATOM      9  C   UNL     1      33.556 -23.326 -15.637  0.00  0.00    +0.100 C 
ATOM     10  C   UNL     1      34.242 -23.887 -14.539  0.00  0.00    +0.036 C 
ATOM     11  C   UNL     1      33.251 -24.284 -13.676  0.00  0.00    +0.086 C 
ATOM     12  C   UNL     1      30.749 -24.172 -13.755  0.00  0.00    +0.140 C 
BRANCH  10  14
ATOM     13  N   UNL     1      38.367 -24.391 -13.745  0.00  0.00    -0.242 NA
ATOM     14  C   UNL     1      35.638 -24.057 -14.272  0.00  0.00    +0.006 C 
ATOM     15  C   UNL     1      36.302 -23.177 -13.422  0.00  0.00    +0.021 C 
ATOM     16  C   UNL     1      36.343 -25.105 -14.857  0.00  0.00    +0.021 C 
ATOM     17  C   UNL     1      37.653 -23.385 -13.194  0.00  0.00    +0.099 C 
ATOM     18  C   UNL     1      37.691 -25.228 -14.566  0.00  0.00    +0.099 C 
ENDBRANCH  10  14
ENDBRANCH   1   9
BRANCH   4  19
ATOM     19  O   UNL     1      35.784 -21.112 -20.258  0.00  0.00    -0.468 OA
BRANCH  19  20
ATOM     20  C   UNL     1      36.247 -19.771 -20.167  0.00  0.00    +0.264 C 
BRANCH  20  22
ATOM     21  N   UNL     1      35.773 -17.664 -21.261  0.00  0.00    -0.406 NA
ATOM     22  C   UNL     1      35.801 -19.012 -21.372  0.00  0.00    +0.152 C 
ATOM     23  C   UNL     1      34.993 -17.559 -23.539  0.00  0.00    +0.026 C 
ATOM     24  C   UNL     1      35.375 -16.945 -22.328  0.00  0.00    +0.113 C 
ATOM     25  C   UNL     1      35.445 -19.701 -22.514  0.00  0.00    +0.031 C 
ATOM     26  C   UNL     1      35.036 -18.957 -23.612  0.00  0.00    +0.005 C 
ATOM     27  C   UNL     1      34.583 -16.778 -24.632  0.00  0.00    +0.002 C 
ATOM     28  C   UNL     1      35.333 -15.555 -22.256  0.00  0.00    +0.085 C 
ATOM     29  C   UNL     1      34.549 -15.389 -24.533  0.00  0.00    -0.004 C 
ATOM     30  C   UNL     1      34.924 -14.778 -23.344  0.00  0.00    -0.019 C 
ENDBRANCH  20  22
ENDBRANCH  19  20
ENDBRANCH   4  19
TORSDOF 5
ENDMDL
MODEL 3
REMARK VINA RESULT:     -12.0      1.615      3.889
REMARK  Name = 11581936
REMARK  5 active torsions:
REMARK  status: ('A' for Active; 'I' for Inactive)
REMARK    1  A    between atoms: C_1  and  C_9
REMARK    2  A    between atoms: C_4  and  O_19
REMARK    3  A    between atoms: C_10  and  C_14
REMARK    4  A    between atoms: O_19  and  C_20
REMARK    5  A    between atoms: C_20  and  C_22
REMARK                            x       y       z     vdW  Elec       q    Type
REMARK                         _______ _______ _______ _____ _____    ______ ____
ROOT
ATOM      1  C   UNL     1      34.489 -22.784 -16.347  0.00  0.00    +0.019 C 
ATOM      2  C   UNL     1      33.387 -22.763 -17.201  0.00  0.00    +0.005 C 
ATOM      3  C   UNL     1      35.700 -22.228 -16.757  0.00  0.00    +0.005 C 
ATOM      4  C   UNL     1      34.707 -21.633 -18.868  0.00  0.00    +0.139 C 
ATOM      5  C   UNL     1      33.496 -22.186 -18.466  0.00  0.00    +0.037 C 
ATOM      6  C   UNL     1      35.810 -21.649 -18.022  0.00  0.00    +0.037 C 
ENDROOT
BRANCH   1   9
ATOM      7  N   UNL     1      34.984 -24.192 -13.202  0.00  0.00    -0.208 N 
ATOM      8  N   UNL     1      35.476 -23.660 -14.333  0.00  0.00    -0.178 NA
ATOM      9  C   UNL     1      34.377 -23.379 -15.044  0.00  0.00    +0.100 C 
ATOM     10  C   UNL     1      33.193 -23.732 -14.364  0.00  0.00    +0.036 C 
ATOM     11  C   UNL     1      33.622 -24.257 -13.169  0.00  0.00    +0.086 C 
ATOM     12  C   UNL     1      35.887 -24.630 -12.165  0.00  0.00    +0.140 C 
BRANCH  10  14
ATOM     13  N   UNL     1      29.114 -23.401 -15.440  0.00  0.00    -0.242 NA
ATOM     14  C   UNL     1      31.812 -23.620 -14.727  0.00  0.00    +0.006 C 
ATOM     15  C   UNL     1      31.151 -22.401 -14.605  0.00  0.00    +0.021 C 
ATOM     16  C   UNL     1      31.121 -24.729 -15.207  0.00  0.00    +0.021 C 
ATOM     17  C   UNL     1      29.816 -22.345 -14.971  0.00  0.00    +0.099 C 
ATOM     18  C   UNL     1      29.787 -24.569 -15.545  0.00  0.00    +0.099 C 
ENDBRANCH  10  14
ENDBRANCH   1   9
BRANCH   4  19
ATOM     19  O   UNL     1      34.814 -21.065 -20.111  0.00  0.00    -0.468 OA
BRANCH  19  20
ATOM     20  C   UNL     1      35.872 -20.133 -20.300  0.00  0.00    +0.264 C 
BRANCH  20  22
ATOM     21  N   UNL     1      35.557 -17.910 -21.205  0.00  0.00    -0.406 NA
ATOM     22  C   UNL     1      35.544 -19.241 -21.450  0.00  0.00    +0.152 C 
ATOM     23  C   UNL     1      34.953 -17.548 -23.510  0.00  0.00    +0.026 C 
ATOM     24  C   UNL     1      35.266 -17.073 -22.219  0.00  0.00    +0.113 C 
ATOM     25  C   UNL     1      35.250 -19.798 -22.678  0.00  0.00    +0.031 C 
ATOM     26  C   UNL     1      34.951 -18.933 -23.721  0.00  0.00    +0.005 C 
ATOM     27  C   UNL     1      34.653 -16.645 -24.544  0.00  0.00    +0.002 C 
ATOM     28  C   UNL     1      35.268 -15.697 -22.009  0.00  0.00    +0.085 C 
ATOM     29  C   UNL     1      34.662 -15.273 -24.308  0.00  0.00    -0.004 C 
ATOM     30  C   UNL     1      34.970 -14.799 -23.039  0.00  0.00    -0.019 C 
ENDBRANCH  20  22
ENDBRANCH  19  20
ENDBRANCH   4  19
TORSDOF 5
ENDMDL
MODEL 4
REMARK VINA RESULT:     -11.9      3.186     10.771
REMARK  Name = 11581936
REMARK  5 active torsions:
REMARK  status: ('A' for Active; 'I' for Inactive)
REMARK    1  A    between atoms: C_1  and  C_9
REMARK    2  A    between atoms: C_4  and  O_19
REMARK    3  A    between atoms: C_10  and  C_14
REMARK    4  A    between atoms: O_19  and  C_20
REMARK    5  A    between atoms: C_20  and  C_22
REMARK                            x       y       z     vdW  Elec       q    Type
REMARK                         _______ _______ _______ _____ _____    ______ ____
ROOT
ATOM      1  C   UNL     1      33.633 -13.374 -22.754  0.00  0.00    +0.019 C 
ATOM      2  C   UNL     1      34.471 -13.992 -21.827  0.00  0.00    +0.005 C 
ATOM      3  C   UNL     1      33.427 -13.955 -24.005  0.00  0.00    +0.005 C 
ATOM      4  C   UNL     1      34.894 -15.766 -23.399  0.00  0.00    +0.139 C 
ATOM      5  C   UNL     1      35.103 -15.192 -22.151  0.00  0.00    +0.037 C 
ATOM      6  C   UNL     1      34.059 -15.156 -24.329  0.00  0.00    +0.037 C 
ENDROOT
BRANCH   1   9
ATOM      7  N   UNL     1      31.636 -10.822 -21.480  0.00  0.00    -0.208 N 
ATOM      8  N   UNL     1      31.985 -12.119 -21.527  0.00  0.00    -0.178 NA
ATOM      9  C   UNL     1      32.981 -12.138 -22.421  0.00  0.00    +0.100 C 
ATOM     10  C   UNL     1      33.261 -10.856 -22.939  0.00  0.00    +0.036 C 
ATOM     11  C   UNL     1      32.370 -10.024 -22.306  0.00  0.00    +0.086 C 
ATOM     12  C   UNL     1      30.568 -10.400 -20.606  0.00  0.00    +0.140 C 
BRANCH  10  14
ATOM     13  N   UNL     1      36.099  -9.516 -25.776  0.00  0.00    -0.242 NA
ATOM     14  C   UNL     1      34.221 -10.402 -23.899  0.00  0.00    +0.006 C 
ATOM     15  C   UNL     1      34.899  -9.202 -23.701  0.00  0.00    +0.021 C 
ATOM     16  C   UNL     1      34.485 -11.158 -25.038  0.00  0.00    +0.021 C 
ATOM     17  C   UNL     1      35.818  -8.808 -24.660  0.00  0.00    +0.099 C 
ATOM     18  C   UNL     1      35.422 -10.676 -25.937  0.00  0.00    +0.099 C 
ENDBRANCH  10  14
ENDBRANCH   1   9
BRANCH   4  19
ATOM     19  O   UNL     1      35.515 -16.946 -23.717  0.00  0.00    -0.468 OA
BRANCH  19  20
ATOM     20  C   UNL     1      34.766 -18.138 -23.516  0.00  0.00    +0.264 C 
BRANCH  20  22
ATOM     21  N   UNL     1      34.409 -19.621 -21.636  0.00  0.00    -0.406 NA
ATOM     22  C   UNL     1      35.292 -18.855 -22.317  0.00  0.00    +0.152 C 
ATOM     23  C   UNL     1      36.185 -20.194 -20.112  0.00  0.00    +0.026 C 
ATOM     24  C   UNL     1      34.847 -20.283 -20.548  0.00  0.00    +0.113 C 
ATOM     25  C   UNL     1      36.619 -18.707 -21.966  0.00  0.00    +0.031 C 
ATOM     26  C   UNL     1      37.067 -19.390 -20.845  0.00  0.00    +0.005 C 
ATOM     27  C   UNL     1      36.607 -20.898 -18.971  0.00  0.00    +0.002 C 
ATOM     28  C   UNL     1      33.971 -21.083 -19.819  0.00  0.00    +0.085 C 
ATOM     29  C   UNL     1      35.710 -21.691 -18.260  0.00  0.00    -0.004 C 
ATOM     30  C   UNL     1      34.391 -21.783 -18.684  0.00  0.00    -0.019 C 
ENDBRANCH  20  22
ENDBRANCH  19  20
ENDBRANCH   4  19
TORSDOF 5
ENDMDL
MODEL 5
REMARK VINA RESULT:     -11.5      3.145     10.730
REMARK  Name = 11581936
REMARK  5 active torsions:
REMARK  status: ('A' for Active; 'I' for Inactive)
REMARK    1  A    between atoms: C_1  and  C_9
REMARK    2  A    between atoms: C_4  and  O_19
REMARK    3  A    between atoms: C_10  and  C_14
REMARK    4  A    between atoms: O_19  and  C_20
REMARK    5  A    between atoms: C_20  and  C_22
REMARK                            x       y       z     vdW  Elec       q    Type
REMARK                         _______ _______ _______ _____ _____    ______ ____
ROOT
ATOM      1  C   UNL     1      33.719 -13.575 -22.766  0.00  0.00    +0.019 C 
ATOM      2  C   UNL     1      33.541 -14.182 -24.009  0.00  0.00    +0.005 C 
ATOM      3  C   UNL     1      34.534 -14.174 -21.806  0.00  0.00    +0.005 C 
ATOM      4  C   UNL     1      34.991 -15.981 -23.331  0.00  0.00    +0.139 C 
ATOM      5  C   UNL     1      34.180 -15.389 -24.291  0.00  0.00    +0.037 C 
ATOM      6  C   UNL     1      35.173 -15.381 -22.089  0.00  0.00    +0.037 C 
ENDROOT
BRANCH   1   9
ATOM      7  N   UNL     1      31.721 -10.988 -21.564  0.00  0.00    -0.208 N 
ATOM      8  N   UNL     1      32.083 -12.283 -21.561  0.00  0.00    -0.178 NA
ATOM      9  C   UNL     1      33.061 -12.331 -22.474  0.00  0.00    +0.100 C 
ATOM     10  C   UNL     1      33.318 -11.070 -23.052  0.00  0.00    +0.036 C 
ATOM     11  C   UNL     1      32.431 -10.220 -22.439  0.00  0.00    +0.086 C 
ATOM     12  C   UNL     1      30.667 -10.538 -20.687  0.00  0.00    +0.140 C 
BRANCH  10  14
ATOM     13  N   UNL     1      36.081  -9.828 -26.005  0.00  0.00    -0.242 NA
ATOM     14  C   UNL     1      34.254 -10.650 -24.051  0.00  0.00    +0.006 C 
ATOM     15  C   UNL     1      34.396 -11.379 -25.229  0.00  0.00    +0.021 C 
ATOM     16  C   UNL     1      35.027  -9.510 -23.853  0.00  0.00    +0.021 C 
ATOM     17  C   UNL     1      35.314 -10.930 -26.165  0.00  0.00    +0.099 C 
ATOM     18  C   UNL     1      35.917  -9.145 -24.850  0.00  0.00    +0.099 C 
ENDBRANCH  10  14
ENDBRANCH   1   9
BRANCH   4  19
ATOM     19  O   UNL     1      35.619 -17.167 -23.609  0.00  0.00    -0.468 OA
BRANCH  19  20
ATOM     20  C   UNL     1      36.506 -17.670 -22.618  0.00  0.00    +0.264 C 
BRANCH  20  22
ATOM     21  N   UNL     1      36.519 -19.293 -20.822  0.00  0.00    -0.406 NA
ATOM     22  C   UNL     1      35.787 -18.670 -21.775  0.00  0.00    +0.152 C 
ATOM     23  C   UNL     1      34.538 -20.515 -20.196  0.00  0.00    +0.026 C 
ATOM     24  C   UNL     1      35.904 -20.203 -20.042  0.00  0.00    +0.113 C 
ATOM     25  C   UNL     1      34.447 -18.909 -22.000  0.00  0.00    +0.031 C 
ATOM     26  C   UNL     1      33.817 -19.847 -21.195  0.00  0.00    +0.005 C 
ATOM     27  C   UNL     1      33.930 -21.470 -19.365  0.00  0.00    +0.002 C 
ATOM     28  C   UNL     1      36.620 -20.867 -19.049  0.00  0.00    +0.085 C 
ATOM     29  C   UNL     1      34.668 -22.120 -18.379  0.00  0.00    -0.004 C 
ATOM     30  C   UNL     1      36.015 -21.818 -18.221  0.00  0.00    -0.019 C 
ENDBRANCH  20  22
ENDBRANCH  19  20
ENDBRANCH   4  19
TORSDOF 5
ENDMDL
MODEL 6
REMARK VINA RESULT:     -11.3      6.655     13.803
REMARK  Name = 11581936
REMARK  5 active torsions:
REMARK  status: ('A' for Active; 'I' for Inactive)
REMARK    1  A    between atoms: C_1  and  C_9
REMARK    2  A    between atoms: C_4  and  O_19
REMARK    3  A    between atoms: C_10  and  C_14
REMARK    4  A    between atoms: O_19  and  C_20
REMARK    5  A    between atoms: C_20  and  C_22
REMARK                            x       y       z     vdW  Elec       q    Type
REMARK                         _______ _______ _______ _____ _____    ______ ____
ROOT
ATOM      1  C   UNL     1      33.785  -8.600 -23.271  0.00  0.00    +0.019 C 
ATOM      2  C   UNL     1      34.992  -8.713 -23.960  0.00  0.00    +0.005 C 
ATOM      3  C   UNL     1      32.867  -9.651 -23.295  0.00  0.00    +0.005 C 
ATOM      4  C   UNL     1      34.363 -10.919 -24.691  0.00  0.00    +0.139 C 
ATOM      5  C   UNL     1      35.282  -9.877 -24.672  0.00  0.00    +0.037 C 
ATOM      6  C   UNL     1      33.157 -10.815 -24.007  0.00  0.00    +0.037 C 
ENDROOT
BRANCH   1   9
ATOM      7  N   UNL     1      32.951  -6.183 -20.908  0.00  0.00    -0.208 N 
ATOM      8  N   UNL     1      33.154  -7.469 -21.242  0.00  0.00    -0.178 NA
ATOM      9  C   UNL     1      33.486  -7.403 -22.538  0.00  0.00    +0.100 C 
ATOM     10  C   UNL     1      33.492  -6.078 -23.022  0.00  0.00    +0.036 C 
ATOM     11  C   UNL     1      33.141  -5.310 -21.939  0.00  0.00    +0.086 C 
ATOM     12  C   UNL     1      32.568  -5.846 -19.558  0.00  0.00    +0.140 C 
BRANCH  10  14
ATOM     13  N   UNL     1      34.337  -4.471 -26.843  0.00  0.00    -0.242 NA
ATOM     14  C   UNL     1      33.778  -5.535 -24.315  0.00  0.00    +0.006 C 
ATOM     15  C   UNL     1      32.764  -4.954 -25.072  0.00  0.00    +0.021 C 
ATOM     16  C   UNL     1      35.072  -5.582 -24.826  0.00  0.00    +0.021 C 
ATOM     17  C   UNL     1      33.092  -4.442 -26.317  0.00  0.00    +0.099 C 
ATOM     18  C   UNL     1      35.297  -5.042 -26.082  0.00  0.00    +0.099 C 
ENDBRANCH  10  14
ENDBRANCH   1   9
BRANCH   4  19
ATOM     19  O   UNL     1      34.648 -12.063 -25.391  0.00  0.00    -0.468 OA
BRANCH  19  20
ATOM     20  C   UNL     1      33.676 -13.099 -25.348  0.00  0.00    +0.264 C 
BRANCH  20  22
ATOM     21  N   UNL     1      34.143 -15.456 -25.047  0.00  0.00    -0.406 NA
ATOM     22  C   UNL     1      34.183 -14.218 -24.501  0.00  0.00    +0.152 C 
ATOM     23  C   UNL     1      35.095 -16.314 -23.006  0.00  0.00    +0.026 C 
ATOM     24  C   UNL     1      34.593 -16.491 -24.312  0.00  0.00    +0.113 C 
ATOM     25  C   UNL     1      34.657 -13.948 -23.233  0.00  0.00    +0.031 C 
ATOM     26  C   UNL     1      35.119 -15.016 -22.478  0.00  0.00    +0.005 C 
ATOM     27  C   UNL     1      35.555 -17.417 -22.267  0.00  0.00    +0.002 C 
ATOM     28  C   UNL     1      34.571 -17.780 -24.836  0.00  0.00    +0.085 C 
ATOM     29  C   UNL     1      35.521 -18.696 -22.815  0.00  0.00    -0.004 C 
ATOM     30  C   UNL     1      35.028 -18.878 -24.101  0.00  0.00    -0.019 C 
ENDBRANCH  20  22
ENDBRANCH  19  20
ENDBRANCH   4  19
TORSDOF 5
ENDMDL
MODEL 7
REMARK VINA RESULT:     -11.2      2.766      4.815
REMARK  Name = 11581936
REMARK  5 active torsions:
REMARK  status: ('A' for Active; 'I' for Inactive)
REMARK    1  A    between atoms: C_1  and  C_9
REMARK    2  A    between atoms: C_4  and  O_19
REMARK    3  A    between atoms: C_10  and  C_14
REMARK    4  A    between atoms: O_19  and  C_20
REMARK    5  A    between atoms: C_20  and  C_22
REMARK                            x       y       z     vdW  Elec       q    Type
REMARK                         _______ _______ _______ _____ _____    ______ ____
ROOT
ATOM      1  C   UNL     1      36.214 -23.344 -14.666  0.00  0.00    +0.019 C 
ATOM      2  C   UNL     1      37.212 -22.619 -15.316  0.00  0.00    +0.005 C 
ATOM      3  C   UNL     1      34.945 -23.448 -15.234  0.00  0.00    +0.005 C 
ATOM      4  C   UNL     1      35.673 -22.106 -17.096  0.00  0.00    +0.139 C 
ATOM      5  C   UNL     1      36.940 -21.997 -16.535  0.00  0.00    +0.037 C 
ATOM      6  C   UNL     1      34.673 -22.828 -16.454  0.00  0.00    +0.037 C 
ENDROOT
BRANCH   1   9
ATOM      7  N   UNL     1      36.311 -24.459 -11.369  0.00  0.00    -0.208 N 
ATOM      8  N   UNL     1      35.770 -23.684 -12.324  0.00  0.00    -0.178 NA
ATOM      9  C   UNL     1      36.493 -23.984 -13.411  0.00  0.00    +0.100 C 
ATOM     10  C   UNL     1      37.489 -24.947 -13.143  0.00  0.00    +0.036 C 
ATOM     11  C   UNL     1      37.343 -25.236 -11.809  0.00  0.00    +0.086 C 
ATOM     12  C   UNL     1      35.785 -24.413 -10.026  0.00  0.00    +0.140 C 
BRANCH  10  14
ATOM     13  N   UNL     1      40.408 -26.749 -15.620  0.00  0.00    -0.242 NA
ATOM     14  C   UNL     1      38.477 -25.557 -13.981  0.00  0.00    +0.006 C 
ATOM     15  C   UNL     1      38.115 -26.560 -14.876  0.00  0.00    +0.021 C 
ATOM     16  C   UNL     1      39.806 -25.151 -13.908  0.00  0.00    +0.021 C 
ATOM     17  C   UNL     1      39.108 -27.118 -15.665  0.00  0.00    +0.099 C 
ATOM     18  C   UNL     1      40.724 -25.772 -14.740  0.00  0.00    +0.099 C 
ENDBRANCH  10  14
ENDBRANCH   1   9
BRANCH   4  19
ATOM     19  O   UNL     1      35.406 -21.497 -18.294  0.00  0.00    -0.468 OA
BRANCH  19  20
ATOM     20  C   UNL     1      36.363 -21.675 -19.330  0.00  0.00    +0.264 C 
BRANCH  20  22
ATOM     21  N   UNL     1      35.379 -20.423 -21.155  0.00  0.00    -0.406 NA
ATOM     22  C   UNL     1      36.357 -20.477 -20.220  0.00  0.00    +0.152 C 
ATOM     23  C   UNL     1      36.286 -18.313 -21.885  0.00  0.00    +0.026 C 
ATOM     24  C   UNL     1      35.342 -19.357 -21.976  0.00  0.00    +0.113 C 
ATOM     25  C   UNL     1      37.323 -19.505 -20.056  0.00  0.00    +0.031 C 
ATOM     26  C   UNL     1      37.282 -18.408 -20.904  0.00  0.00    +0.005 C 
ATOM     27  C   UNL     1      36.217 -17.216 -22.759  0.00  0.00    +0.002 C 
ATOM     28  C   UNL     1      34.352 -19.262 -22.951  0.00  0.00    +0.085 C 
ATOM     29  C   UNL     1      35.217 -17.146 -23.726  0.00  0.00    -0.004 C 
ATOM     30  C   UNL     1      34.284 -18.170 -23.821  0.00  0.00    -0.019 C 
ENDBRANCH  20  22
ENDBRANCH  19  20
ENDBRANCH   4  19
TORSDOF 5
ENDMDL
MODEL 8
REMARK VINA RESULT:     -10.6      6.581     11.163
REMARK  Name = 11581936
REMARK  5 active torsions:
REMARK  status: ('A' for Active; 'I' for Inactive)
REMARK    1  A    between atoms: C_1  and  C_9
REMARK    2  A    between atoms: C_4  and  O_19
REMARK    3  A    between atoms: C_10  and  C_14
REMARK    4  A    between atoms: O_19  and  C_20
REMARK    5  A    between atoms: C_20  and  C_22
REMARK                            x       y       z     vdW  Elec       q    Type
REMARK                         _______ _______ _______ _____ _____    ______ ____
ROOT
ATOM      1  C   UNL     1      33.313 -13.002 -21.852  0.00  0.00    +0.019 C 
ATOM      2  C   UNL     1      33.108 -11.897 -22.678  0.00  0.00    +0.005 C 
ATOM      3  C   UNL     1      32.831 -12.994 -20.543  0.00  0.00    +0.005 C 
ATOM      4  C   UNL     1      31.942 -10.784 -20.889  0.00  0.00    +0.139 C 
ATOM      5  C   UNL     1      32.420 -10.784 -22.194  0.00  0.00    +0.037 C 
ATOM      6  C   UNL     1      32.142 -11.882 -20.060  0.00  0.00    +0.037 C 
ENDROOT
BRANCH   1   9
ATOM      7  N   UNL     1      35.130 -15.936 -22.312  0.00  0.00    -0.208 N 
ATOM      8  N   UNL     1      34.569 -15.025 -21.499  0.00  0.00    -0.178 NA
ATOM      9  C   UNL     1      34.020 -14.149 -22.349  0.00  0.00    +0.100 C 
ATOM     10  C   UNL     1      34.234 -14.505 -23.698  0.00  0.00    +0.036 C 
ATOM     11  C   UNL     1      34.957 -15.671 -23.639  0.00  0.00    +0.086 C 
ATOM     12  C   UNL     1      35.833 -17.063 -21.749  0.00  0.00    +0.140 C 
BRANCH  10  14
ATOM     13  N   UNL     1      33.074 -12.659 -27.324  0.00  0.00    -0.242 NA
ATOM     14  C   UNL     1      33.840 -13.880 -24.924  0.00  0.00    +0.006 C 
ATOM     15  C   UNL     1      34.271 -12.591 -25.224  0.00  0.00    +0.021 C 
ATOM     16  C   UNL     1      33.026 -14.557 -25.827  0.00  0.00    +0.021 C 
ATOM     17  C   UNL     1      33.864 -12.031 -26.425  0.00  0.00    +0.099 C 
ATOM     18  C   UNL     1      32.674 -13.909 -27.000  0.00  0.00    +0.099 C 
ENDBRANCH  10  14
ENDBRANCH   1   9
BRANCH   4  19
ATOM     19  O   UNL     1      31.266  -9.690 -20.414  0.00  0.00    -0.468 OA
BRANCH  19  20
ATOM     20  C   UNL     1      32.051  -8.649 -19.846  0.00  0.00    +0.264 C 
BRANCH  20  22
ATOM     21  N   UNL     1      33.489  -7.873 -21.632  0.00  0.00    -0.406 NA
ATOM     22  C   UNL     1      32.374  -7.643 -20.900  0.00  0.00    +0.152 C 
ATOM     23  C   UNL     1      33.028  -5.842 -22.846  0.00  0.00    +0.026 C 
ATOM     24  C   UNL     1      33.813  -6.986 -22.593  0.00  0.00    +0.113 C 
ATOM     25  C   UNL     1      31.545  -6.553 -21.075  0.00  0.00    +0.031 C 
ATOM     26  C   UNL     1      31.882  -5.642 -22.065  0.00  0.00    +0.005 C 
ATOM     27  C   UNL     1      33.398  -4.938 -23.856  0.00  0.00    +0.002 C 
ATOM     28  C   UNL     1      34.952  -7.185 -23.369  0.00  0.00    +0.085 C 
ATOM     29  C   UNL     1      34.541  -5.160 -24.618  0.00  0.00    -0.004 C 
ATOM     30  C   UNL     1      35.319  -6.285 -24.374  0.00  0.00    -0.019 C 
ENDBRANCH  20  22
ENDBRANCH  19  20
ENDBRANCH   4  19
TORSDOF 5
ENDMDL
MODEL 9
REMARK VINA RESULT:     -10.5      3.079      5.899
REMARK  Name = 11581936
REMARK  5 active torsions:
REMARK  status: ('A' for Active; 'I' for Inactive)
REMARK    1  A    between atoms: C_1  and  C_9
REMARK    2  A    between atoms: C_4  and  O_19
REMARK    3  A    between atoms: C_10  and  C_14
REMARK    4  A    between atoms: O_19  and  C_20
REMARK    5  A    between atoms: C_20  and  C_22
REMARK                            x       y       z     vdW  Elec       q    Type
REMARK                         _______ _______ _______ _____ _____    ______ ____
ROOT
ATOM      1  C   UNL     1      36.983 -24.091 -15.078  0.00  0.00    +0.019 C 
ATOM      2  C   UNL     1      37.247 -22.919 -15.786  0.00  0.00    +0.005 C 
ATOM      3  C   UNL     1      35.687 -24.605 -15.036  0.00  0.00    +0.005 C 
ATOM      4  C   UNL     1      34.924 -22.779 -16.407  0.00  0.00    +0.139 C 
ATOM      5  C   UNL     1      36.213 -22.261 -16.453  0.00  0.00    +0.037 C 
ATOM      6  C   UNL     1      34.654 -23.947 -15.704  0.00  0.00    +0.037 C 
ENDROOT
BRANCH   1   9
ATOM      7  N   UNL     1      39.813 -25.881 -14.125  0.00  0.00    -0.208 N 
ATOM      8  N   UNL     1      39.024 -25.369 -15.085  0.00  0.00    -0.178 NA
ATOM      9  C   UNL     1      38.047 -24.770 -14.392  0.00  0.00    +0.100 C 
ATOM     10  C   UNL     1      38.218 -24.904 -12.998  0.00  0.00    +0.036 C 
ATOM     11  C   UNL     1      39.375 -25.630 -12.858  0.00  0.00    +0.086 C 
ATOM     12  C   UNL     1      40.999 -26.617 -14.492  0.00  0.00    +0.140 C 
BRANCH  10  14
ATOM     13  N   UNL     1      35.913 -23.528  -9.728  0.00  0.00    -0.242 NA
ATOM     14  C   UNL     1      37.438 -24.439 -11.891  0.00  0.00    +0.006 C 
ATOM     15  C   UNL     1      37.658 -23.170 -11.362  0.00  0.00    +0.021 C 
ATOM     16  C   UNL     1      36.454 -25.251 -11.335  0.00  0.00    +0.021 C 
ATOM     17  C   UNL     1      36.876 -22.766 -10.292  0.00  0.00    +0.099 C 
ATOM     18  C   UNL     1      35.726 -24.755 -10.266  0.00  0.00    +0.099 C 
ENDBRANCH  10  14
ENDBRANCH   1   9
BRANCH   4  19
ATOM     19  O   UNL     1      33.909 -22.132 -17.063  0.00  0.00    -0.468 OA
BRANCH  19  20
ATOM     20  C   UNL     1      33.643 -22.545 -18.397  0.00  0.00    +0.264 C 
BRANCH  20  22
ATOM     21  N   UNL     1      35.306 -21.138 -19.455  0.00  0.00    -0.406 NA
ATOM     22  C   UNL     1      33.992 -21.437 -19.335  0.00  0.00    +0.152 C 
ATOM     23  C   UNL     1      34.702 -19.420 -21.034  0.00  0.00    +0.026 C 
ATOM     24  C   UNL     1      35.658 -20.144 -20.293  0.00  0.00    +0.113 C 
ATOM     25  C   UNL     1      32.985 -20.785 -20.018  0.00  0.00    +0.031 C 
ATOM     26  C   UNL     1      33.352 -19.762 -20.880  0.00  0.00    +0.005 C 
ATOM     27  C   UNL     1      35.106 -18.388 -21.897  0.00  0.00    +0.002 C 
ATOM     28  C   UNL     1      37.000 -19.805 -20.447  0.00  0.00    +0.085 C 
ATOM     29  C   UNL     1      36.454 -18.069 -22.033  0.00  0.00    -0.004 C 
ATOM     30  C   UNL     1      37.402 -18.779 -21.306  0.00  0.00    -0.019 C 
ENDBRANCH  20  22
ENDBRANCH  19  20
ENDBRANCH   4  19
TORSDOF 5
ENDMDL
