MODEL 1
REMARK VINA RESULT:     -11.4      0.000      0.000
REMARK  Name = 17754438
REMARK  6 active torsions:
REMARK  status: ('A' for Active; 'I' for Inactive)
REMARK    1  A    between atoms: N_1  and  C_19
REMARK    2  A    between atoms: C_7  and  C_12
REMARK    3  A    between atoms: N_10  and  C_15
REMARK    4  A    between atoms: C_15  and  C_16
REMARK    5  A    between atoms: C_16  and  O_17
REMARK    6  A    between atoms: C_19  and  C_21
REMARK                            x       y       z     vdW  Elec       q    Type
REMARK                         _______ _______ _______ _____ _____    ______ ____
ROOT
ATOM      1  N   UNL     1      34.799 -20.554 -20.063  0.00  0.00    -0.163 N 
ATOM      2  N   UNL     1      35.680 -21.582 -18.029  0.00  0.00    -0.378 NA
ATOM      3  N   UNL     1      33.607 -20.510 -20.691  0.00  0.00    -0.033 NA
ATOM      4  N   UNL     1      32.932 -22.489 -17.885  0.00  0.00    -0.208 NA
ATOM      5  N   UNL     1      32.741 -21.223 -19.971  0.00  0.00    -0.086 NA
ATOM      6  C   UNL     1      34.726 -21.296 -18.927  0.00  0.00    +0.267 C 
ATOM      7  C   UNL     1      35.192 -22.357 -17.033  0.00  0.00    +0.140 C 
ATOM      8  C   UNL     1      33.409 -21.712 -18.887  0.00  0.00    +0.098 C 
ATOM      9  C   UNL     1      33.876 -22.792 -16.964  0.00  0.00    +0.195 C 
ENDROOT
BRANCH   7  12
ATOM     10  N   UNL     1      36.950 -23.476 -14.132  0.00  0.00    -0.208 N 
ATOM     11  N   UNL     1      38.042 -23.091 -14.816  0.00  0.00    -0.176 NA
ATOM     12  C   UNL     1      36.131 -22.725 -16.013  0.00  0.00    +0.064 C 
ATOM     13  C   UNL     1      35.780 -23.278 -14.805  0.00  0.00    +0.088 C 
ATOM     14  C   UNL     1      37.534 -22.633 -15.964  0.00  0.00    +0.121 C 
BRANCH  10  15
ATOM     15  C   UNL     1      37.095 -24.041 -12.812  0.00  0.00    +0.148 C 
BRANCH  15  16
ATOM     16  C   UNL     1      37.103 -22.979 -11.720  0.00  0.00    +0.161 C 
BRANCH  16  17
ATOM     17  O   UNL     1      38.336 -22.273 -11.748  0.00  0.00    -0.380 OA
ATOM     18  H   UNL     1      38.349 -21.616 -11.035  0.00  0.00    +0.211 HD
ENDBRANCH  16  17
ENDBRANCH  15  16
ENDBRANCH  10  15
ENDBRANCH   7  12
BRANCH   1  19
ATOM     19  C   UNL     1      35.963 -19.856 -20.619  0.00  0.00    +0.145 C 
BRANCH  19  21
ATOM     20  N   UNL     1      34.522 -16.496 -24.939  0.00  0.00    -0.244 NA
ATOM     21  C   UNL     1      35.586 -18.962 -21.752  0.00  0.00    -0.000 C 
ATOM     22  C   UNL     1      35.525 -17.584 -21.566  0.00  0.00    -0.001 C 
ATOM     23  C   UNL     1      35.168 -16.739 -22.631  0.00  0.00    +0.017 C 
ATOM     24  C   UNL     1      35.291 -19.501 -22.998  0.00  0.00    -0.001 C 
ATOM     25  C   UNL     1      34.868 -17.278 -23.899  0.00  0.00    +0.081 C 
ATOM     26  C   UNL     1      34.937 -18.660 -24.056  0.00  0.00    +0.019 C 
ATOM     27  C   UNL     1      35.100 -15.348 -22.471  0.00  0.00    +0.003 C 
ATOM     28  C   UNL     1      34.744 -14.540 -23.542  0.00  0.00    +0.021 C 
ATOM     29  C   UNL     1      34.468 -15.159 -24.744  0.00  0.00    +0.099 C 
ENDBRANCH  19  21
ENDBRANCH   1  19
TORSDOF 6
ENDMDL
MODEL 2
REMARK VINA RESULT:     -11.2      4.600     10.388
REMARK  Name = 17754438
REMARK  6 active torsions:
REMARK  status: ('A' for Active; 'I' for Inactive)
REMARK    1  A    between atoms: N_1  and  C_19
REMARK    2  A    between atoms: C_7  and  C_12
REMARK    3  A    between atoms: N_10  and  C_15
REMARK    4  A    between atoms: C_15  and  C_16
REMARK    5  A    between atoms: C_16  and  O_17
REMARK    6  A    between atoms: C_19  and  C_21
REMARK                            x       y       z     vdW  Elec       q    Type
REMARK                         _______ _______ _______ _____ _____    ______ ____
ROOT
ATOM      1  N   UNL     1      35.607 -17.401 -23.256  0.00  0.00    -0.163 N 
ATOM      2  N   UNL     1      34.730 -15.121 -23.231  0.00  0.00    -0.378 NA
ATOM      3  N   UNL     1      35.480 -18.482 -24.052  0.00  0.00    -0.033 NA
ATOM      4  N   UNL     1      33.449 -16.111 -25.634  0.00  0.00    -0.208 NA
ATOM      5  N   UNL     1      34.658 -18.158 -25.051  0.00  0.00    -0.086 NA
ATOM      6  C   UNL     1      34.872 -16.360 -23.726  0.00  0.00    +0.267 C 
ATOM      7  C   UNL     1      33.902 -14.382 -24.005  0.00  0.00    +0.140 C 
ATOM      8  C   UNL     1      34.276 -16.861 -24.867  0.00  0.00    +0.098 C 
ATOM      9  C   UNL     1      33.288 -14.855 -25.156  0.00  0.00    +0.195 C 
ENDROOT
BRANCH   7  12
ATOM     10  N   UNL     1      33.732 -10.852 -23.483  0.00  0.00    -0.208 N 
ATOM     11  N   UNL     1      32.997 -11.186 -22.408  0.00  0.00    -0.176 NA
ATOM     12  C   UNL     1      33.677 -13.034 -23.567  0.00  0.00    +0.064 C 
ATOM     13  C   UNL     1      34.164 -11.922 -24.210  0.00  0.00    +0.088 C 
ATOM     14  C   UNL     1      32.967 -12.521 -22.465  0.00  0.00    +0.121 C 
BRANCH  10  15
ATOM     15  C   UNL     1      33.990  -9.461 -23.770  0.00  0.00    +0.148 C 
BRANCH  15  16
ATOM     16  C   UNL     1      32.848  -8.553 -23.333  0.00  0.00    +0.161 C 
BRANCH  16  17
ATOM     17  O   UNL     1      32.967  -8.268 -21.945  0.00  0.00    -0.380 OA
ATOM     18  H   UNL     1      33.019  -7.309 -21.816  0.00  0.00    +0.211 HD
ENDBRANCH  16  17
ENDBRANCH  15  16
ENDBRANCH  10  15
ENDBRANCH   7  12
BRANCH   1  19
ATOM     19  C   UNL     1      36.457 -17.449 -22.061  0.00  0.00    +0.145 C 
BRANCH  19  21
ATOM     20  N   UNL     1      35.397 -21.997 -18.865  0.00  0.00    -0.244 NA
ATOM     21  C   UNL     1      36.167 -18.647 -21.222  0.00  0.00    -0.000 C 
ATOM     22  C   UNL     1      34.853 -19.049 -21.004  0.00  0.00    -0.001 C 
ATOM     23  C   UNL     1      34.576 -20.177 -20.212  0.00  0.00    +0.017 C 
ATOM     24  C   UNL     1      37.209 -19.367 -20.649  0.00  0.00    -0.001 C 
ATOM     25  C   UNL     1      35.628 -20.912 -19.629  0.00  0.00    +0.081 C 
ATOM     26  C   UNL     1      36.933 -20.488 -19.863  0.00  0.00    +0.019 C 
ATOM     27  C   UNL     1      33.262 -20.603 -19.978  0.00  0.00    +0.003 C 
ATOM     28  C   UNL     1      33.021 -21.721 -19.191  0.00  0.00    +0.021 C 
ATOM     29  C   UNL     1      34.115 -22.376 -18.663  0.00  0.00    +0.099 C 
ENDBRANCH  19  21
ENDBRANCH   1  19
TORSDOF 6
ENDMDL
MODEL 3
REMARK VINA RESULT:     -11.1      2.813      4.323
REMARK  Name = 17754438
REMARK  6 active torsions:
REMARK  status: ('A' for Active; 'I' for Inactive)
REMARK    1  A    between atoms: N_1  and  C_19
REMARK    2  A    between atoms: C_7  and  C_12
REMARK    3  A    between atoms: N_10  and  C_15
REMARK    4  A    between atoms: C_15  and  C_16
REMARK    5  A    between atoms: C_16  and  O_17
REMARK    6  A    between atoms: C_19  and  C_21
REMARK                            x       y       z     vdW  Elec       q    Type
REMARK                         _______ _______ _______ _____ _____    ______ ____
ROOT
ATOM      1  N   UNL     1      33.343 -23.222 -17.215  0.00  0.00    -0.163 N 
ATOM      2  N   UNL     1      35.117 -24.027 -15.739  0.00  0.00    -0.378 NA
ATOM      3  N   UNL     1      32.114 -22.694 -17.056  0.00  0.00    -0.033 NA
ATOM      4  N   UNL     1      33.157 -23.231 -13.759  0.00  0.00    -0.208 NA
ATOM      5  N   UNL     1      31.867 -22.621 -15.748  0.00  0.00    -0.086 NA
ATOM      6  C   UNL     1      33.914 -23.500 -16.013  0.00  0.00    +0.267 C 
ATOM      7  C   UNL     1      35.302 -24.142 -14.404  0.00  0.00    +0.140 C 
ATOM      8  C   UNL     1      32.959 -23.110 -15.094  0.00  0.00    +0.098 C 
ATOM      9  C   UNL     1      34.364 -23.760 -13.455  0.00  0.00    +0.195 C 
ENDROOT
BRANCH   7  12
ATOM     10  N   UNL     1      38.686 -25.200 -13.969  0.00  0.00    -0.208 N 
ATOM     11  N   UNL     1      38.209 -25.809 -12.870  0.00  0.00    -0.176 NA
ATOM     12  C   UNL     1      36.561 -24.696 -13.995  0.00  0.00    +0.064 C 
ATOM     13  C   UNL     1      37.740 -24.520 -14.678  0.00  0.00    +0.088 C 
ATOM     14  C   UNL     1      36.910 -25.498 -12.892  0.00  0.00    +0.121 C 
BRANCH  10  15
ATOM     15  C   UNL     1      40.089 -25.305 -14.294  0.00  0.00    +0.148 C 
BRANCH  15  16
ATOM     16  C   UNL     1      40.432 -26.619 -14.981  0.00  0.00    +0.161 C 
BRANCH  16  17
ATOM     17  O   UNL     1      40.547 -26.411 -16.383  0.00  0.00    -0.380 OA
ATOM     18  H   UNL     1      41.483 -26.416 -16.635  0.00  0.00    +0.211 HD
ENDBRANCH  16  17
ENDBRANCH  15  16
ENDBRANCH  10  15
ENDBRANCH   7  12
BRANCH   1  19
ATOM     19  C   UNL     1      33.901 -23.429 -18.556  0.00  0.00    +0.145 C 
BRANCH  19  21
ATOM     20  N   UNL     1      34.962 -18.516 -21.158  0.00  0.00    -0.244 NA
ATOM     21  C   UNL     1      34.191 -22.136 -19.241  0.00  0.00    -0.000 C 
ATOM     22  C   UNL     1      35.505 -21.701 -19.388  0.00  0.00    -0.001 C 
ATOM     23  C   UNL     1      35.782 -20.482 -20.033  0.00  0.00    +0.017 C 
ATOM     24  C   UNL     1      33.151 -21.358 -19.735  0.00  0.00    -0.001 C 
ATOM     25  C   UNL     1      34.731 -19.688 -20.536  0.00  0.00    +0.081 C 
ATOM     26  C   UNL     1      33.427 -20.148 -20.376  0.00  0.00    +0.019 C 
ATOM     27  C   UNL     1      37.095 -20.021 -20.194  0.00  0.00    +0.003 C 
ATOM     28  C   UNL     1      37.336 -18.814 -20.835  0.00  0.00    +0.021 C 
ATOM     29  C   UNL     1      36.244 -18.107 -21.294  0.00  0.00    +0.099 C 
ENDBRANCH  19  21
ENDBRANCH   1  19
TORSDOF 6
ENDMDL
MODEL 4
REMARK VINA RESULT:     -10.8      3.745      7.173
REMARK  Name = 17754438
REMARK  6 active torsions:
REMARK  status: ('A' for Active; 'I' for Inactive)
REMARK    1  A    between atoms: N_1  and  C_19
REMARK    2  A    between atoms: C_7  and  C_12
REMARK    3  A    between atoms: N_10  and  C_15
REMARK    4  A    between atoms: C_15  and  C_16
REMARK    5  A    between atoms: C_16  and  O_17
REMARK    6  A    between atoms: C_19  and  C_21
REMARK                            x       y       z     vdW  Elec       q    Type
REMARK                         _______ _______ _______ _____ _____    ______ ____
ROOT
ATOM      1  N   UNL     1      34.519 -14.955 -24.216  0.00  0.00    -0.163 N 
ATOM      2  N   UNL     1      35.169 -16.853 -22.821  0.00  0.00    -0.378 NA
ATOM      3  N   UNL     1      33.791 -14.778 -25.337  0.00  0.00    -0.033 NA
ATOM      4  N   UNL     1      33.606 -18.236 -24.830  0.00  0.00    -0.208 NA
ATOM      5  N   UNL     1      33.347 -15.972 -25.727  0.00  0.00    -0.086 NA
ATOM      6  C   UNL     1      34.559 -16.266 -23.861  0.00  0.00    +0.267 C 
ATOM      7  C   UNL     1      34.960 -18.189 -22.828  0.00  0.00    +0.140 C 
ATOM      8  C   UNL     1      33.807 -16.896 -24.835  0.00  0.00    +0.098 C 
ATOM      9  C   UNL     1      34.212 -18.852 -23.790  0.00  0.00    +0.195 C 
ENDROOT
BRANCH   7  12
ATOM     10  N   UNL     1      35.879 -20.389 -20.167  0.00  0.00    -0.208 N 
ATOM     11  N   UNL     1      37.014 -19.669 -20.149  0.00  0.00    -0.176 NA
ATOM     12  C   UNL     1      35.571 -18.920 -21.755  0.00  0.00    +0.064 C 
ATOM     13  C   UNL     1      34.982 -19.981 -21.110  0.00  0.00    +0.088 C 
ATOM     14  C   UNL     1      36.819 -18.773 -21.121  0.00  0.00    +0.121 C 
BRANCH  10  15
ATOM     15  C   UNL     1      35.708 -21.481 -19.239  0.00  0.00    +0.148 C 
BRANCH  15  16
ATOM     16  C   UNL     1      34.244 -21.833 -19.013  0.00  0.00    +0.161 C 
BRANCH  16  17
ATOM     17  O   UNL     1      34.052 -23.229 -19.202  0.00  0.00    -0.380 OA
ATOM     18  H   UNL     1      34.864 -23.702 -18.964  0.00  0.00    +0.211 HD
ENDBRANCH  16  17
ENDBRANCH  15  16
ENDBRANCH  10  15
ENDBRANCH   7  12
BRANCH   1  19
ATOM     19  C   UNL     1      35.146 -13.812 -23.543  0.00  0.00    +0.145 C 
BRANCH  19  21
ATOM     20  N   UNL     1      31.295 -10.083 -21.728  0.00  0.00    -0.244 NA
ATOM     21  C   UNL     1      34.134 -12.822 -23.072  0.00  0.00    -0.000 C 
ATOM     22  C   UNL     1      34.133 -11.526 -23.579  0.00  0.00    -0.001 C 
ATOM     23  C   UNL     1      33.182 -10.591 -23.137  0.00  0.00    +0.017 C 
ATOM     24  C   UNL     1      33.188 -13.188 -22.121  0.00  0.00    -0.001 C 
ATOM     25  C   UNL     1      32.219 -10.955 -22.173  0.00  0.00    +0.081 C 
ATOM     26  C   UNL     1      32.243 -12.258 -21.682  0.00  0.00    +0.019 C 
ATOM     27  C   UNL     1      33.159  -9.280 -23.632  0.00  0.00    +0.003 C 
ATOM     28  C   UNL     1      32.207  -8.379 -23.174  0.00  0.00    +0.021 C 
ATOM     29  C   UNL     1      31.306  -8.827 -22.231  0.00  0.00    +0.099 C 
ENDBRANCH  19  21
ENDBRANCH   1  19
TORSDOF 6
ENDMDL
MODEL 5
REMARK VINA RESULT:     -10.7      2.526      3.947
REMARK  Name = 17754438
REMARK  6 active torsions:
REMARK  status: ('A' for Active; 'I' for Inactive)
REMARK    1  A    between atoms: N_1  and  C_19
REMARK    2  A    between atoms: C_7  and  C_12
REMARK    3  A    between atoms: N_10  and  C_15
REMARK    4  A    between atoms: C_15  and  C_16
REMARK    5  A    between atoms: C_16  and  O_17
REMARK    6  A    between atoms: C_19  and  C_21
REMARK                            x       y       z     vdW  Elec       q    Type
REMARK                         _______ _______ _______ _____ _____    ______ ____
ROOT
ATOM      1  N   UNL     1      32.995 -22.886 -17.330  0.00  0.00    -0.163 N 
ATOM      2  N   UNL     1      34.079 -23.565 -15.248  0.00  0.00    -0.378 NA
ATOM      3  N   UNL     1      31.786 -22.404 -17.683  0.00  0.00    -0.033 NA
ATOM      4  N   UNL     1      31.487 -22.786 -14.217  0.00  0.00    -0.208 NA
ATOM      5  N   UNL     1      31.051 -22.297 -16.576  0.00  0.00    -0.086 NA
ATOM      6  C   UNL     1      33.063 -23.099 -15.990  0.00  0.00    +0.267 C 
ATOM      7  C   UNL     1      33.736 -23.628 -13.941  0.00  0.00    +0.140 C 
ATOM      8  C   UNL     1      31.817 -22.719 -15.529  0.00  0.00    +0.098 C 
ATOM      9  C   UNL     1      32.495 -23.254 -13.446  0.00  0.00    +0.195 C 
ENDROOT
BRANCH   7  12
ATOM     10  N   UNL     1      36.651 -24.913 -12.325  0.00  0.00    -0.208 N 
ATOM     11  N   UNL     1      35.921 -24.776 -11.205  0.00  0.00    -0.176 NA
ATOM     12  C   UNL     1      34.753 -24.115 -13.053  0.00  0.00    +0.064 C 
ATOM     13  C   UNL     1      35.997 -24.531 -13.459  0.00  0.00    +0.088 C 
ATOM     14  C   UNL     1      34.762 -24.288 -11.656  0.00  0.00    +0.121 C 
BRANCH  10  15
ATOM     15  C   UNL     1      37.999 -25.424 -12.243  0.00  0.00    +0.148 C 
BRANCH  15  16
ATOM     16  C   UNL     1      39.042 -24.315 -12.206  0.00  0.00    +0.161 C 
BRANCH  16  17
ATOM     17  O   UNL     1      38.559 -23.229 -11.425  0.00  0.00    -0.380 OA
ATOM     18  H   UNL     1      39.246 -22.950 -10.800  0.00  0.00    +0.211 HD
ENDBRANCH  16  17
ENDBRANCH  15  16
ENDBRANCH  10  15
ENDBRANCH   7  12
BRANCH   1  19
ATOM     19  C   UNL     1      34.033 -23.113 -18.341  0.00  0.00    +0.145 C 
BRANCH  19  21
ATOM     20  N   UNL     1      34.945 -18.483 -21.464  0.00  0.00    -0.244 NA
ATOM     21  C   UNL     1      34.284 -21.895 -19.163  0.00  0.00    -0.000 C 
ATOM     22  C   UNL     1      35.583 -21.430 -19.348  0.00  0.00    -0.001 C 
ATOM     23  C   UNL     1      35.823 -20.281 -20.122  0.00  0.00    +0.017 C 
ATOM     24  C   UNL     1      33.222 -21.215 -19.747  0.00  0.00    -0.001 C 
ATOM     25  C   UNL     1      34.750 -19.587 -20.718  0.00  0.00    +0.081 C 
ATOM     26  C   UNL     1      33.461 -20.074 -20.516  0.00  0.00    +0.019 C 
ATOM     27  C   UNL     1      37.120 -19.793 -20.325  0.00  0.00    +0.003 C 
ATOM     28  C   UNL     1      37.325 -18.655 -21.094  0.00  0.00    +0.021 C 
ATOM     29  C   UNL     1      36.213 -18.044 -21.636  0.00  0.00    +0.099 C 
ENDBRANCH  19  21
ENDBRANCH   1  19
TORSDOF 6
ENDMDL
MODEL 6
REMARK VINA RESULT:     -10.7      4.243      6.455
REMARK  Name = 17754438
REMARK  6 active torsions:
REMARK  status: ('A' for Active; 'I' for Inactive)
REMARK    1  A    between atoms: N_1  and  C_19
REMARK    2  A    between atoms: C_7  and  C_12
REMARK    3  A    between atoms: N_10  and  C_15
REMARK    4  A    between atoms: C_15  and  C_16
REMARK    5  A    between atoms: C_16  and  O_17
REMARK    6  A    between atoms: C_19  and  C_21
REMARK                            x       y       z     vdW  Elec       q    Type
REMARK                         _______ _______ _______ _____ _____    ______ ____
ROOT
ATOM      1  N   UNL     1      34.331 -22.961 -17.329  0.00  0.00    -0.163 N 
ATOM      2  N   UNL     1      32.002 -23.080 -16.601  0.00  0.00    -0.378 NA
ATOM      3  N   UNL     1      35.529 -22.805 -16.729  0.00  0.00    -0.033 NA
ATOM      4  N   UNL     1      33.297 -22.719 -14.035  0.00  0.00    -0.208 NA
ATOM      5  N   UNL     1      35.317 -22.692 -15.418  0.00  0.00    -0.086 NA
ATOM      6  C   UNL     1      33.324 -22.953 -16.417  0.00  0.00    +0.267 C 
ATOM      7  C   UNL     1      31.339 -23.017 -15.423  0.00  0.00    +0.140 C 
ATOM      8  C   UNL     1      33.972 -22.780 -15.208  0.00  0.00    +0.098 C 
ATOM      9  C   UNL     1      31.959 -22.844 -14.194  0.00  0.00    +0.195 C 
ENDROOT
BRANCH   7  12
ATOM     10  N   UNL     1      27.808 -22.639 -15.803  0.00  0.00    -0.208 N 
ATOM     11  N   UNL     1      27.772 -23.939 -15.463  0.00  0.00    -0.176 NA
ATOM     12  C   UNL     1      29.912 -23.142 -15.504  0.00  0.00    +0.064 C 
ATOM     13  C   UNL     1      29.066 -22.114 -15.842  0.00  0.00    +0.088 C 
ATOM     14  C   UNL     1      29.061 -24.240 -15.281  0.00  0.00    +0.121 C 
BRANCH  10  15
ATOM     15  C   UNL     1      26.578 -21.940 -16.089  0.00  0.00    +0.148 C 
BRANCH  15  16
ATOM     16  C   UNL     1      26.480 -21.502 -17.544  0.00  0.00    +0.161 C 
BRANCH  16  17
ATOM     17  O   UNL     1      26.268 -20.097 -17.608  0.00  0.00    -0.380 OA
ATOM     18  H   UNL     1      25.369 -19.920 -17.926  0.00  0.00    +0.211 HD
ENDBRANCH  16  17
ENDBRANCH  15  16
ENDBRANCH  10  15
ENDBRANCH   7  12
BRANCH   1  19
ATOM     19  C   UNL     1      34.238 -23.114 -18.785  0.00  0.00    +0.145 C 
BRANCH  19  21
ATOM     20  N   UNL     1      34.905 -18.177 -21.468  0.00  0.00    -0.244 NA
ATOM     21  C   UNL     1      34.424 -21.815 -19.492  0.00  0.00    -0.000 C 
ATOM     22  C   UNL     1      35.705 -21.322 -19.726  0.00  0.00    -0.001 C 
ATOM     23  C   UNL     1      35.884 -20.097 -20.392  0.00  0.00    +0.017 C 
ATOM     24  C   UNL     1      33.320 -21.087 -19.920  0.00  0.00    -0.001 C 
ATOM     25  C   UNL     1      34.768 -19.354 -20.829  0.00  0.00    +0.081 C 
ATOM     26  C   UNL     1      33.499 -19.870 -20.581  0.00  0.00    +0.019 C 
ATOM     27  C   UNL     1      37.162 -19.578 -20.641  0.00  0.00    +0.003 C 
ATOM     28  C   UNL     1      37.306 -18.365 -21.300  0.00  0.00    +0.021 C 
ATOM     29  C   UNL     1      36.156 -17.711 -21.689  0.00  0.00    +0.099 C 
ENDBRANCH  19  21
ENDBRANCH   1  19
TORSDOF 6
ENDMDL
MODEL 7
REMARK VINA RESULT:     -10.3      1.761      2.499
REMARK  Name = 17754438
REMARK  6 active torsions:
REMARK  status: ('A' for Active; 'I' for Inactive)
REMARK    1  A    between atoms: N_1  and  C_19
REMARK    2  A    between atoms: C_7  and  C_12
REMARK    3  A    between atoms: N_10  and  C_15
REMARK    4  A    between atoms: C_15  and  C_16
REMARK    5  A    between atoms: C_16  and  O_17
REMARK    6  A    between atoms: C_19  and  C_21
REMARK                            x       y       z     vdW  Elec       q    Type
REMARK                         _______ _______ _______ _____ _____    ______ ____
ROOT
ATOM      1  N   UNL     1      34.770 -21.697 -18.835  0.00  0.00    -0.163 N 
ATOM      2  N   UNL     1      35.196 -22.884 -16.742  0.00  0.00    -0.378 NA
ATOM      3  N   UNL     1      33.681 -21.282 -19.512  0.00  0.00    -0.033 NA
ATOM      4  N   UNL     1      32.300 -22.822 -16.688  0.00  0.00    -0.208 NA
ATOM      5  N   UNL     1      32.605 -21.641 -18.811  0.00  0.00    -0.086 NA
ATOM      6  C   UNL     1      34.419 -22.331 -17.685  0.00  0.00    +0.267 C 
ATOM      7  C   UNL     1      34.447 -23.417 -15.749  0.00  0.00    +0.140 C 
ATOM      8  C   UNL     1      33.038 -22.284 -17.689  0.00  0.00    +0.098 C 
ATOM      9  C   UNL     1      33.060 -23.387 -15.723  0.00  0.00    +0.195 C 
ENDROOT
BRANCH   7  12
ATOM     10  N   UNL     1      36.594 -25.316 -13.617  0.00  0.00    -0.208 N 
ATOM     11  N   UNL     1      35.974 -24.647 -12.629  0.00  0.00    -0.176 NA
ATOM     12  C   UNL     1      35.178 -24.038 -14.682  0.00  0.00    +0.064 C 
ATOM     13  C   UNL     1      36.154 -24.988 -14.866  0.00  0.00    +0.088 C 
ATOM     14  C   UNL     1      35.111 -23.868 -13.286  0.00  0.00    +0.121 C 
BRANCH  10  15
ATOM     15  C   UNL     1      37.624 -26.275 -13.297  0.00  0.00    +0.148 C 
BRANCH  15  16
ATOM     16  C   UNL     1      38.988 -25.625 -13.105  0.00  0.00    +0.161 C 
BRANCH  16  17
ATOM     17  O   UNL     1      38.830 -24.224 -12.924  0.00  0.00    -0.380 OA
ATOM     18  H   UNL     1      38.121 -24.058 -12.283  0.00  0.00    +0.211 HD
ENDBRANCH  16  17
ENDBRANCH  15  16
ENDBRANCH  10  15
ENDBRANCH   7  12
BRANCH   1  19
ATOM     19  C   UNL     1      36.117 -21.445 -19.359  0.00  0.00    +0.145 C 
BRANCH  19  21
ATOM     20  N   UNL     1      36.202 -17.165 -23.060  0.00  0.00    -0.244 NA
ATOM     21  C   UNL     1      36.131 -20.320 -20.338  0.00  0.00    -0.000 C 
ATOM     22  C   UNL     1      35.176 -20.261 -21.350  0.00  0.00    -0.001 C 
ATOM     23  C   UNL     1      35.186 -19.203 -22.275  0.00  0.00    +0.017 C 
ATOM     24  C   UNL     1      37.098 -19.327 -20.248  0.00  0.00    -0.001 C 
ATOM     25  C   UNL     1      36.164 -18.191 -22.189  0.00  0.00    +0.081 C 
ATOM     26  C   UNL     1      37.107 -18.275 -21.168  0.00  0.00    +0.019 C 
ATOM     27  C   UNL     1      34.237 -19.119 -23.302  0.00  0.00    +0.003 C 
ATOM     28  C   UNL     1      34.274 -18.062 -24.201  0.00  0.00    +0.021 C 
ATOM     29  C   UNL     1      35.268 -17.120 -24.037  0.00  0.00    +0.099 C 
ENDBRANCH  19  21
ENDBRANCH   1  19
TORSDOF 6
ENDMDL
MODEL 8
REMARK VINA RESULT:     -10.3      7.422      8.944
REMARK  Name = 17754438
REMARK  6 active torsions:
REMARK  status: ('A' for Active; 'I' for Inactive)
REMARK    1  A    between atoms: N_1  and  C_19
REMARK    2  A    between atoms: C_7  and  C_12
REMARK    3  A    between atoms: N_10  and  C_15
REMARK    4  A    between atoms: C_15  and  C_16
REMARK    5  A    between atoms: C_16  and  O_17
REMARK    6  A    between atoms: C_19  and  C_21
REMARK                            x       y       z     vdW  Elec       q    Type
REMARK                         _______ _______ _______ _____ _____    ______ ____
ROOT
ATOM      1  N   UNL     1      35.018 -23.771 -13.193  0.00  0.00    -0.163 N 
ATOM      2  N   UNL     1      37.013 -24.902 -14.037  0.00  0.00    -0.378 NA
ATOM      3  N   UNL     1      34.426 -23.615 -11.992  0.00  0.00    -0.033 NA
ATOM      4  N   UNL     1      37.226 -25.571 -11.226  0.00  0.00    -0.208 NA
ATOM      5  N   UNL     1      35.162 -24.261 -11.087  0.00  0.00    -0.086 NA
ATOM      6  C   UNL     1      36.146 -24.522 -13.087  0.00  0.00    +0.267 C 
ATOM      7  C   UNL     1      38.012 -25.648 -13.511  0.00  0.00    +0.140 C 
ATOM      8  C   UNL     1      36.219 -24.823 -11.740  0.00  0.00    +0.098 C 
ATOM      9  C   UNL     1      38.114 -25.968 -12.165  0.00  0.00    +0.195 C 
ENDROOT
BRANCH   7  12
ATOM     10  N   UNL     1      40.037 -27.358 -15.906  0.00  0.00    -0.208 N 
ATOM     11  N   UNL     1      40.856 -26.302 -15.761  0.00  0.00    -0.176 NA
ATOM     12  C   UNL     1      39.000 -26.111 -14.443  0.00  0.00    +0.064 C 
ATOM     13  C   UNL     1      38.912 -27.292 -15.138  0.00  0.00    +0.088 C 
ATOM     14  C   UNL     1      40.217 -25.544 -14.866  0.00  0.00    +0.121 C 
BRANCH  10  15
ATOM     15  C   UNL     1      40.393 -28.421 -16.816  0.00  0.00    +0.148 C 
BRANCH  15  16
ATOM     16  C   UNL     1      41.699 -29.104 -16.433  0.00  0.00    +0.161 C 
BRANCH  16  17
ATOM     17  O   UNL     1      41.906 -28.992 -15.031  0.00  0.00    -0.380 OA
ATOM     18  H   UNL     1      41.261 -29.543 -14.563  0.00  0.00    +0.211 HD
ENDBRANCH  16  17
ENDBRANCH  15  16
ENDBRANCH  10  15
ENDBRANCH   7  12
BRANCH   1  19
ATOM     19  C   UNL     1      34.438 -23.168 -14.397  0.00  0.00    +0.145 C 
BRANCH  19  21
ATOM     20  N   UNL     1      29.026 -24.680 -15.070  0.00  0.00    -0.244 NA
ATOM     21  C   UNL     1      33.011 -23.559 -14.582  0.00  0.00    -0.000 C 
ATOM     22  C   UNL     1      32.174 -22.793 -15.388  0.00  0.00    -0.001 C 
ATOM     23  C   UNL     1      30.828 -23.159 -15.564  0.00  0.00    +0.017 C 
ATOM     24  C   UNL     1      32.508 -24.688 -13.947  0.00  0.00    -0.001 C 
ATOM     25  C   UNL     1      30.311 -24.303 -14.923  0.00  0.00    +0.081 C 
ATOM     26  C   UNL     1      31.170 -25.050 -14.122  0.00  0.00    +0.019 C 
ATOM     27  C   UNL     1      29.964 -22.406 -16.371  0.00  0.00    +0.003 C 
ATOM     28  C   UNL     1      28.640 -22.792 -16.524  0.00  0.00    +0.021 C 
ATOM     29  C   UNL     1      28.225 -23.927 -15.858  0.00  0.00    +0.099 C 
ENDBRANCH  19  21
ENDBRANCH   1  19
TORSDOF 6
ENDMDL
MODEL 9
REMARK VINA RESULT:     -10.3      3.679      9.643
REMARK  Name = 17754438
REMARK  6 active torsions:
REMARK  status: ('A' for Active; 'I' for Inactive)
REMARK    1  A    between atoms: N_1  and  C_19
REMARK    2  A    between atoms: C_7  and  C_12
REMARK    3  A    between atoms: N_10  and  C_15
REMARK    4  A    between atoms: C_15  and  C_16
REMARK    5  A    between atoms: C_16  and  O_17
REMARK    6  A    between atoms: C_19  and  C_21
REMARK                            x       y       z     vdW  Elec       q    Type
REMARK                         _______ _______ _______ _____ _____    ______ ____
ROOT
ATOM      1  N   UNL     1      35.011 -21.114 -19.476  0.00  0.00    -0.163 N 
ATOM      2  N   UNL     1      34.813 -19.576 -21.365  0.00  0.00    -0.378 NA
ATOM      3  N   UNL     1      35.969 -21.436 -18.584  0.00  0.00    -0.033 NA
ATOM      4  N   UNL     1      37.535 -19.005 -20.555  0.00  0.00    -0.208 NA
ATOM      5  N   UNL     1      37.045 -20.699 -18.856  0.00  0.00    -0.086 NA
ATOM      6  C   UNL     1      35.451 -20.162 -20.342  0.00  0.00    +0.267 C 
ATOM      7  C   UNL     1      35.610 -18.673 -21.981  0.00  0.00    +0.140 C 
ATOM      8  C   UNL     1      36.746 -19.912 -19.930  0.00  0.00    +0.098 C 
ATOM      9  C   UNL     1      36.914 -18.399 -21.593  0.00  0.00    +0.195 C 
ENDROOT
BRANCH   7  12
ATOM     10  N   UNL     1      34.375 -16.371 -24.416  0.00  0.00    -0.208 N 
ATOM     11  N   UNL     1      33.964 -17.480 -25.054  0.00  0.00    -0.176 NA
ATOM     12  C   UNL     1      35.026 -17.984 -23.095  0.00  0.00    +0.064 C 
ATOM     13  C   UNL     1      35.016 -16.617 -23.238  0.00  0.00    +0.088 C 
ATOM     14  C   UNL     1      34.365 -18.462 -24.242  0.00  0.00    +0.121 C 
BRANCH  10  15
ATOM     15  C   UNL     1      34.121 -15.075 -24.998  0.00  0.00    +0.148 C 
BRANCH  15  16
ATOM     16  C   UNL     1      33.598 -14.070 -23.981  0.00  0.00    +0.161 C 
BRANCH  16  17
ATOM     17  O   UNL     1      34.620 -13.135 -23.661  0.00  0.00    -0.380 OA
ATOM     18  H   UNL     1      35.454 -13.414 -24.071  0.00  0.00    +0.211 HD
ENDBRANCH  16  17
ENDBRANCH  15  16
ENDBRANCH  10  15
ENDBRANCH   7  12
BRANCH   1  19
ATOM     19  C   UNL     1      33.698 -21.765 -19.432  0.00  0.00    +0.145 C 
BRANCH  19  21
ATOM     20  N   UNL     1      32.526 -23.722 -14.253  0.00  0.00    -0.244 NA
ATOM     21  C   UNL     1      33.379 -22.279 -18.069  0.00  0.00    -0.000 C 
ATOM     22  C   UNL     1      32.074 -22.226 -17.589  0.00  0.00    -0.001 C 
ATOM     23  C   UNL     1      31.769 -22.710 -16.304  0.00  0.00    +0.017 C 
ATOM     24  C   UNL     1      34.383 -22.812 -17.271  0.00  0.00    -0.001 C 
ATOM     25  C   UNL     1      32.784 -23.252 -15.489  0.00  0.00    +0.081 C 
ATOM     26  C   UNL     1      34.080 -23.292 -15.994  0.00  0.00    +0.019 C 
ATOM     27  C   UNL     1      30.464 -22.669 -15.796  0.00  0.00    +0.003 C 
ATOM     28  C   UNL     1      30.195 -23.153 -14.523  0.00  0.00    +0.021 C 
ATOM     29  C   UNL     1      31.253 -23.665 -13.800  0.00  0.00    +0.099 C 
ENDBRANCH  19  21
ENDBRANCH   1  19
TORSDOF 6
ENDMDL
