MODEL 1
REMARK VINA RESULT:     -11.0      0.000      0.000
REMARK  Name = 176407
REMARK  5 active torsions:
REMARK  status: ('A' for Active; 'I' for Inactive)
REMARK    1  A    between atoms: N_1  and  C_20
REMARK    2  A    between atoms: C_11  and  C_16
REMARK    3  A    between atoms: C_20  and  C_21
REMARK    4  A    between atoms: C_21  and  C_22
REMARK    5  A    between atoms: C_27  and  O_28
REMARK                            x       y       z     vdW  Elec       q    Type
REMARK                         _______ _______ _______ _____ _____    ______ ____
ROOT
ATOM      1  N   UNL     1      36.049 -17.432 -22.754  0.00  0.00    -0.258 N 
ATOM      2  N   UNL     1      33.791 -14.171 -23.236  0.00  0.00    -0.059 N 
ATOM      3  N   UNL     1      35.021 -15.576 -21.814  0.00  0.00    -0.245 NA
ATOM      4  N   UNL     1      34.803 -15.997 -24.158  0.00  0.00    -0.294 NA
ATOM      5  N   UNL     1      33.050 -13.053 -23.244  0.00  0.00    -0.090 NA
ATOM      6  N   UNL     1      33.823 -13.552 -21.148  0.00  0.00    -0.267 NA
ATOM      7  N   UNL     1      33.547 -14.545 -25.550  0.00  0.00    -0.318 N 
ATOM      8  C   UNL     1      35.275 -16.302 -22.881  0.00  0.00    +0.213 C 
ATOM      9  C   UNL     1      34.255 -14.472 -21.987  0.00  0.00    +0.251 C 
ATOM     10  C   UNL     1      34.066 -14.943 -24.348  0.00  0.00    +0.282 C 
ATOM     11  C   UNL     1      33.100 -12.716 -21.953  0.00  0.00    +0.153 C 
ATOM     12  H   UNL     1      36.237 -17.972 -23.556  0.00  0.00    +0.160 HD
ATOM     13  H   UNL     1      32.997 -13.729 -25.604  0.00  0.00    +0.146 HD
ATOM     14  H   UNL     1      33.725 -15.072 -26.362  0.00  0.00    +0.146 HD
ENDROOT
BRANCH  11  16
ATOM     15  O   UNL     1      32.185 -10.392 -22.153  0.00  0.00    -0.439 OA
ATOM     16  C   UNL     1      32.419 -11.518 -21.430  0.00  0.00    +0.221 C 
ATOM     17  C   UNL     1      31.935 -11.378 -20.149  0.00  0.00    +0.052 C 
ATOM     18  C   UNL     1      31.367 -10.084 -20.083  0.00  0.00    +0.045 C 
ATOM     19  C   UNL     1      31.545  -9.525 -21.326  0.00  0.00    +0.181 C 
ENDBRANCH  11  16
BRANCH   1  20
ATOM     20  C   UNL     1      36.589 -17.844 -21.499  0.00  0.00    +0.103 C 
BRANCH  20  21
ATOM     21  C   UNL     1      36.734 -19.364 -21.439  0.00  0.00    +0.048 C 
BRANCH  21  22
ATOM     22  C   UNL     1      35.618 -20.036 -20.676  0.00  0.00    -0.020 C 
ATOM     23  C   UNL     1      35.928 -20.991 -19.720  0.00  0.00    -0.001 C 
ATOM     24  C   UNL     1      34.305 -19.686 -20.944  0.00  0.00    -0.001 C 
ATOM     25  C   UNL     1      34.898 -21.613 -19.016  0.00  0.00    +0.036 C 
ATOM     26  C   UNL     1      33.274 -20.307 -20.240  0.00  0.00    +0.036 C 
ATOM     27  C   UNL     1      33.571 -21.271 -19.275  0.00  0.00    +0.134 C 
BRANCH  27  28
ATOM     28  O   UNL     1      32.566 -21.877 -18.586  0.00  0.00    -0.506 OA
ATOM     29  H   UNL     1      31.703 -21.913 -18.950  0.00  0.00    +0.292 HD
ENDBRANCH  27  28
ENDBRANCH  21  22
ENDBRANCH  20  21
ENDBRANCH   1  20
TORSDOF 5
ENDMDL
MODEL 2
REMARK VINA RESULT:     -10.8      1.821      2.270
REMARK  Name = 176407
REMARK  5 active torsions:
REMARK  status: ('A' for Active; 'I' for Inactive)
REMARK    1  A    between atoms: N_1  and  C_20
REMARK    2  A    between atoms: C_11  and  C_16
REMARK    3  A    between atoms: C_20  and  C_21
REMARK    4  A    between atoms: C_21  and  C_22
REMARK    5  A    between atoms: C_27  and  O_28
REMARK                            x       y       z     vdW  Elec       q    Type
REMARK                         _______ _______ _______ _____ _____    ______ ____
ROOT
ATOM      1  N   UNL     1      35.003 -17.279 -23.259  0.00  0.00    -0.258 N 
ATOM      2  N   UNL     1      33.920 -13.667 -24.576  0.00  0.00    -0.059 N 
ATOM      3  N   UNL     1      34.952 -14.983 -22.930  0.00  0.00    -0.245 NA
ATOM      4  N   UNL     1      33.972 -15.926 -24.897  0.00  0.00    -0.294 NA
ATOM      5  N   UNL     1      33.622 -12.397 -24.888  0.00  0.00    -0.090 NA
ATOM      6  N   UNL     1      34.729 -12.549 -22.890  0.00  0.00    -0.267 NA
ATOM      7  N   UNL     1      32.940 -14.549 -26.529  0.00  0.00    -0.318 N 
ATOM      8  C   UNL     1      34.647 -16.020 -23.680  0.00  0.00    +0.213 C 
ATOM      9  C   UNL     1      34.581 -13.762 -23.384  0.00  0.00    +0.251 C 
ATOM     10  C   UNL     1      33.605 -14.764 -25.353  0.00  0.00    +0.282 C 
ATOM     11  C   UNL     1      34.133 -11.758 -23.833  0.00  0.00    +0.153 C 
ATOM     12  H   UNL     1      34.773 -18.053 -23.823  0.00  0.00    +0.160 HD
ATOM     13  H   UNL     1      32.701 -13.632 -26.800  0.00  0.00    +0.146 HD
ATOM     14  H   UNL     1      32.701 -15.310 -27.107  0.00  0.00    +0.146 HD
ENDROOT
BRANCH  11  16
ATOM     15  O   UNL     1      33.014  -9.624 -23.148  0.00  0.00    -0.439 OA
ATOM     16  C   UNL     1      34.062 -10.292 -23.696  0.00  0.00    +0.221 C 
ATOM     17  C   UNL     1      35.037  -9.411 -24.101  0.00  0.00    +0.052 C 
ATOM     18  C   UNL     1      34.557  -8.118 -23.782  0.00  0.00    +0.045 C 
ATOM     19  C   UNL     1      33.323  -8.302 -23.204  0.00  0.00    +0.181 C 
ENDBRANCH  11  16
BRANCH   1  20
ATOM     20  C   UNL     1      35.698 -17.501 -22.031  0.00  0.00    +0.103 C 
BRANCH  20  21
ATOM     21  C   UNL     1      36.140 -18.958 -21.909  0.00  0.00    +0.048 C 
BRANCH  21  22
ATOM     22  C   UNL     1      35.252 -19.773 -21.001  0.00  0.00    -0.020 C 
ATOM     23  C   UNL     1      33.877 -19.622 -21.082  0.00  0.00    -0.001 C 
ATOM     24  C   UNL     1      35.827 -20.658 -20.103  0.00  0.00    -0.001 C 
ATOM     25  C   UNL     1      33.056 -20.375 -20.243  0.00  0.00    +0.036 C 
ATOM     26  C   UNL     1      35.007 -21.410 -19.264  0.00  0.00    +0.036 C 
ATOM     27  C   UNL     1      33.621 -21.269 -19.334  0.00  0.00    +0.134 C 
BRANCH  27  28
ATOM     28  O   UNL     1      32.818 -22.004 -18.516  0.00  0.00    -0.506 OA
ATOM     29  H   UNL     1      33.177 -22.714 -18.022  0.00  0.00    +0.292 HD
ENDBRANCH  27  28
ENDBRANCH  21  22
ENDBRANCH  20  21
ENDBRANCH   1  20
TORSDOF 5
ENDMDL
MODEL 3
REMARK VINA RESULT:     -10.8      6.668     11.437
REMARK  Name = 176407
REMARK  5 active torsions:
REMARK  status: ('A' for Active; 'I' for Inactive)
REMARK    1  A    between atoms: N_1  and  C_20
REMARK    2  A    between atoms: C_11  and  C_16
REMARK    3  A    between atoms: C_20  and  C_21
REMARK    4  A    between atoms: C_21  and  C_22
REMARK    5  A    between atoms: C_27  and  O_28
REMARK                            x       y       z     vdW  Elec       q    Type
REMARK                         _______ _______ _______ _____ _____    ______ ____
ROOT
ATOM      1  N   UNL     1      32.674 -22.008 -18.551  0.00  0.00    -0.258 N 
ATOM      2  N   UNL     1      33.820 -23.636 -15.087  0.00  0.00    -0.059 N 
ATOM      3  N   UNL     1      34.368 -22.918 -17.253  0.00  0.00    -0.245 NA
ATOM      4  N   UNL     1      32.155 -22.740 -16.366  0.00  0.00    -0.294 NA
ATOM      5  N   UNL     1      34.347 -24.191 -13.986  0.00  0.00    -0.090 NA
ATOM      6  N   UNL     1      35.908 -23.915 -15.637  0.00  0.00    -0.267 NA
ATOM      7  N   UNL     1      31.654 -23.482 -14.169  0.00  0.00    -0.318 N 
ATOM      8  C   UNL     1      33.105 -22.571 -17.372  0.00  0.00    +0.213 C 
ATOM      9  C   UNL     1      34.748 -23.469 -16.074  0.00  0.00    +0.251 C 
ATOM     10  C   UNL     1      32.495 -23.267 -15.227  0.00  0.00    +0.282 C 
ATOM     11  C   UNL     1      35.617 -24.342 -14.371  0.00  0.00    +0.153 C 
ATOM     12  H   UNL     1      31.727 -21.751 -18.636  0.00  0.00    +0.160 HD
ATOM     13  H   UNL     1      31.998 -23.888 -13.340  0.00  0.00    +0.146 HD
ATOM     14  H   UNL     1      30.704 -23.230 -14.236  0.00  0.00    +0.146 HD
ENDROOT
BRANCH  11  16
ATOM     15  O   UNL     1      36.404 -25.348 -12.216  0.00  0.00    -0.439 OA
ATOM     16  C   UNL     1      36.639 -24.929 -13.487  0.00  0.00    +0.221 C 
ATOM     17  C   UNL     1      37.958 -25.129 -13.824  0.00  0.00    +0.052 C 
ATOM     18  C   UNL     1      38.571 -25.708 -12.688  0.00  0.00    +0.045 C 
ATOM     19  C   UNL     1      37.584 -25.821 -11.737  0.00  0.00    +0.181 C 
ENDBRANCH  11  16
BRANCH   1  20
ATOM     20  C   UNL     1      33.555 -21.785 -19.652  0.00  0.00    +0.103 C 
BRANCH  20  21
ATOM     21  C   UNL     1      33.391 -20.370 -20.204  0.00  0.00    +0.048 C 
BRANCH  21  22
ATOM     22  C   UNL     1      34.679 -19.788 -20.734  0.00  0.00    -0.020 C 
ATOM     23  C   UNL     1      35.878 -20.123 -20.124  0.00  0.00    -0.001 C 
ATOM     24  C   UNL     1      34.640 -18.929 -21.821  0.00  0.00    -0.001 C 
ATOM     25  C   UNL     1      37.067 -19.585 -20.613  0.00  0.00    +0.036 C 
ATOM     26  C   UNL     1      35.830 -18.391 -22.310  0.00  0.00    +0.036 C 
ATOM     27  C   UNL     1      37.044 -18.719 -21.706  0.00  0.00    +0.134 C 
BRANCH  27  28
ATOM     28  O   UNL     1      38.206 -18.195 -22.184  0.00  0.00    -0.506 OA
ATOM     29  H   UNL     1      38.322 -17.267 -22.217  0.00  0.00    +0.292 HD
ENDBRANCH  27  28
ENDBRANCH  21  22
ENDBRANCH  20  21
ENDBRANCH   1  20
TORSDOF 5
ENDMDL
MODEL 4
REMARK VINA RESULT:     -10.7      5.415      9.846
REMARK  Name = 176407
REMARK  5 active torsions:
REMARK  status: ('A' for Active; 'I' for Inactive)
REMARK    1  A    between atoms: N_1  and  C_20
REMARK    2  A    between atoms: C_11  and  C_16
REMARK    3  A    between atoms: C_20  and  C_21
REMARK    4  A    between atoms: C_21  and  C_22
REMARK    5  A    between atoms: C_27  and  O_28
REMARK                            x       y       z     vdW  Elec       q    Type
REMARK                         _______ _______ _______ _____ _____    ______ ____
ROOT
ATOM      1  N   UNL     1      36.279 -20.959 -19.531  0.00  0.00    -0.258 N 
ATOM      2  N   UNL     1      34.167 -22.780 -16.670  0.00  0.00    -0.059 N 
ATOM      3  N   UNL     1      34.216 -21.658 -18.730  0.00  0.00    -0.245 NA
ATOM      4  N   UNL     1      36.195 -22.092 -17.460  0.00  0.00    -0.294 NA
ATOM      5  N   UNL     1      33.332 -23.361 -15.796  0.00  0.00    -0.090 NA
ATOM      6  N   UNL     1      32.221 -22.520 -17.612  0.00  0.00    -0.267 NA
ATOM      7  N   UNL     1      36.090 -23.229 -15.381  0.00  0.00    -0.318 N 
ATOM      8  C   UNL     1      35.519 -21.579 -18.567  0.00  0.00    +0.213 C 
ATOM      9  C   UNL     1      33.508 -22.277 -17.755  0.00  0.00    +0.251 C 
ATOM     10  C   UNL     1      35.537 -22.690 -16.511  0.00  0.00    +0.282 C 
ATOM     11  C   UNL     1      32.163 -23.176 -16.413  0.00  0.00    +0.153 C 
ATOM     12  H   UNL     1      37.254 -20.902 -19.405  0.00  0.00    +0.160 HD
ATOM     13  H   UNL     1      35.514 -23.667 -14.712  0.00  0.00    +0.146 HD
ATOM     14  H   UNL     1      37.062 -23.183 -15.238  0.00  0.00    +0.146 HD
ENDROOT
BRANCH  11  16
ATOM     15  O   UNL     1      29.671 -23.143 -16.155  0.00  0.00    -0.439 OA
ATOM     16  C   UNL     1      30.891 -23.651 -15.840  0.00  0.00    +0.221 C 
ATOM     17  C   UNL     1      30.768 -24.663 -14.915  0.00  0.00    +0.052 C 
ATOM     18  C   UNL     1      29.384 -24.783 -14.645  0.00  0.00    +0.045 C 
ATOM     19  C   UNL     1      28.760 -23.837 -15.424  0.00  0.00    +0.181 C 
ENDBRANCH  11  16
BRANCH   1  20
ATOM     20  C   UNL     1      35.699 -20.397 -20.708  0.00  0.00    +0.103 C 
BRANCH  20  21
ATOM     21  C   UNL     1      36.391 -19.088 -21.087  0.00  0.00    +0.048 C 
BRANCH  21  22
ATOM     22  C   UNL     1      35.739 -18.390 -22.254  0.00  0.00    -0.020 C 
ATOM     23  C   UNL     1      35.082 -19.142 -23.215  0.00  0.00    -0.001 C 
ATOM     24  C   UNL     1      35.809 -17.008 -22.344  0.00  0.00    -0.001 C 
ATOM     25  C   UNL     1      34.480 -18.496 -24.295  0.00  0.00    +0.036 C 
ATOM     26  C   UNL     1      35.207 -16.363 -23.424  0.00  0.00    +0.036 C 
ATOM     27  C   UNL     1      34.542 -17.106 -24.399  0.00  0.00    +0.134 C 
BRANCH  27  28
ATOM     28  O   UNL     1      33.954 -16.476 -25.453  0.00  0.00    -0.506 OA
ATOM     29  H   UNL     1      33.246 -15.881 -25.307  0.00  0.00    +0.292 HD
ENDBRANCH  27  28
ENDBRANCH  21  22
ENDBRANCH  20  21
ENDBRANCH   1  20
TORSDOF 5
ENDMDL
MODEL 5
REMARK VINA RESULT:     -10.6      2.524      3.254
REMARK  Name = 176407
REMARK  5 active torsions:
REMARK  status: ('A' for Active; 'I' for Inactive)
REMARK    1  A    between atoms: N_1  and  C_20
REMARK    2  A    between atoms: C_11  and  C_16
REMARK    3  A    between atoms: C_20  and  C_21
REMARK    4  A    between atoms: C_21  and  C_22
REMARK    5  A    between atoms: C_27  and  O_28
REMARK                            x       y       z     vdW  Elec       q    Type
REMARK                         _______ _______ _______ _____ _____    ______ ____
ROOT
ATOM      1  N   UNL     1      34.303 -16.250 -24.646  0.00  0.00    -0.258 N 
ATOM      2  N   UNL     1      33.798 -12.334 -25.252  0.00  0.00    -0.059 N 
ATOM      3  N   UNL     1      34.554 -14.076 -23.874  0.00  0.00    -0.245 NA
ATOM      4  N   UNL     1      33.553 -14.473 -26.009  0.00  0.00    -0.294 NA
ATOM      5  N   UNL     1      33.695 -10.998 -25.315  0.00  0.00    -0.090 NA
ATOM      6  N   UNL     1      34.669 -11.689 -23.362  0.00  0.00    -0.267 NA
ATOM      7  N   UNL     1      32.805 -12.674 -27.362  0.00  0.00    -0.318 N 
ATOM      8  C   UNL     1      34.147 -14.895 -24.819  0.00  0.00    +0.213 C 
ATOM      9  C   UNL     1      34.379 -12.750 -24.088  0.00  0.00    +0.251 C 
ATOM     10  C   UNL     1      33.374 -13.205 -26.237  0.00  0.00    +0.282 C 
ATOM     11  C   UNL     1      34.237 -10.654 -24.144  0.00  0.00    +0.153 C 
ATOM     12  H   UNL     1      33.997 -16.859 -25.356  0.00  0.00    +0.160 HD
ATOM     13  H   UNL     1      32.709 -11.698 -27.452  0.00  0.00    +0.146 HD
ATOM     14  H   UNL     1      32.493 -13.268 -28.083  0.00  0.00    +0.146 HD
ENDROOT
BRANCH  11  16
ATOM     15  O   UNL     1      33.470  -8.603 -22.927  0.00  0.00    -0.439 OA
ATOM     16  C   UNL     1      34.362  -9.247 -23.723  0.00  0.00    +0.221 C 
ATOM     17  C   UNL     1      35.389  -8.403 -24.078  0.00  0.00    +0.052 C 
ATOM     18  C   UNL     1      35.109  -7.161 -23.459  0.00  0.00    +0.045 C 
ATOM     19  C   UNL     1      33.932  -7.334 -22.771  0.00  0.00    +0.181 C 
ENDBRANCH  11  16
BRANCH   1  20
ATOM     20  C   UNL     1      34.898 -16.801 -23.471  0.00  0.00    +0.103 C 
BRANCH  20  21
ATOM     21  C   UNL     1      34.784 -18.324 -23.463  0.00  0.00    +0.048 C 
BRANCH  21  22
ATOM     22  C   UNL     1      35.325 -18.953 -22.203  0.00  0.00    -0.020 C 
ATOM     23  C   UNL     1      36.644 -18.725 -21.842  0.00  0.00    -0.001 C 
ATOM     24  C   UNL     1      34.494 -19.746 -21.428  0.00  0.00    -0.001 C 
ATOM     25  C   UNL     1      37.144 -19.307 -20.678  0.00  0.00    +0.036 C 
ATOM     26  C   UNL     1      34.994 -20.327 -20.264  0.00  0.00    +0.036 C 
ATOM     27  C   UNL     1      36.319 -20.108 -19.888  0.00  0.00    +0.134 C 
BRANCH  27  28
ATOM     28  O   UNL     1      36.808 -20.674 -18.751  0.00  0.00    -0.506 OA
ATOM     29  H   UNL     1      36.233 -21.129 -18.169  0.00  0.00    +0.292 HD
ENDBRANCH  27  28
ENDBRANCH  21  22
ENDBRANCH  20  21
ENDBRANCH   1  20
TORSDOF 5
ENDMDL
MODEL 6
REMARK VINA RESULT:     -10.3      3.814      9.186
REMARK  Name = 176407
REMARK  5 active torsions:
REMARK  status: ('A' for Active; 'I' for Inactive)
REMARK    1  A    between atoms: N_1  and  C_20
REMARK    2  A    between atoms: C_11  and  C_16
REMARK    3  A    between atoms: C_20  and  C_21
REMARK    4  A    between atoms: C_21  and  C_22
REMARK    5  A    between atoms: C_27  and  O_28
REMARK                            x       y       z     vdW  Elec       q    Type
REMARK                         _______ _______ _______ _____ _____    ______ ____
ROOT
ATOM      1  N   UNL     1      35.704 -19.512 -21.633  0.00  0.00    -0.258 N 
ATOM      2  N   UNL     1      34.788 -21.622 -18.367  0.00  0.00    -0.059 N 
ATOM      3  N   UNL     1      34.078 -20.481 -20.291  0.00  0.00    -0.245 NA
ATOM      4  N   UNL     1      36.385 -20.667 -19.689  0.00  0.00    -0.294 NA
ATOM      5  N   UNL     1      34.331 -22.315 -17.314  0.00  0.00    -0.090 NA
ATOM      6  N   UNL     1      32.632 -21.607 -18.674  0.00  0.00    -0.267 NA
ATOM      7  N   UNL     1      37.048 -21.831 -17.732  0.00  0.00    -0.318 N 
ATOM      8  C   UNL     1      35.350 -20.236 -20.519  0.00  0.00    +0.213 C 
ATOM      9  C   UNL     1      33.777 -21.198 -19.181  0.00  0.00    +0.251 C 
ATOM     10  C   UNL     1      36.120 -21.356 -18.618  0.00  0.00    +0.282 C 
ATOM     11  C   UNL     1      33.017 -22.278 -17.546  0.00  0.00    +0.153 C 
ATOM     12  H   UNL     1      36.657 -19.330 -21.800  0.00  0.00    +0.160 HD
ATOM     13  H   UNL     1      36.759 -22.346 -16.944  0.00  0.00    +0.146 HD
ATOM     14  H   UNL     1      38.006 -21.659 -17.882  0.00  0.00    +0.146 HD
ENDROOT
BRANCH  11  16
ATOM     15  O   UNL     1      30.697 -22.774 -16.741  0.00  0.00    -0.439 OA
ATOM     16  C   UNL     1      32.044 -22.920 -16.644  0.00  0.00    +0.221 C 
ATOM     17  C   UNL     1      32.366 -23.745 -15.591  0.00  0.00    +0.052 C 
ATOM     18  C   UNL     1      31.137 -24.131 -15.004  0.00  0.00    +0.045 C 
ATOM     19  C   UNL     1      30.152 -23.514 -15.740  0.00  0.00    +0.181 C 
ENDBRANCH  11  16
BRANCH   1  20
ATOM     20  C   UNL     1      34.733 -19.018 -22.556  0.00  0.00    +0.103 C 
BRANCH  20  21
ATOM     21  C   UNL     1      35.398 -18.202 -23.664  0.00  0.00    +0.048 C 
BRANCH  21  22
ATOM     22  C   UNL     1      34.965 -16.757 -23.677  0.00  0.00    -0.020 C 
ATOM     23  C   UNL     1      34.294 -16.258 -24.782  0.00  0.00    -0.001 C 
ATOM     24  C   UNL     1      35.246 -15.954 -22.583  0.00  0.00    -0.001 C 
ATOM     25  C   UNL     1      33.894 -14.922 -24.794  0.00  0.00    +0.036 C 
ATOM     26  C   UNL     1      34.847 -14.618 -22.594  0.00  0.00    +0.036 C 
ATOM     27  C   UNL     1      34.171 -14.102 -23.700  0.00  0.00    +0.134 C 
BRANCH  27  28
ATOM     28  O   UNL     1      33.780 -12.798 -23.712  0.00  0.00    -0.506 OA
ATOM     29  H   UNL     1      33.992 -12.252 -24.443  0.00  0.00    +0.292 HD
ENDBRANCH  27  28
ENDBRANCH  21  22
ENDBRANCH  20  21
ENDBRANCH   1  20
TORSDOF 5
ENDMDL
MODEL 7
REMARK VINA RESULT:     -10.1      5.901      8.703
REMARK  Name = 176407
REMARK  5 active torsions:
REMARK  status: ('A' for Active; 'I' for Inactive)
REMARK    1  A    between atoms: N_1  and  C_20
REMARK    2  A    between atoms: C_11  and  C_16
REMARK    3  A    between atoms: C_20  and  C_21
REMARK    4  A    between atoms: C_21  and  C_22
REMARK    5  A    between atoms: C_27  and  O_28
REMARK                            x       y       z     vdW  Elec       q    Type
REMARK                         _______ _______ _______ _____ _____    ______ ____
ROOT
ATOM      1  N   UNL     1      36.494 -22.983 -16.021  0.00  0.00    -0.258 N 
ATOM      2  N   UNL     1      34.784 -21.202 -19.161  0.00  0.00    -0.059 N 
ATOM      3  N   UNL     1      36.691 -21.555 -17.840  0.00  0.00    -0.245 NA
ATOM      4  N   UNL     1      34.594 -22.605 -17.371  0.00  0.00    -0.294 NA
ATOM      5  N   UNL     1      34.349 -20.538 -20.242  0.00  0.00    -0.090 NA
ATOM      6  N   UNL     1      36.559 -20.121 -19.814  0.00  0.00    -0.267 NA
ATOM      7  N   UNL     1      32.697 -22.213 -18.740  0.00  0.00    -0.318 N 
ATOM      8  C   UNL     1      35.940 -22.352 -17.110  0.00  0.00    +0.213 C 
ATOM      9  C   UNL     1      36.102 -20.956 -18.903  0.00  0.00    +0.251 C 
ATOM     10  C   UNL     1      34.007 -22.041 -18.386  0.00  0.00    +0.282 C 
ATOM     11  C   UNL     1      35.463 -19.897 -20.602  0.00  0.00    +0.153 C 
ATOM     12  H   UNL     1      35.929 -23.578 -15.477  0.00  0.00    +0.160 HD
ATOM     13  H   UNL     1      32.334 -21.745 -19.527  0.00  0.00    +0.146 HD
ATOM     14  H   UNL     1      32.116 -22.805 -18.209  0.00  0.00    +0.146 HD
ENDROOT
BRANCH  11  16
ATOM     15  O   UNL     1      35.968 -17.726 -21.747  0.00  0.00    -0.439 OA
ATOM     16  C   UNL     1      35.510 -19.005 -21.774  0.00  0.00    +0.221 C 
ATOM     17  C   UNL     1      35.097 -19.342 -23.043  0.00  0.00    +0.052 C 
ATOM     18  C   UNL     1      35.316 -18.197 -23.846  0.00  0.00    +0.045 C 
ATOM     19  C   UNL     1      35.847 -17.242 -23.011  0.00  0.00    +0.181 C 
ENDBRANCH  11  16
BRANCH   1  20
ATOM     20  C   UNL     1      37.862 -22.802 -15.654  0.00  0.00    +0.103 C 
BRANCH  20  21
ATOM     21  C   UNL     1      38.379 -24.002 -14.862  0.00  0.00    +0.048 C 
BRANCH  21  22
ATOM     22  C   UNL     1      37.825 -24.069 -13.460  0.00  0.00    -0.020 C 
ATOM     23  C   UNL     1      37.564 -25.306 -12.891  0.00  0.00    -0.001 C 
ATOM     24  C   UNL     1      37.586 -22.893 -12.767  0.00  0.00    -0.001 C 
ATOM     25  C   UNL     1      37.051 -25.368 -11.595  0.00  0.00    +0.036 C 
ATOM     26  C   UNL     1      37.073 -22.955 -11.472  0.00  0.00    +0.036 C 
ATOM     27  C   UNL     1      36.806 -24.192 -10.885  0.00  0.00    +0.134 C 
BRANCH  27  28
ATOM     28  O   UNL     1      36.306 -24.254  -9.621  0.00  0.00    -0.506 OA
ATOM     29  H   UNL     1      36.296 -25.069  -9.160  0.00  0.00    +0.292 HD
ENDBRANCH  27  28
ENDBRANCH  21  22
ENDBRANCH  20  21
ENDBRANCH   1  20
TORSDOF 5
ENDMDL
MODEL 8
REMARK VINA RESULT:     -10.1      2.784      4.177
REMARK  Name = 176407
REMARK  5 active torsions:
REMARK  status: ('A' for Active; 'I' for Inactive)
REMARK    1  A    between atoms: N_1  and  C_20
REMARK    2  A    between atoms: C_11  and  C_16
REMARK    3  A    between atoms: C_20  and  C_21
REMARK    4  A    between atoms: C_21  and  C_22
REMARK    5  A    between atoms: C_27  and  O_28
REMARK                            x       y       z     vdW  Elec       q    Type
REMARK                         _______ _______ _______ _____ _____    ______ ____
ROOT
ATOM      1  N   UNL     1      34.181 -14.966 -23.306  0.00  0.00    -0.258 N 
ATOM      2  N   UNL     1      33.072 -11.174 -22.711  0.00  0.00    -0.059 N 
ATOM      3  N   UNL     1      34.487 -12.714 -23.776  0.00  0.00    -0.245 NA
ATOM      4  N   UNL     1      32.773 -13.390 -22.251  0.00  0.00    -0.294 NA
ATOM      5  N   UNL     1      32.812  -9.862 -22.612  0.00  0.00    -0.090 NA
ATOM      6  N   UNL     1      34.543 -10.286 -24.050  0.00  0.00    -0.267 NA
ATOM      7  N   UNL     1      31.370 -11.791 -21.201  0.00  0.00    -0.318 N 
ATOM      8  C   UNL     1      33.827 -13.649 -23.127  0.00  0.00    +0.213 C 
ATOM      9  C   UNL     1      34.103 -11.431 -23.569  0.00  0.00    +0.251 C 
ATOM     10  C   UNL     1      32.388 -12.166 -22.035  0.00  0.00    +0.282 C 
ATOM     11  C   UNL     1      33.732  -9.366 -23.443  0.00  0.00    +0.153 C 
ATOM     12  H   UNL     1      33.685 -15.662 -22.818  0.00  0.00    +0.160 HD
ATOM     13  H   UNL     1      31.144 -10.838 -21.097  0.00  0.00    +0.146 HD
ATOM     14  H   UNL     1      30.863 -12.473 -20.705  0.00  0.00    +0.146 HD
ENDROOT
BRANCH  11  16
ATOM     15  O   UNL     1      32.818  -7.058 -23.778  0.00  0.00    -0.439 OA
ATOM     16  C   UNL     1      33.865  -7.919 -23.691  0.00  0.00    +0.221 C 
ATOM     17  C   UNL     1      35.055  -7.252 -23.870  0.00  0.00    +0.052 C 
ATOM     18  C   UNL     1      34.717  -5.894 -24.079  0.00  0.00    +0.045 C 
ATOM     19  C   UNL     1      33.345  -5.828 -24.013  0.00  0.00    +0.181 C 
ENDBRANCH  11  16
BRANCH   1  20
ATOM     20  C   UNL     1      35.243 -15.354 -24.177  0.00  0.00    +0.103 C 
BRANCH  20  21
ATOM     21  C   UNL     1      35.165 -16.845 -24.503  0.00  0.00    +0.048 C 
BRANCH  21  22
ATOM     22  C   UNL     1      35.381 -17.727 -23.297  0.00  0.00    -0.020 C 
ATOM     23  C   UNL     1      34.447 -18.706 -22.996  0.00  0.00    -0.001 C 
ATOM     24  C   UNL     1      36.509 -17.542 -22.514  0.00  0.00    -0.001 C 
ATOM     25  C   UNL     1      34.646 -19.520 -21.881  0.00  0.00    +0.036 C 
ATOM     26  C   UNL     1      36.708 -18.356 -21.400  0.00  0.00    +0.036 C 
ATOM     27  C   UNL     1      35.777 -19.345 -21.083  0.00  0.00    +0.134 C 
BRANCH  27  28
ATOM     28  O   UNL     1      35.970 -20.141 -19.996  0.00  0.00    -0.506 OA
ATOM     29  H   UNL     1      35.614 -21.007 -19.980  0.00  0.00    +0.292 HD
ENDBRANCH  27  28
ENDBRANCH  21  22
ENDBRANCH  20  21
ENDBRANCH   1  20
TORSDOF 5
ENDMDL
MODEL 9
REMARK VINA RESULT:      -9.9      7.123     10.138
REMARK  Name = 176407
REMARK  5 active torsions:
REMARK  status: ('A' for Active; 'I' for Inactive)
REMARK    1  A    between atoms: N_1  and  C_20
REMARK    2  A    between atoms: C_11  and  C_16
REMARK    3  A    between atoms: C_20  and  C_21
REMARK    4  A    between atoms: C_21  and  C_22
REMARK    5  A    between atoms: C_27  and  O_28
REMARK                            x       y       z     vdW  Elec       q    Type
REMARK                         _______ _______ _______ _____ _____    ______ ____
ROOT
ATOM      1  N   UNL     1      33.726 -24.846 -13.660  0.00  0.00    -0.258 N 
ATOM      2  N   UNL     1      35.595 -22.708 -16.469  0.00  0.00    -0.059 N 
ATOM      3  N   UNL     1      33.607 -23.634 -15.635  0.00  0.00    -0.245 NA
ATOM      4  N   UNL     1      35.709 -23.901 -14.527  0.00  0.00    -0.294 NA
ATOM      5  N   UNL     1      36.083 -21.975 -17.481  0.00  0.00    -0.090 NA
ATOM      6  N   UNL     1      33.828 -22.310 -17.677  0.00  0.00    -0.267 NA
ATOM      7  N   UNL     1      37.690 -22.944 -15.414  0.00  0.00    -0.318 N 
ATOM      8  C   UNL     1      34.335 -24.105 -14.645  0.00  0.00    +0.213 C 
ATOM      9  C   UNL     1      34.249 -22.909 -16.583  0.00  0.00    +0.251 C 
ATOM     10  C   UNL     1      36.348 -23.209 -15.425  0.00  0.00    +0.282 C 
ATOM     11  C   UNL     1      34.971 -21.759 -18.187  0.00  0.00    +0.153 C 
ATOM     12  H   UNL     1      34.274 -25.197 -12.921  0.00  0.00    +0.160 HD
ATOM     13  H   UNL     1      38.092 -22.409 -16.137  0.00  0.00    +0.146 HD
ATOM     14  H   UNL     1      38.254 -23.286 -14.683  0.00  0.00    +0.146 HD
ENDROOT
BRANCH  11  16
ATOM     15  O   UNL     1      36.100 -20.581 -20.088  0.00  0.00    -0.439 OA
ATOM     16  C   UNL     1      34.976 -20.976 -19.435  0.00  0.00    +0.221 C 
ATOM     17  C   UNL     1      33.853 -20.541 -20.101  0.00  0.00    +0.052 C 
ATOM     18  C   UNL     1      34.318 -19.833 -21.236  0.00  0.00    +0.045 C 
ATOM     19  C   UNL     1      35.691 -19.886 -21.182  0.00  0.00    +0.181 C 
ENDBRANCH  11  16
BRANCH   1  20
ATOM     20  C   UNL     1      32.325 -25.121 -13.673  0.00  0.00    +0.103 C 
BRANCH  20  21
ATOM     21  C   UNL     1      31.515 -23.836 -13.505  0.00  0.00    +0.048 C 
BRANCH  21  22
ATOM     22  C   UNL     1      30.430 -23.679 -14.541  0.00  0.00    -0.020 C 
ATOM     23  C   UNL     1      29.918 -24.807 -15.165  0.00  0.00    -0.001 C 
ATOM     24  C   UNL     1      29.964 -22.411 -14.851  0.00  0.00    -0.001 C 
ATOM     25  C   UNL     1      28.915 -24.662 -16.123  0.00  0.00    +0.036 C 
ATOM     26  C   UNL     1      28.962 -22.266 -15.810  0.00  0.00    +0.036 C 
ATOM     27  C   UNL     1      28.437 -23.392 -16.446  0.00  0.00    +0.134 C 
BRANCH  27  28
ATOM     28  O   UNL     1      27.458 -23.251 -17.381  0.00  0.00    -0.506 OA
ATOM     29  H   UNL     1      26.614 -23.631 -17.236  0.00  0.00    +0.292 HD
ENDBRANCH  27  28
ENDBRANCH  21  22
ENDBRANCH  20  21
ENDBRANCH   1  20
TORSDOF 5
ENDMDL
