MODEL 1
REMARK VINA RESULT:     -12.2      0.000      0.000
REMARK  Name = 24864821
REMARK  5 active torsions:
REMARK  status: ('A' for Active; 'I' for Inactive)
REMARK    1  A    between atoms: C_5  and  C_16
REMARK    2  A    between atoms: C_7  and  C_10
REMARK    3  A    between atoms: C_16  and  O_17
REMARK    4  A    between atoms: O_17  and  C_20
REMARK    5  A    between atoms: C_25  and  O_28
REMARK                            x       y       z     vdW  Elec       q    Type
REMARK                         _______ _______ _______ _____ _____    ______ ____
ROOT
ATOM      1  N   UNL     1      36.429 -22.845 -15.599  0.00  0.00    -0.191 N 
ATOM      2  N   UNL     1      35.102 -22.598 -15.735  0.00  0.00    -0.163 NA
ATOM      3  N   UNL     1      38.602 -22.714 -15.852  0.00  0.00    -0.128 NA
ATOM      4  N   UNL     1      38.334 -23.710 -14.935  0.00  0.00    -0.127 NA
ATOM      5  C   UNL     1      37.453 -22.209 -16.239  0.00  0.00    +0.208 A 
ATOM      6  C   UNL     1      37.029 -23.780 -14.789  0.00  0.00    +0.186 A 
ATOM      7  C   UNL     1      34.348 -23.356 -14.990  0.00  0.00    +0.101 C 
ATOM      8  C   UNL     1      36.187 -24.597 -14.009  0.00  0.00    +0.042 C 
ATOM      9  C   UNL     1      34.860 -24.426 -14.075  0.00  0.00    +0.024 C 
ENDROOT
BRANCH   7  10
ATOM     10  C   UNL     1      32.873 -23.178 -15.046  0.00  0.00    +0.019 C 
ATOM     11  C   UNL     1      32.109 -23.312 -13.886  0.00  0.00    +0.002 C 
ATOM     12  C   UNL     1      32.253 -22.876 -16.258  0.00  0.00    +0.002 C 
ATOM     13  C   UNL     1      30.726 -23.144 -13.940  0.00  0.00    +0.000 C 
ATOM     14  C   UNL     1      30.870 -22.708 -16.311  0.00  0.00    +0.000 C 
ATOM     15  C   UNL     1      30.105 -22.842 -15.152  0.00  0.00    +0.000 C 
ENDBRANCH   7  10
BRANCH   5  16
ATOM     16  C   UNL     1      37.239 -21.100 -17.228  0.00  0.00    +0.272 C 
BRANCH  16  17
ATOM     17  O   UNL     1      36.973 -21.666 -18.510  0.00  0.00    -0.467 OA
BRANCH  17  20
ATOM     18  N   UNL     1      33.525 -20.400 -20.433  0.00  0.00    -0.248 NA
ATOM     19  C   UNL     1      35.908 -20.223 -20.125  0.00  0.00    +0.030 C 
ATOM     20  C   UNL     1      35.852 -21.234 -19.155  0.00  0.00    +0.138 C 
ATOM     21  C   UNL     1      34.705 -19.831 -20.747  0.00  0.00    +0.066 C 
ATOM     22  C   UNL     1      37.122 -19.608 -20.477  0.00  0.00    +0.059 C 
ATOM     23  C   UNL     1      34.761 -18.827 -21.709  0.00  0.00    +0.109 C 
ATOM     24  C   UNL     1      34.638 -21.821 -18.829  0.00  0.00    +0.057 C 
ATOM     25  C   UNL     1      35.967 -18.216 -22.060  0.00  0.00    +0.118 C 
ATOM     26  C   UNL     1      37.149 -18.606 -21.443  0.00  0.00    +0.011 C 
ATOM     27  C   UNL     1      33.514 -21.372 -19.492  0.00  0.00    +0.102 C 
BRANCH  25  28
ATOM     28  O   UNL     1      35.983 -17.239 -23.007  0.00  0.00    -0.476 OA
ATOM     29  C   UNL     1      35.037 -17.349 -24.071  0.00  0.00    +0.252 C 
ENDBRANCH  25  28
ENDBRANCH  17  20
ENDBRANCH  16  17
ENDBRANCH   5  16
TORSDOF 5
ENDMDL
MODEL 2
REMARK VINA RESULT:     -11.6      5.641      9.436
REMARK  Name = 24864821
REMARK  5 active torsions:
REMARK  status: ('A' for Active; 'I' for Inactive)
REMARK    1  A    between atoms: C_5  and  C_16
REMARK    2  A    between atoms: C_7  and  C_10
REMARK    3  A    between atoms: C_16  and  O_17
REMARK    4  A    between atoms: O_17  and  C_20
REMARK    5  A    between atoms: C_25  and  O_28
REMARK                            x       y       z     vdW  Elec       q    Type
REMARK                         _______ _______ _______ _____ _____    ______ ____
ROOT
ATOM      1  N   UNL     1      34.992 -17.085 -23.185  0.00  0.00    -0.191 N 
ATOM      2  N   UNL     1      35.043 -17.765 -22.013  0.00  0.00    -0.163 NA
ATOM      3  N   UNL     1      34.916 -15.437 -24.628  0.00  0.00    -0.128 NA
ATOM      4  N   UNL     1      34.923 -16.624 -25.330  0.00  0.00    -0.127 NA
ATOM      5  C   UNL     1      34.957 -15.731 -23.348  0.00  0.00    +0.208 A 
ATOM      6  C   UNL     1      34.969 -17.607 -24.457  0.00  0.00    +0.186 A 
ATOM      7  C   UNL     1      35.077 -19.060 -22.158  0.00  0.00    +0.101 C 
ATOM      8  C   UNL     1      34.988 -19.010 -24.582  0.00  0.00    +0.042 C 
ATOM      9  C   UNL     1      35.040 -19.767 -23.478  0.00  0.00    +0.024 C 
ENDROOT
BRANCH   7  10
ATOM     10  C   UNL     1      35.139 -19.918 -20.945  0.00  0.00    +0.019 C 
ATOM     11  C   UNL     1      33.966 -20.440 -20.399  0.00  0.00    +0.002 C 
ATOM     12  C   UNL     1      36.370 -20.202 -20.355  0.00  0.00    +0.002 C 
ATOM     13  C   UNL     1      34.025 -21.246 -19.263  0.00  0.00    +0.000 C 
ATOM     14  C   UNL     1      36.428 -21.009 -19.218  0.00  0.00    +0.000 C 
ATOM     15  C   UNL     1      35.256 -21.531 -18.671  0.00  0.00    +0.000 C 
ENDBRANCH   7  10
BRANCH   5  16
ATOM     16  C   UNL     1      34.968 -14.766 -22.198  0.00  0.00    +0.272 C 
BRANCH  16  17
ATOM     17  O   UNL     1      34.666 -13.459 -22.685  0.00  0.00    -0.467 OA
BRANCH  17  20
ATOM     18  N   UNL     1      31.579 -11.475 -20.756  0.00  0.00    -0.248 NA
ATOM     19  C   UNL     1      33.244 -11.518 -22.496  0.00  0.00    +0.030 C 
ATOM     20  C   UNL     1      33.653 -12.788 -22.066  0.00  0.00    +0.138 C 
ATOM     21  C   UNL     1      32.189 -10.890 -21.803  0.00  0.00    +0.066 C 
ATOM     22  C   UNL     1      33.859 -10.877 -23.585  0.00  0.00    +0.059 C 
ATOM     23  C   UNL     1      31.784  -9.628 -22.230  0.00  0.00    +0.109 C 
ATOM     24  C   UNL     1      33.026 -13.395 -20.987  0.00  0.00    +0.057 C 
ATOM     25  C   UNL     1      32.395  -8.990 -23.313  0.00  0.00    +0.118 C 
ATOM     26  C   UNL     1      33.434  -9.616 -23.991  0.00  0.00    +0.011 C 
ATOM     27  C   UNL     1      32.002 -12.701 -20.372  0.00  0.00    +0.102 C 
BRANCH  25  28
ATOM     28  O   UNL     1      31.971  -7.758 -23.703  0.00  0.00    -0.476 OA
ATOM     29  C   UNL     1      31.539  -6.864 -22.677  0.00  0.00    +0.252 C 
ENDBRANCH  25  28
ENDBRANCH  17  20
ENDBRANCH  16  17
ENDBRANCH   5  16
TORSDOF 5
ENDMDL
MODEL 3
REMARK VINA RESULT:     -11.1      1.830      4.297
REMARK  Name = 24864821
REMARK  5 active torsions:
REMARK  status: ('A' for Active; 'I' for Inactive)
REMARK    1  A    between atoms: C_5  and  C_16
REMARK    2  A    between atoms: C_7  and  C_10
REMARK    3  A    between atoms: C_16  and  O_17
REMARK    4  A    between atoms: O_17  and  C_20
REMARK    5  A    between atoms: C_25  and  O_28
REMARK                            x       y       z     vdW  Elec       q    Type
REMARK                         _______ _______ _______ _____ _____    ______ ____
ROOT
ATOM      1  N   UNL     1      33.783 -23.045 -16.788  0.00  0.00    -0.191 N 
ATOM      2  N   UNL     1      34.955 -23.552 -16.331  0.00  0.00    -0.163 NA
ATOM      3  N   UNL     1      32.293 -22.120 -18.102  0.00  0.00    -0.128 NA
ATOM      4  N   UNL     1      31.682 -22.420 -16.901  0.00  0.00    -0.127 NA
ATOM      5  C   UNL     1      33.548 -22.500 -18.016  0.00  0.00    +0.208 A 
ATOM      6  C   UNL     1      32.583 -22.975 -16.120  0.00  0.00    +0.186 A 
ATOM      7  C   UNL     1      34.888 -24.018 -15.115  0.00  0.00    +0.101 C 
ATOM      8  C   UNL     1      32.545 -23.470 -14.802  0.00  0.00    +0.042 C 
ATOM      9  C   UNL     1      33.655 -23.992 -14.264  0.00  0.00    +0.024 C 
ENDROOT
BRANCH   7  10
ATOM     10  C   UNL     1      36.108 -24.605 -14.501  0.00  0.00    +0.019 C 
ATOM     11  C   UNL     1      36.755 -23.940 -13.461  0.00  0.00    +0.002 C 
ATOM     12  C   UNL     1      36.605 -25.823 -14.966  0.00  0.00    +0.002 C 
ATOM     13  C   UNL     1      37.898 -24.492 -12.884  0.00  0.00    +0.000 C 
ATOM     14  C   UNL     1      37.748 -26.375 -14.389  0.00  0.00    +0.000 C 
ATOM     15  C   UNL     1      38.396 -25.710 -13.349  0.00  0.00    +0.000 C 
ENDBRANCH   7  10
BRANCH   5  16
ATOM     16  C   UNL     1      34.603 -22.379 -19.076  0.00  0.00    +0.272 C 
BRANCH  16  17
ATOM     17  O   UNL     1      34.335 -21.225 -19.870  0.00  0.00    -0.467 OA
BRANCH  17  20
ATOM     18  N   UNL     1      37.588 -18.791 -20.697  0.00  0.00    -0.248 NA
ATOM     19  C   UNL     1      35.378 -19.559 -21.270  0.00  0.00    +0.030 C 
ATOM     20  C   UNL     1      35.393 -20.416 -20.161  0.00  0.00    +0.138 C 
ATOM     21  C   UNL     1      36.511 -18.753 -21.504  0.00  0.00    +0.066 C 
ATOM     22  C   UNL     1      34.271 -19.493 -22.134  0.00  0.00    +0.059 C 
ATOM     23  C   UNL     1      36.495 -17.903 -22.606  0.00  0.00    +0.109 C 
ATOM     24  C   UNL     1      36.501 -20.457 -19.328  0.00  0.00    +0.057 C 
ATOM     25  C   UNL     1      35.395 -17.837 -23.465  0.00  0.00    +0.118 C 
ATOM     26  C   UNL     1      34.281 -18.634 -23.228  0.00  0.00    +0.011 C 
ATOM     27  C   UNL     1      37.564 -19.631 -19.637  0.00  0.00    +0.102 C 
BRANCH  25  28
ATOM     28  O   UNL     1      35.415 -16.992 -24.531  0.00  0.00    -0.476 OA
ATOM     29  C   UNL     1      34.806 -15.713 -24.357  0.00  0.00    +0.252 C 
ENDBRANCH  25  28
ENDBRANCH  17  20
ENDBRANCH  16  17
ENDBRANCH   5  16
TORSDOF 5
ENDMDL
MODEL 4
REMARK VINA RESULT:     -11.0      6.323     10.647
REMARK  Name = 24864821
REMARK  5 active torsions:
REMARK  status: ('A' for Active; 'I' for Inactive)
REMARK    1  A    between atoms: C_5  and  C_16
REMARK    2  A    between atoms: C_7  and  C_10
REMARK    3  A    between atoms: C_16  and  O_17
REMARK    4  A    between atoms: O_17  and  C_20
REMARK    5  A    between atoms: C_25  and  O_28
REMARK                            x       y       z     vdW  Elec       q    Type
REMARK                         _______ _______ _______ _____ _____    ______ ____
ROOT
ATOM      1  N   UNL     1      34.377 -16.067 -24.008  0.00  0.00    -0.191 N 
ATOM      2  N   UNL     1      34.983 -16.654 -22.946  0.00  0.00    -0.163 NA
ATOM      3  N   UNL     1      33.608 -14.535 -25.374  0.00  0.00    -0.128 NA
ATOM      4  N   UNL     1      33.300 -15.774 -25.898  0.00  0.00    -0.127 NA
ATOM      5  C   UNL     1      34.251 -14.729 -24.245  0.00  0.00    +0.208 A 
ATOM      6  C   UNL     1      33.765 -16.686 -25.073  0.00  0.00    +0.186 A 
ATOM      7  C   UNL     1      34.962 -17.957 -22.984  0.00  0.00    +0.101 C 
ATOM      8  C   UNL     1      33.742 -18.094 -25.077  0.00  0.00    +0.042 C 
ATOM      9  C   UNL     1      34.317 -18.764 -24.069  0.00  0.00    +0.024 C 
ENDROOT
BRANCH   7  10
ATOM     10  C   UNL     1      35.599 -18.719 -21.878  0.00  0.00    +0.019 C 
ATOM     11  C   UNL     1      36.916 -18.445 -21.510  0.00  0.00    +0.002 C 
ATOM     12  C   UNL     1      34.878 -19.706 -21.206  0.00  0.00    +0.002 C 
ATOM     13  C   UNL     1      37.512 -19.158 -20.470  0.00  0.00    +0.000 C 
ATOM     14  C   UNL     1      35.474 -20.420 -20.167  0.00  0.00    +0.000 C 
ATOM     15  C   UNL     1      36.792 -20.147 -19.798  0.00  0.00    +0.000 C 
ENDBRANCH   7  10
BRANCH   5  16
ATOM     16  C   UNL     1      34.789 -13.678 -23.318  0.00  0.00    +0.272 C 
BRANCH  16  17
ATOM     17  O   UNL     1      34.146 -12.436 -23.601  0.00  0.00    -0.467 OA
BRANCH  17  20
ATOM     18  N   UNL     1      31.555 -11.029 -20.686  0.00  0.00    -0.248 NA
ATOM     19  C   UNL     1      32.929 -10.599 -22.618  0.00  0.00    +0.030 C 
ATOM     20  C   UNL     1      33.295 -11.951 -22.652  0.00  0.00    +0.138 C 
ATOM     21  C   UNL     1      32.045 -10.175 -21.604  0.00  0.00    +0.066 C 
ATOM     22  C   UNL     1      33.421  -9.679 -23.560  0.00  0.00    +0.059 C 
ATOM     23  C   UNL     1      31.682  -8.831 -21.571  0.00  0.00    +0.109 C 
ATOM     24  C   UNL     1      32.792 -12.834 -21.707  0.00  0.00    +0.057 C 
ATOM     25  C   UNL     1      32.170  -7.917 -22.507  0.00  0.00    +0.118 C 
ATOM     26  C   UNL     1      33.041  -8.342 -23.503  0.00  0.00    +0.011 C 
ATOM     27  C   UNL     1      31.932 -12.326 -20.753  0.00  0.00    +0.102 C 
BRANCH  25  28
ATOM     28  O   UNL     1      31.791  -6.611 -22.444  0.00  0.00    -0.476 OA
ATOM     29  C   UNL     1      32.816  -5.630 -22.604  0.00  0.00    +0.252 C 
ENDBRANCH  25  28
ENDBRANCH  17  20
ENDBRANCH  16  17
ENDBRANCH   5  16
TORSDOF 5
ENDMDL
MODEL 5
REMARK VINA RESULT:     -11.0      4.113      9.618
REMARK  Name = 24864821
REMARK  5 active torsions:
REMARK  status: ('A' for Active; 'I' for Inactive)
REMARK    1  A    between atoms: C_5  and  C_16
REMARK    2  A    between atoms: C_7  and  C_10
REMARK    3  A    between atoms: C_16  and  O_17
REMARK    4  A    between atoms: O_17  and  C_20
REMARK    5  A    between atoms: C_25  and  O_28
REMARK                            x       y       z     vdW  Elec       q    Type
REMARK                         _______ _______ _______ _____ _____    ______ ____
ROOT
ATOM      1  N   UNL     1      34.696 -15.717 -23.239  0.00  0.00    -0.191 N 
ATOM      2  N   UNL     1      34.210 -14.819 -22.347  0.00  0.00    -0.163 NA
ATOM      3  N   UNL     1      35.685 -17.485 -24.077  0.00  0.00    -0.128 NA
ATOM      4  N   UNL     1      35.197 -16.727 -25.122  0.00  0.00    -0.127 NA
ATOM      5  C   UNL     1      35.377 -16.866 -22.960  0.00  0.00    +0.208 A 
ATOM      6  C   UNL     1      34.606 -15.670 -24.611  0.00  0.00    +0.186 A 
ATOM      7  C   UNL     1      33.590 -13.813 -22.898  0.00  0.00    +0.101 C 
ATOM      8  C   UNL     1      33.946 -14.562 -25.178  0.00  0.00    +0.042 C 
ATOM      9  C   UNL     1      33.431 -13.622 -24.376  0.00  0.00    +0.024 C 
ENDROOT
BRANCH   7  10
ATOM     10  C   UNL     1      33.008 -12.761 -22.024  0.00  0.00    +0.019 C 
ATOM     11  C   UNL     1      32.766 -11.485 -22.534  0.00  0.00    +0.002 C 
ATOM     12  C   UNL     1      32.701 -13.050 -20.695  0.00  0.00    +0.002 C 
ATOM     13  C   UNL     1      32.218 -10.500 -21.715  0.00  0.00    +0.000 C 
ATOM     14  C   UNL     1      32.153 -12.064 -19.875  0.00  0.00    +0.000 C 
ATOM     15  C   UNL     1      31.912 -10.788 -20.384  0.00  0.00    +0.000 C 
ENDBRANCH   7  10
BRANCH   5  16
ATOM     16  C   UNL     1      35.697 -17.310 -21.562  0.00  0.00    +0.272 C 
BRANCH  16  17
ATOM     17  O   UNL     1      35.914 -18.720 -21.561  0.00  0.00    -0.467 OA
BRANCH  17  20
ATOM     18  N   UNL     1      32.975 -21.035 -19.774  0.00  0.00    -0.248 NA
ATOM     19  C   UNL     1      35.279 -20.342 -19.891  0.00  0.00    +0.030 C 
ATOM     20  C   UNL     1      34.964 -19.490 -20.958  0.00  0.00    +0.138 C 
ATOM     21  C   UNL     1      34.240 -21.107 -19.321  0.00  0.00    +0.066 C 
ATOM     22  C   UNL     1      36.589 -20.443 -19.392  0.00  0.00    +0.059 C 
ATOM     23  C   UNL     1      34.554 -21.953 -18.261  0.00  0.00    +0.109 C 
ATOM     24  C   UNL     1      33.661 -19.414 -21.428  0.00  0.00    +0.057 C 
ATOM     25  C   UNL     1      35.856 -22.053 -17.765  0.00  0.00    +0.118 C 
ATOM     26  C   UNL     1      36.875 -21.297 -18.331  0.00  0.00    +0.011 C 
ATOM     27  C   UNL     1      32.711 -20.200 -20.806  0.00  0.00    +0.102 C 
BRANCH  25  28
ATOM     28  O   UNL     1      36.125 -22.890 -16.726  0.00  0.00    -0.476 OA
ATOM     29  C   UNL     1      37.137 -22.479 -15.807  0.00  0.00    +0.252 C 
ENDBRANCH  25  28
ENDBRANCH  17  20
ENDBRANCH  16  17
ENDBRANCH   5  16
TORSDOF 5
ENDMDL
MODEL 6
REMARK VINA RESULT:     -11.0      5.803      9.602
REMARK  Name = 24864821
REMARK  5 active torsions:
REMARK  status: ('A' for Active; 'I' for Inactive)
REMARK    1  A    between atoms: C_5  and  C_16
REMARK    2  A    between atoms: C_7  and  C_10
REMARK    3  A    between atoms: C_16  and  O_17
REMARK    4  A    between atoms: O_17  and  C_20
REMARK    5  A    between atoms: C_25  and  O_28
REMARK                            x       y       z     vdW  Elec       q    Type
REMARK                         _______ _______ _______ _____ _____    ______ ____
ROOT
ATOM      1  N   UNL     1      34.975 -16.947 -23.174  0.00  0.00    -0.191 N 
ATOM      2  N   UNL     1      34.836 -17.651 -22.023  0.00  0.00    -0.163 NA
ATOM      3  N   UNL     1      35.115 -15.271 -24.579  0.00  0.00    -0.128 NA
ATOM      4  N   UNL     1      35.273 -16.443 -25.289  0.00  0.00    -0.127 NA
ATOM      5  C   UNL     1      34.938 -15.591 -23.317  0.00  0.00    +0.208 A 
ATOM      6  C   UNL     1      35.189 -17.442 -24.439  0.00  0.00    +0.186 A 
ATOM      7  C   UNL     1      34.925 -18.942 -22.182  0.00  0.00    +0.101 C 
ATOM      8  C   UNL     1      35.262 -18.842 -24.582  0.00  0.00    +0.042 C 
ATOM      9  C   UNL     1      35.137 -19.621 -23.500  0.00  0.00    +0.024 C 
ENDROOT
BRANCH   7  10
ATOM     10  C   UNL     1      34.792 -19.824 -20.992  0.00  0.00    +0.019 C 
ATOM     11  C   UNL     1      33.528 -20.158 -20.509  0.00  0.00    +0.002 C 
ATOM     12  C   UNL     1      35.933 -20.318 -20.361  0.00  0.00    +0.002 C 
ATOM     13  C   UNL     1      33.404 -20.987 -19.395  0.00  0.00    +0.000 C 
ATOM     14  C   UNL     1      35.810 -21.147 -19.246  0.00  0.00    +0.000 C 
ATOM     15  C   UNL     1      34.545 -21.482 -18.762  0.00  0.00    +0.000 C 
ENDBRANCH   7  10
BRANCH   5  16
ATOM     16  C   UNL     1      34.724 -14.650 -22.167  0.00  0.00    +0.272 C 
BRANCH  16  17
ATOM     17  O   UNL     1      33.447 -14.030 -22.305  0.00  0.00    -0.467 OA
BRANCH  17  20
ATOM     18  N   UNL     1      33.434 -10.117 -23.675  0.00  0.00    -0.248 NA
ATOM     19  C   UNL     1      32.917 -11.704 -21.939  0.00  0.00    +0.030 C 
ATOM     20  C   UNL     1      33.433 -12.736 -22.735  0.00  0.00    +0.138 C 
ATOM     21  C   UNL     1      32.937 -10.392 -22.455  0.00  0.00    +0.066 C 
ATOM     22  C   UNL     1      32.389 -11.955 -20.660  0.00  0.00    +0.059 C 
ATOM     23  C   UNL     1      32.424  -9.368 -21.664  0.00  0.00    +0.109 C 
ATOM     24  C   UNL     1      33.946 -12.455 -23.993  0.00  0.00    +0.057 C 
ATOM     25  C   UNL     1      31.900  -9.617 -20.393  0.00  0.00    +0.118 C 
ATOM     26  C   UNL     1      31.883 -10.913 -19.890  0.00  0.00    +0.011 C 
ATOM     27  C   UNL     1      33.924 -11.140 -24.413  0.00  0.00    +0.102 C 
BRANCH  25  28
ATOM     28  O   UNL     1      31.409  -8.590 -19.647  0.00  0.00    -0.476 OA
ATOM     29  C   UNL     1      32.113  -7.350 -19.706  0.00  0.00    +0.252 C 
ENDBRANCH  25  28
ENDBRANCH  17  20
ENDBRANCH  16  17
ENDBRANCH   5  16
TORSDOF 5
ENDMDL
MODEL 7
REMARK VINA RESULT:     -10.9      8.280     13.605
REMARK  Name = 24864821
REMARK  5 active torsions:
REMARK  status: ('A' for Active; 'I' for Inactive)
REMARK    1  A    between atoms: C_5  and  C_16
REMARK    2  A    between atoms: C_7  and  C_10
REMARK    3  A    between atoms: C_16  and  O_17
REMARK    4  A    between atoms: O_17  and  C_20
REMARK    5  A    between atoms: C_25  and  O_28
REMARK                            x       y       z     vdW  Elec       q    Type
REMARK                         _______ _______ _______ _____ _____    ______ ____
ROOT
ATOM      1  N   UNL     1      32.348  -9.513 -21.132  0.00  0.00    -0.191 N 
ATOM      2  N   UNL     1      32.858  -8.820 -22.180  0.00  0.00    -0.163 NA
ATOM      3  N   UNL     1      31.567 -11.158 -19.912  0.00  0.00    -0.128 NA
ATOM      4  N   UNL     1      31.572 -10.014 -19.141  0.00  0.00    -0.127 NA
ATOM      5  C   UNL     1      32.033 -10.840 -21.099  0.00  0.00    +0.208 A 
ATOM      6  C   UNL     1      32.041  -9.033 -19.879  0.00  0.00    +0.186 A 
ATOM      7  C   UNL     1      33.070  -7.559 -21.924  0.00  0.00    +0.101 C 
ATOM      8  C   UNL     1      32.265  -7.663 -19.638  0.00  0.00    +0.042 C 
ATOM      9  C   UNL     1      32.768  -6.897 -20.615  0.00  0.00    +0.024 C 
ENDROOT
BRANCH   7  10
ATOM     10  C   UNL     1      33.633  -6.694 -22.994  0.00  0.00    +0.019 C 
ATOM     11  C   UNL     1      34.849  -7.023 -23.591  0.00  0.00    +0.002 C 
ATOM     12  C   UNL     1      32.943  -5.552 -23.402  0.00  0.00    +0.002 C 
ATOM     13  C   UNL     1      35.375  -6.212 -24.595  0.00  0.00    +0.000 C 
ATOM     14  C   UNL     1      33.469  -4.741 -24.406  0.00  0.00    +0.000 C 
ATOM     15  C   UNL     1      34.686  -5.070 -25.003  0.00  0.00    +0.000 C 
ENDBRANCH   7  10
BRANCH   5  16
ATOM     16  C   UNL     1      32.216 -11.755 -22.274  0.00  0.00    +0.272 C 
BRANCH  16  17
ATOM     17  O   UNL     1      33.463 -12.436 -22.144  0.00  0.00    -0.467 OA
BRANCH  17  20
ATOM     18  N   UNL     1      34.381 -15.156 -25.135  0.00  0.00    -0.248 NA
ATOM     19  C   UNL     1      34.375 -14.572 -22.798  0.00  0.00    +0.030 C 
ATOM     20  C   UNL     1      33.774 -13.345 -23.111  0.00  0.00    +0.138 C 
ATOM     21  C   UNL     1      34.665 -15.459 -23.855  0.00  0.00    +0.066 C 
ATOM     22  C   UNL     1      34.685 -14.923 -21.473  0.00  0.00    +0.059 C 
ATOM     23  C   UNL     1      35.263 -16.678 -23.543  0.00  0.00    +0.109 C 
ATOM     24  C   UNL     1      33.480 -13.029 -24.429  0.00  0.00    +0.057 C 
ATOM     25  C   UNL     1      35.571 -17.026 -22.226  0.00  0.00    +0.118 C 
ATOM     26  C   UNL     1      35.282 -16.147 -21.189  0.00  0.00    +0.011 C 
ATOM     27  C   UNL     1      33.801 -13.962 -25.396  0.00  0.00    +0.102 C 
BRANCH  25  28
ATOM     28  O   UNL     1      36.153 -18.227 -21.960  0.00  0.00    -0.476 OA
ATOM     29  C   UNL     1      35.323 -19.239 -21.391  0.00  0.00    +0.252 C 
ENDBRANCH  25  28
ENDBRANCH  17  20
ENDBRANCH  16  17
ENDBRANCH   5  16
TORSDOF 5
ENDMDL
MODEL 8
REMARK VINA RESULT:     -10.8      3.533      8.011
REMARK  Name = 24864821
REMARK  5 active torsions:
REMARK  status: ('A' for Active; 'I' for Inactive)
REMARK    1  A    between atoms: C_5  and  C_16
REMARK    2  A    between atoms: C_7  and  C_10
REMARK    3  A    between atoms: C_16  and  O_17
REMARK    4  A    between atoms: O_17  and  C_20
REMARK    5  A    between atoms: C_25  and  O_28
REMARK                            x       y       z     vdW  Elec       q    Type
REMARK                         _______ _______ _______ _____ _____    ______ ____
ROOT
ATOM      1  N   UNL     1      32.873 -23.616 -14.610  0.00  0.00    -0.191 N 
ATOM      2  N   UNL     1      33.917 -23.171 -15.354  0.00  0.00    -0.163 NA
ATOM      3  N   UNL     1      31.714 -24.443 -12.944  0.00  0.00    -0.128 NA
ATOM      4  N   UNL     1      30.842 -24.150 -13.972  0.00  0.00    -0.127 NA
ATOM      5  C   UNL     1      32.923 -24.119 -13.342  0.00  0.00    +0.208 A 
ATOM      6  C   UNL     1      31.545 -23.654 -14.966  0.00  0.00    +0.186 A 
ATOM      7  C   UNL     1      33.573 -22.735 -16.533  0.00  0.00    +0.101 C 
ATOM      8  C   UNL     1      31.207 -23.193 -16.254  0.00  0.00    +0.042 C 
ATOM      9  C   UNL     1      32.171 -22.733 -17.061  0.00  0.00    +0.024 C 
ENDROOT
BRANCH   7  10
ATOM     10  C   UNL     1      34.628 -22.216 -17.443  0.00  0.00    +0.019 C 
ATOM     11  C   UNL     1      34.305 -21.850 -18.749  0.00  0.00    +0.002 C 
ATOM     12  C   UNL     1      35.941 -22.094 -16.989  0.00  0.00    +0.002 C 
ATOM     13  C   UNL     1      35.295 -21.361 -19.601  0.00  0.00    +0.000 C 
ATOM     14  C   UNL     1      36.931 -21.605 -17.841  0.00  0.00    +0.000 C 
ATOM     15  C   UNL     1      36.609 -21.239 -19.148  0.00  0.00    +0.000 C 
ENDBRANCH   7  10
BRANCH   5  16
ATOM     16  C   UNL     1      34.199 -24.255 -12.564  0.00  0.00    +0.272 C 
BRANCH  16  17
ATOM     17  O   UNL     1      35.242 -24.660 -13.449  0.00  0.00    -0.467 OA
BRANCH  17  20
ATOM     18  N   UNL     1      39.108 -23.846 -12.190  0.00  0.00    -0.248 NA
ATOM     19  C   UNL     1      37.610 -25.105 -13.594  0.00  0.00    +0.030 C 
ATOM     20  C   UNL     1      36.522 -24.409 -13.050  0.00  0.00    +0.138 C 
ATOM     21  C   UNL     1      38.902 -24.788 -13.129  0.00  0.00    +0.066 C 
ATOM     22  C   UNL     1      37.432 -26.095 -14.576  0.00  0.00    +0.059 C 
ATOM     23  C   UNL     1      39.982 -25.481 -13.670  0.00  0.00    +0.109 C 
ATOM     24  C   UNL     1      36.730 -23.437 -12.082  0.00  0.00    +0.057 C 
ATOM     25  C   UNL     1      39.806 -26.464 -14.646  0.00  0.00    +0.118 C 
ATOM     26  C   UNL     1      38.529 -26.772 -15.100  0.00  0.00    +0.011 C 
ATOM     27  C   UNL     1      38.032 -23.196 -11.690  0.00  0.00    +0.102 C 
BRANCH  25  28
ATOM     28  O   UNL     1      40.886 -27.119 -15.153  0.00  0.00    -0.476 OA
ATOM     29  C   UNL     1      40.629 -28.176 -16.078  0.00  0.00    +0.252 C 
ENDBRANCH  25  28
ENDBRANCH  17  20
ENDBRANCH  16  17
ENDBRANCH   5  16
TORSDOF 5
ENDMDL
MODEL 9
REMARK VINA RESULT:     -10.8      2.360      8.186
REMARK  Name = 24864821
REMARK  5 active torsions:
REMARK  status: ('A' for Active; 'I' for Inactive)
REMARK    1  A    between atoms: C_5  and  C_16
REMARK    2  A    between atoms: C_7  and  C_10
REMARK    3  A    between atoms: C_16  and  O_17
REMARK    4  A    between atoms: O_17  and  C_20
REMARK    5  A    between atoms: C_25  and  O_28
REMARK                            x       y       z     vdW  Elec       q    Type
REMARK                         _______ _______ _______ _____ _____    ______ ____
ROOT
ATOM      1  N   UNL     1      35.530 -20.743 -19.583  0.00  0.00    -0.191 N 
ATOM      2  N   UNL     1      34.953 -20.104 -20.631  0.00  0.00    -0.163 NA
ATOM      3  N   UNL     1      35.813 -22.066 -17.858  0.00  0.00    -0.128 NA
ATOM      4  N   UNL     1      37.000 -21.403 -18.092  0.00  0.00    -0.127 NA
ATOM      5  C   UNL     1      34.946 -21.659 -18.758  0.00  0.00    +0.208 A 
ATOM      6  C   UNL     1      36.821 -20.612 -19.128  0.00  0.00    +0.186 A 
ATOM      7  C   UNL     1      35.755 -19.284 -21.252  0.00  0.00    +0.101 C 
ATOM      8  C   UNL     1      37.658 -19.706 -19.808  0.00  0.00    +0.042 C 
ATOM      9  C   UNL     1      37.177 -19.028 -20.858  0.00  0.00    +0.024 C 
ENDROOT
BRANCH   7  10
ATOM     10  C   UNL     1      35.241 -18.525 -22.422  0.00  0.00    +0.019 C 
ATOM     11  C   UNL     1      35.521 -17.165 -22.550  0.00  0.00    +0.002 C 
ATOM     12  C   UNL     1      34.480 -19.175 -23.394  0.00  0.00    +0.002 C 
ATOM     13  C   UNL     1      35.041 -16.455 -23.650  0.00  0.00    +0.000 C 
ATOM     14  C   UNL     1      34.000 -18.464 -24.494  0.00  0.00    +0.000 C 
ATOM     15  C   UNL     1      34.279 -17.104 -24.622  0.00  0.00    +0.000 C 
ENDBRANCH   7  10
BRANCH   5  16
ATOM     16  C   UNL     1      33.519 -22.103 -18.903  0.00  0.00    +0.272 C 
BRANCH  16  17
ATOM     17  O   UNL     1      33.303 -23.250 -18.084  0.00  0.00    -0.467 OA
BRANCH  17  20
ATOM     18  N   UNL     1      31.104 -22.653 -14.620  0.00  0.00    -0.248 NA
ATOM     19  C   UNL     1      33.141 -23.382 -15.679  0.00  0.00    +0.030 C 
ATOM     20  C   UNL     1      32.599 -23.062 -16.932  0.00  0.00    +0.138 C 
ATOM     21  C   UNL     1      32.349 -23.159 -14.535  0.00  0.00    +0.066 C 
ATOM     22  C   UNL     1      34.437 -23.912 -15.553  0.00  0.00    +0.059 C 
ATOM     23  C   UNL     1      32.889 -23.477 -13.291  0.00  0.00    +0.109 C 
ATOM     24  C   UNL     1      31.316 -22.541 -17.023  0.00  0.00    +0.057 C 
ATOM     25  C   UNL     1      34.176 -24.004 -13.165  0.00  0.00    +0.118 C 
ATOM     26  C   UNL     1      34.952 -24.222 -14.298  0.00  0.00    +0.011 C 
ATOM     27  C   UNL     1      30.617 -22.356 -15.846  0.00  0.00    +0.102 C 
BRANCH  25  28
ATOM     28  O   UNL     1      34.671 -24.301 -11.933  0.00  0.00    -0.476 OA
ATOM     29  C   UNL     1      36.046 -24.678 -11.859  0.00  0.00    +0.252 C 
ENDBRANCH  25  28
ENDBRANCH  17  20
ENDBRANCH  16  17
ENDBRANCH   5  16
TORSDOF 5
ENDMDL
