MODEL 1
REMARK VINA RESULT:     -12.0      0.000      0.000
REMARK  Name = 24875320
REMARK  6 active torsions:
REMARK  status: ('A' for Active; 'I' for Inactive)
REMARK    1  A    between atoms: C_1  and  N_22
REMARK    2  A    between atoms: C_3  and  C_10
REMARK    3  A    between atoms: N_9  and  C_12
REMARK    4  A    between atoms: C_14  and  C_21
REMARK    5  A    between atoms: N_22  and  C_25
REMARK    6  A    between atoms: C_28  and  C_32
REMARK                            x       y       z     vdW  Elec       q    Type
REMARK                         _______ _______ _______ _____ _____    ______ ____
ROOT
ATOM      1  C   UNL     1      34.959 -22.852 -15.445  0.00  0.00    +0.044 C 
ATOM      2  C   UNL     1      33.640 -23.237 -15.687  0.00  0.00    -0.008 C 
ATOM      3  C   UNL     1      35.139 -22.047 -17.716  0.00  0.00    +0.055 C 
ATOM      4  C   UNL     1      35.708 -22.258 -16.460  0.00  0.00    +0.019 C 
ATOM      5  C   UNL     1      33.070 -23.026 -16.942  0.00  0.00    -0.003 C 
ATOM      6  C   UNL     1      33.820 -22.431 -17.957  0.00  0.00    +0.004 C 
ATOM      7  C   UNL     1      32.813 -23.875 -14.618  0.00  0.00    +0.032 C 
ENDROOT
BRANCH   3  10
ATOM      8  O   UNL     1      37.132 -21.686 -18.859  0.00  0.00    -0.270 OA
ATOM      9  N   UNL     1      35.223 -20.551 -19.618  0.00  0.00    -0.280 N 
ATOM     10  C   UNL     1      35.921 -21.428 -18.774  0.00  0.00    +0.250 C 
ATOM     11  H   UNL     1      34.263 -20.447 -19.427  0.00  0.00    +0.155 HD
BRANCH   9  12
ATOM     12  C   UNL     1      35.720 -19.794 -20.707  0.00  0.00    +0.050 C 
ATOM     13  C   UNL     1      35.002 -19.736 -21.902  0.00  0.00    +0.019 C 
ATOM     14  C   UNL     1      35.492 -18.991 -22.975  0.00  0.00    +0.073 C 
ATOM     15  C   UNL     1      36.928 -19.107 -20.586  0.00  0.00    +0.015 C 
ATOM     16  C   UNL     1      36.700 -18.304 -22.853  0.00  0.00    +0.004 C 
ATOM     17  C   UNL     1      37.417 -18.362 -21.658  0.00  0.00    +0.001 C 
BRANCH  14  21
ATOM     18  F   UNL     1      33.380 -18.774 -24.077  0.00  0.00    -0.166 F 
ATOM     19  F   UNL     1      35.100 -17.897 -25.065  0.00  0.00    -0.166 F 
ATOM     20  F   UNL     1      34.868 -20.059 -25.005  0.00  0.00    -0.166 F 
ATOM     21  C   UNL     1      34.725 -18.929 -24.252  0.00  0.00    +0.419 C 
ENDBRANCH  14  21
ENDBRANCH   9  12
ENDBRANCH   3  10
BRANCH   1  22
ATOM     22  N   UNL     1      35.551 -23.058 -14.180  0.00  0.00    -0.312 N 
ATOM     23  H   UNL     1      35.259 -22.412 -13.496  0.00  0.00    +0.152 HD
BRANCH  22  25
ATOM     24  N   UNL     1      37.040 -25.712 -12.089  0.00  0.00    -0.241 NA
ATOM     25  C   UNL     1      36.478 -24.004 -13.705  0.00  0.00    +0.068 C 
ATOM     26  C   UNL     1      37.705 -24.184 -14.333  0.00  0.00    +0.022 C 
ATOM     27  C   UNL     1      36.196 -24.786 -12.596  0.00  0.00    +0.113 C 
ATOM     28  C   UNL     1      38.600 -25.128 -13.842  0.00  0.00    +0.073 C 
ATOM     29  C   UNL     1      38.223 -25.860 -12.727  0.00  0.00    +0.103 C 
BRANCH  28  32
ATOM     30  O   UNL     1      40.900 -24.706 -14.122  0.00  0.00    -0.270 OA
ATOM     31  N   UNL     1      39.966 -26.294 -15.488  0.00  0.00    -0.325 N 
ATOM     32  C   UNL     1      39.889 -25.340 -14.476  0.00  0.00    +0.244 C 
ATOM     33  H   UNL     1      40.824 -26.464 -15.939  0.00  0.00    +0.145 HD
ATOM     34  H   UNL     1      39.163 -26.800 -15.751  0.00  0.00    +0.145 HD
ENDBRANCH  28  32
ENDBRANCH  22  25
ENDBRANCH   1  22
TORSDOF 6
ENDMDL
MODEL 2
REMARK VINA RESULT:     -11.9      6.561      9.986
REMARK  Name = 24875320
REMARK  6 active torsions:
REMARK  status: ('A' for Active; 'I' for Inactive)
REMARK    1  A    between atoms: C_1  and  N_22
REMARK    2  A    between atoms: C_3  and  C_10
REMARK    3  A    between atoms: N_9  and  C_12
REMARK    4  A    between atoms: C_14  and  C_21
REMARK    5  A    between atoms: N_22  and  C_25
REMARK    6  A    between atoms: C_28  and  C_32
REMARK                            x       y       z     vdW  Elec       q    Type
REMARK                         _______ _______ _______ _____ _____    ______ ____
ROOT
ATOM      1  C   UNL     1      35.484 -17.028 -23.264  0.00  0.00    +0.044 C 
ATOM      2  C   UNL     1      34.713 -17.436 -24.353  0.00  0.00    -0.008 C 
ATOM      3  C   UNL     1      34.596 -14.791 -23.476  0.00  0.00    +0.055 C 
ATOM      4  C   UNL     1      35.426 -15.705 -22.826  0.00  0.00    +0.019 C 
ATOM      5  C   UNL     1      33.884 -16.523 -25.003  0.00  0.00    -0.003 C 
ATOM      6  C   UNL     1      33.826 -15.200 -24.565  0.00  0.00    +0.004 C 
ATOM      7  C   UNL     1      34.755 -18.848 -24.843  0.00  0.00    +0.032 C 
ENDROOT
BRANCH   3  10
ATOM      8  O   UNL     1      34.618 -13.174 -21.804  0.00  0.00    -0.270 OA
ATOM      9  N   UNL     1      34.366 -12.443 -24.019  0.00  0.00    -0.280 N 
ATOM     10  C   UNL     1      34.536 -13.412 -23.020  0.00  0.00    +0.250 C 
ATOM     11  H   UNL     1      34.319 -12.784 -24.942  0.00  0.00    +0.155 HD
BRANCH   9  12
ATOM     12  C   UNL     1      34.250 -11.039 -23.875  0.00  0.00    +0.050 C 
ATOM     13  C   UNL     1      33.148 -10.492 -23.217  0.00  0.00    +0.019 C 
ATOM     14  C   UNL     1      33.035  -9.109 -23.076  0.00  0.00    +0.073 C 
ATOM     15  C   UNL     1      35.239 -10.202 -24.393  0.00  0.00    +0.015 C 
ATOM     16  C   UNL     1      34.025  -8.272 -23.594  0.00  0.00    +0.004 C 
ATOM     17  C   UNL     1      35.126  -8.819 -24.251  0.00  0.00    +0.001 C 
BRANCH  14  21
ATOM     18  F   UNL     1      31.073  -9.453 -21.753  0.00  0.00    -0.166 F 
ATOM     19  F   UNL     1      32.194  -7.631 -21.396  0.00  0.00    -0.166 F 
ATOM     20  F   UNL     1      31.026  -7.847 -23.217  0.00  0.00    -0.166 F 
ATOM     21  C   UNL     1      31.858  -8.524 -22.373  0.00  0.00    +0.419 C 
ENDBRANCH  14  21
ENDBRANCH   9  12
ENDBRANCH   3  10
BRANCH   1  22
ATOM     22  N   UNL     1      36.328 -17.940 -22.594  0.00  0.00    -0.312 N 
ATOM     23  H   UNL     1      37.260 -17.926 -22.913  0.00  0.00    +0.152 HD
BRANCH  22  25
ATOM     24  N   UNL     1      36.983 -20.191 -19.741  0.00  0.00    -0.241 NA
ATOM     25  C   UNL     1      36.099 -18.866 -21.559  0.00  0.00    +0.068 C 
ATOM     26  C   UNL     1      34.825 -19.369 -21.316  0.00  0.00    +0.022 C 
ATOM     27  C   UNL     1      37.135 -19.305 -20.751  0.00  0.00    +0.113 C 
ATOM     28  C   UNL     1      34.629 -20.282 -20.286  0.00  0.00    +0.073 C 
ATOM     29  C   UNL     1      35.731 -20.658 -19.534  0.00  0.00    +0.103 C 
BRANCH  28  32
ATOM     30  O   UNL     1      32.277 -20.252 -20.393  0.00  0.00    -0.270 OA
ATOM     31  N   UNL     1      33.240 -22.026 -19.304  0.00  0.00    -0.325 N 
ATOM     32  C   UNL     1      33.312 -20.825 -20.007  0.00  0.00    +0.244 C 
ATOM     33  H   UNL     1      32.363 -22.424 -19.098  0.00  0.00    +0.145 HD
ATOM     34  H   UNL     1      34.066 -22.477 -19.015  0.00  0.00    +0.145 HD
ENDBRANCH  28  32
ENDBRANCH  22  25
ENDBRANCH   1  22
TORSDOF 6
ENDMDL
MODEL 3
REMARK VINA RESULT:     -11.8      3.556      5.575
REMARK  Name = 24875320
REMARK  6 active torsions:
REMARK  status: ('A' for Active; 'I' for Inactive)
REMARK    1  A    between atoms: C_1  and  N_22
REMARK    2  A    between atoms: C_3  and  C_10
REMARK    3  A    between atoms: N_9  and  C_12
REMARK    4  A    between atoms: C_14  and  C_21
REMARK    5  A    between atoms: N_22  and  C_25
REMARK    6  A    between atoms: C_28  and  C_32
REMARK                            x       y       z     vdW  Elec       q    Type
REMARK                         _______ _______ _______ _____ _____    ______ ____
ROOT
ATOM      1  C   UNL     1      34.785 -22.584 -17.264  0.00  0.00    +0.044 C 
ATOM      2  C   UNL     1      36.117 -22.407 -16.889  0.00  0.00    -0.008 C 
ATOM      3  C   UNL     1      35.109 -21.073 -19.122  0.00  0.00    +0.055 C 
ATOM      4  C   UNL     1      34.281 -21.916 -18.380  0.00  0.00    +0.019 C 
ATOM      5  C   UNL     1      36.945 -21.565 -17.630  0.00  0.00    -0.003 C 
ATOM      6  C   UNL     1      36.441 -20.897 -18.747  0.00  0.00    +0.004 C 
ATOM      7  C   UNL     1      36.684 -23.111 -15.699  0.00  0.00    +0.032 C 
ENDROOT
BRANCH   3  10
ATOM      8  O   UNL     1      33.384 -20.510 -20.577  0.00  0.00    -0.270 OA
ATOM      9  N   UNL     1      35.508 -19.610 -21.008  0.00  0.00    -0.280 N 
ATOM     10  C   UNL     1      34.584 -20.376 -20.285  0.00  0.00    +0.250 C 
ATOM     11  H   UNL     1      36.426 -19.599 -20.653  0.00  0.00    +0.155 HD
BRANCH   9  12
ATOM     12  C   UNL     1      35.294 -18.849 -22.184  0.00  0.00    +0.050 C 
ATOM     13  C   UNL     1      35.208 -17.458 -22.111  0.00  0.00    +0.019 C 
ATOM     14  C   UNL     1      34.997 -16.710 -23.269  0.00  0.00    +0.073 C 
ATOM     15  C   UNL     1      35.169 -19.491 -23.416  0.00  0.00    +0.015 C 
ATOM     16  C   UNL     1      34.872 -17.353 -24.501  0.00  0.00    +0.004 C 
ATOM     17  C   UNL     1      34.958 -18.743 -24.574  0.00  0.00    +0.001 C 
BRANCH  14  21
ATOM     18  F   UNL     1      35.202 -14.720 -21.958  0.00  0.00    -0.166 F 
ATOM     19  F   UNL     1      35.746 -14.579 -24.053  0.00  0.00    -0.166 F 
ATOM     20  F   UNL     1      33.654 -14.760 -23.484  0.00  0.00    -0.166 F 
ATOM     21  C   UNL     1      34.904 -15.225 -23.191  0.00  0.00    +0.419 C 
ENDBRANCH  14  21
ENDBRANCH   9  12
ENDBRANCH   3  10
BRANCH   1  22
ATOM     22  N   UNL     1      33.933 -23.433 -16.526  0.00  0.00    -0.312 N 
ATOM     23  H   UNL     1      34.221 -24.375 -16.520  0.00  0.00    +0.152 HD
BRANCH  22  25
ATOM     24  N   UNL     1      31.689 -22.783 -13.667  0.00  0.00    -0.241 NA
ATOM     25  C   UNL     1      32.752 -23.198 -15.797  0.00  0.00    +0.068 C 
ATOM     26  C   UNL     1      31.517 -23.144 -16.433  0.00  0.00    +0.022 C 
ATOM     27  C   UNL     1      32.784 -23.013 -14.425  0.00  0.00    +0.113 C 
ATOM     28  C   UNL     1      30.367 -22.909 -15.687  0.00  0.00    +0.073 C 
ATOM     29  C   UNL     1      30.505 -22.737 -14.319  0.00  0.00    +0.103 C 
BRANCH  28  32
ATOM     30  O   UNL     1      28.517 -21.760 -16.585  0.00  0.00    -0.270 OA
ATOM     31  N   UNL     1      28.440 -24.051 -16.644  0.00  0.00    -0.325 N 
ATOM     32  C   UNL     1      29.062 -22.847 -16.321  0.00  0.00    +0.244 C 
ATOM     33  H   UNL     1      27.554 -24.047 -17.075  0.00  0.00    +0.145 HD
ATOM     34  H   UNL     1      28.885 -24.905 -16.443  0.00  0.00    +0.145 HD
ENDBRANCH  28  32
ENDBRANCH  22  25
ENDBRANCH   1  22
TORSDOF 6
ENDMDL
MODEL 4
REMARK VINA RESULT:     -11.7      1.460      2.054
REMARK  Name = 24875320
REMARK  6 active torsions:
REMARK  status: ('A' for Active; 'I' for Inactive)
REMARK    1  A    between atoms: C_1  and  N_22
REMARK    2  A    between atoms: C_3  and  C_10
REMARK    3  A    between atoms: N_9  and  C_12
REMARK    4  A    between atoms: C_14  and  C_21
REMARK    5  A    between atoms: N_22  and  C_25
REMARK    6  A    between atoms: C_28  and  C_32
REMARK                            x       y       z     vdW  Elec       q    Type
REMARK                         _______ _______ _______ _____ _____    ______ ____
ROOT
ATOM      1  C   UNL     1      33.728 -23.389 -15.988  0.00  0.00    +0.044 C 
ATOM      2  C   UNL     1      32.367 -23.094 -16.056  0.00  0.00    -0.008 C 
ATOM      3  C   UNL     1      34.093 -22.183 -18.050  0.00  0.00    +0.055 C 
ATOM      4  C   UNL     1      34.591 -22.935 -16.985  0.00  0.00    +0.019 C 
ATOM      5  C   UNL     1      31.868 -22.343 -17.120  0.00  0.00    -0.003 C 
ATOM      6  C   UNL     1      32.731 -21.888 -18.118  0.00  0.00    +0.004 C 
ATOM      7  C   UNL     1      31.420 -23.567 -15.002  0.00  0.00    +0.032 C 
ENDROOT
BRANCH   3  10
ATOM      8  O   UNL     1      36.005 -22.376 -19.361  0.00  0.00    -0.270 OA
ATOM      9  N   UNL     1      34.640 -20.497 -19.697  0.00  0.00    -0.280 N 
ATOM     10  C   UNL     1      34.992 -21.710 -19.089  0.00  0.00    +0.250 C 
ATOM     11  H   UNL     1      33.806 -20.083 -19.376  0.00  0.00    +0.155 HD
BRANCH   9  12
ATOM     12  C   UNL     1      35.329 -19.787 -20.712  0.00  0.00    +0.050 C 
ATOM     13  C   UNL     1      34.743 -19.618 -21.967  0.00  0.00    +0.019 C 
ATOM     14  C   UNL     1      35.420 -18.919 -22.965  0.00  0.00    +0.073 C 
ATOM     15  C   UNL     1      36.593 -19.256 -20.456  0.00  0.00    +0.015 C 
ATOM     16  C   UNL     1      36.685 -18.388 -22.709  0.00  0.00    +0.004 C 
ATOM     17  C   UNL     1      37.271 -18.557 -21.454  0.00  0.00    +0.001 C 
BRANCH  14  21
ATOM     18  F   UNL     1      33.437 -18.605 -24.264  0.00  0.00    -0.166 F 
ATOM     19  F   UNL     1      35.241 -17.633 -24.973  0.00  0.00    -0.166 F 
ATOM     20  F   UNL     1      35.033 -19.791 -25.142  0.00  0.00    -0.166 F 
ATOM     21  C   UNL     1      34.795 -18.739 -24.306  0.00  0.00    +0.419 C 
ENDBRANCH  14  21
ENDBRANCH   9  12
ENDBRANCH   3  10
BRANCH   1  22
ATOM     22  N   UNL     1      34.250 -24.148 -14.917  0.00  0.00    -0.312 N 
ATOM     23  H   UNL     1      33.574 -24.689 -14.448  0.00  0.00    +0.152 HD
BRANCH  22  25
ATOM     24  N   UNL     1      37.734 -25.305 -14.518  0.00  0.00    -0.241 NA
ATOM     25  C   UNL     1      35.548 -24.282 -14.389  0.00  0.00    +0.068 C 
ATOM     26  C   UNL     1      35.941 -23.566 -13.264  0.00  0.00    +0.022 C 
ATOM     27  C   UNL     1      36.473 -25.131 -14.973  0.00  0.00    +0.113 C 
ATOM     28  C   UNL     1      37.230 -23.718 -12.765  0.00  0.00    +0.073 C 
ATOM     29  C   UNL     1      38.080 -24.593 -13.422  0.00  0.00    +0.103 C 
BRANCH  28  32
ATOM     30  O   UNL     1      38.510 -22.070 -11.674  0.00  0.00    -0.270 OA
ATOM     31  N   UNL     1      37.109 -23.326 -10.364  0.00  0.00    -0.325 N 
ATOM     32  C   UNL     1      37.671 -22.985 -11.592  0.00  0.00    +0.244 C 
ATOM     33  H   UNL     1      37.385 -22.850  -9.547  0.00  0.00    +0.145 HD
ATOM     34  H   UNL     1      36.436 -24.043 -10.312  0.00  0.00    +0.145 HD
ENDBRANCH  28  32
ENDBRANCH  22  25
ENDBRANCH   1  22
TORSDOF 6
ENDMDL
MODEL 5
REMARK VINA RESULT:     -11.5      5.797      8.801
REMARK  Name = 24875320
REMARK  6 active torsions:
REMARK  status: ('A' for Active; 'I' for Inactive)
REMARK    1  A    between atoms: C_1  and  N_22
REMARK    2  A    between atoms: C_3  and  C_10
REMARK    3  A    between atoms: N_9  and  C_12
REMARK    4  A    between atoms: C_14  and  C_21
REMARK    5  A    between atoms: N_22  and  C_25
REMARK    6  A    between atoms: C_28  and  C_32
REMARK                            x       y       z     vdW  Elec       q    Type
REMARK                         _______ _______ _______ _____ _____    ______ ____
ROOT
ATOM      1  C   UNL     1      35.392 -18.168 -22.574  0.00  0.00    +0.044 C 
ATOM      2  C   UNL     1      35.196 -18.470 -23.921  0.00  0.00    -0.008 C 
ATOM      3  C   UNL     1      34.839 -15.856 -23.012  0.00  0.00    +0.055 C 
ATOM      4  C   UNL     1      35.214 -16.861 -22.119  0.00  0.00    +0.019 C 
ATOM      5  C   UNL     1      34.821 -17.466 -24.814  0.00  0.00    -0.003 C 
ATOM      6  C   UNL     1      34.643 -16.159 -24.359  0.00  0.00    +0.004 C 
ATOM      7  C   UNL     1      35.379 -19.861 -24.435  0.00  0.00    +0.032 C 
ENDROOT
BRANCH   3  10
ATOM      8  O   UNL     1      35.164 -14.157 -21.457  0.00  0.00    -0.270 OA
ATOM      9  N   UNL     1      33.876 -13.663 -23.355  0.00  0.00    -0.280 N 
ATOM     10  C   UNL     1      34.654 -14.495 -22.538  0.00  0.00    +0.250 C 
ATOM     11  H   UNL     1      33.539 -14.072 -24.185  0.00  0.00    +0.155 HD
BRANCH   9  12
ATOM     12  C   UNL     1      33.510 -12.311 -23.143  0.00  0.00    +0.050 C 
ATOM     13  C   UNL     1      32.719 -11.965 -22.046  0.00  0.00    +0.019 C 
ATOM     14  C   UNL     1      32.359 -10.634 -21.838  0.00  0.00    +0.073 C 
ATOM     15  C   UNL     1      33.940 -11.324 -24.030  0.00  0.00    +0.015 C 
ATOM     16  C   UNL     1      32.789  -9.648 -22.726  0.00  0.00    +0.004 C 
ATOM     17  C   UNL     1      33.580  -9.993 -23.822  0.00  0.00    +0.001 C 
BRANCH  14  21
ATOM     18  F   UNL     1      31.974 -10.759 -19.480  0.00  0.00    -0.166 F 
ATOM     19  F   UNL     1      31.408  -8.916 -20.474  0.00  0.00    -0.166 F 
ATOM     20  F   UNL     1      30.231 -10.720 -20.780  0.00  0.00    -0.166 F 
ATOM     21  C   UNL     1      31.514 -10.264 -20.667  0.00  0.00    +0.419 C 
ENDBRANCH  14  21
ENDBRANCH   9  12
ENDBRANCH   3  10
BRANCH   1  22
ATOM     22  N   UNL     1      35.770 -19.172 -21.656  0.00  0.00    -0.312 N 
ATOM     23  H   UNL     1      36.735 -19.369 -21.659  0.00  0.00    +0.152 HD
BRANCH  22  25
ATOM     24  N   UNL     1      32.896 -20.762 -19.968  0.00  0.00    -0.241 NA
ATOM     25  C   UNL     1      35.038 -19.947 -20.737  0.00  0.00    +0.068 C 
ATOM     26  C   UNL     1      35.678 -20.647 -19.720  0.00  0.00    +0.022 C 
ATOM     27  C   UNL     1      33.658 -20.037 -20.817  0.00  0.00    +0.113 C 
ATOM     28  C   UNL     1      34.928 -21.406 -18.828  0.00  0.00    +0.073 C 
ATOM     29  C   UNL     1      33.553 -21.430 -18.993  0.00  0.00    +0.103 C 
BRANCH  28  32
ATOM     30  O   UNL     1      34.956 -23.029 -17.121  0.00  0.00    -0.270 OA
ATOM     31  N   UNL     1      36.898 -21.858 -17.467  0.00  0.00    -0.325 N 
ATOM     32  C   UNL     1      35.566 -22.149 -17.755  0.00  0.00    +0.244 C 
ATOM     33  H   UNL     1      37.362 -22.342 -16.746  0.00  0.00    +0.145 HD
ATOM     34  H   UNL     1      37.375 -21.169 -17.984  0.00  0.00    +0.145 HD
ENDBRANCH  28  32
ENDBRANCH  22  25
ENDBRANCH   1  22
TORSDOF 6
ENDMDL
MODEL 6
REMARK VINA RESULT:     -11.5      2.574      5.068
REMARK  Name = 24875320
REMARK  6 active torsions:
REMARK  status: ('A' for Active; 'I' for Inactive)
REMARK    1  A    between atoms: C_1  and  N_22
REMARK    2  A    between atoms: C_3  and  C_10
REMARK    3  A    between atoms: N_9  and  C_12
REMARK    4  A    between atoms: C_14  and  C_21
REMARK    5  A    between atoms: N_22  and  C_25
REMARK    6  A    between atoms: C_28  and  C_32
REMARK                            x       y       z     vdW  Elec       q    Type
REMARK                         _______ _______ _______ _____ _____    ______ ____
ROOT
ATOM      1  C   UNL     1      35.710 -24.059 -14.697  0.00  0.00    +0.044 C 
ATOM      2  C   UNL     1      36.984 -24.404 -14.248  0.00  0.00    -0.008 C 
ATOM      3  C   UNL     1      36.686 -22.516 -16.280  0.00  0.00    +0.055 C 
ATOM      4  C   UNL     1      35.561 -23.115 -15.713  0.00  0.00    +0.019 C 
ATOM      5  C   UNL     1      38.109 -23.805 -14.814  0.00  0.00    -0.003 C 
ATOM      6  C   UNL     1      37.960 -22.861 -15.830  0.00  0.00    +0.004 C 
ATOM      7  C   UNL     1      37.173 -25.413 -13.162  0.00  0.00    +0.032 C 
ENDROOT
BRANCH   3  10
ATOM      8  O   UNL     1      37.306 -20.563 -17.381  0.00  0.00    -0.270 OA
ATOM      9  N   UNL     1      35.474 -21.756 -18.233  0.00  0.00    -0.280 N 
ATOM     10  C   UNL     1      36.530 -21.532 -17.339  0.00  0.00    +0.250 C 
ATOM     11  H   UNL     1      34.943 -22.570 -18.073  0.00  0.00    +0.155 HD
BRANCH   9  12
ATOM     12  C   UNL     1      35.069 -20.964 -19.336  0.00  0.00    +0.050 C 
ATOM     13  C   UNL     1      36.015 -20.237 -20.058  0.00  0.00    +0.019 C 
ATOM     14  C   UNL     1      35.616 -19.458 -21.144  0.00  0.00    +0.073 C 
ATOM     15  C   UNL     1      33.724 -20.912 -19.699  0.00  0.00    +0.015 C 
ATOM     16  C   UNL     1      34.270 -19.406 -21.507  0.00  0.00    +0.004 C 
ATOM     17  C   UNL     1      33.325 -20.133 -20.785  0.00  0.00    +0.001 C 
BRANCH  14  21
ATOM     18  F   UNL     1      36.612 -18.940 -23.257  0.00  0.00    -0.166 F 
ATOM     19  F   UNL     1      36.470 -17.327 -21.814  0.00  0.00    -0.166 F 
ATOM     20  F   UNL     1      37.906 -18.932 -21.509  0.00  0.00    -0.166 F 
ATOM     21  C   UNL     1      36.627 -18.680 -21.916  0.00  0.00    +0.419 C 
ENDBRANCH  14  21
ENDBRANCH   9  12
ENDBRANCH   3  10
BRANCH   1  22
ATOM     22  N   UNL     1      34.559 -24.656 -14.136  0.00  0.00    -0.312 N 
ATOM     23  H   UNL     1      34.748 -25.476 -13.624  0.00  0.00    +0.152 HD
BRANCH  22  25
ATOM     24  N   UNL     1      31.045 -24.293 -13.063  0.00  0.00    -0.241 NA
ATOM     25  C   UNL     1      33.196 -24.308 -14.165  0.00  0.00    +0.068 C 
ATOM     26  C   UNL     1      32.645 -23.662 -15.266  0.00  0.00    +0.022 C 
ATOM     27  C   UNL     1      32.361 -24.599 -13.099  0.00  0.00    +0.113 C 
ATOM     28  C   UNL     1      31.294 -23.329 -15.266  0.00  0.00    +0.073 C 
ATOM     29  C   UNL     1      30.544 -23.665 -14.150  0.00  0.00    +0.103 C 
BRANCH  28  32
ATOM     30  O   UNL     1      31.380 -22.075 -17.258  0.00  0.00    -0.270 OA
ATOM     31  N   UNL     1      29.300 -22.689 -16.511  0.00  0.00    -0.325 N 
ATOM     32  C   UNL     1      30.689 -22.654 -16.400  0.00  0.00    +0.244 C 
ATOM     33  H   UNL     1      28.855 -22.242 -17.267  0.00  0.00    +0.145 HD
ATOM     34  H   UNL     1      28.764 -23.161 -15.834  0.00  0.00    +0.145 HD
ENDBRANCH  28  32
ENDBRANCH  22  25
ENDBRANCH   1  22
TORSDOF 6
ENDMDL
MODEL 7
REMARK VINA RESULT:     -11.2      4.751      8.889
REMARK  Name = 24875320
REMARK  6 active torsions:
REMARK  status: ('A' for Active; 'I' for Inactive)
REMARK    1  A    between atoms: C_1  and  N_22
REMARK    2  A    between atoms: C_3  and  C_10
REMARK    3  A    between atoms: N_9  and  C_12
REMARK    4  A    between atoms: C_14  and  C_21
REMARK    5  A    between atoms: N_22  and  C_25
REMARK    6  A    between atoms: C_28  and  C_32
REMARK                            x       y       z     vdW  Elec       q    Type
REMARK                         _______ _______ _______ _____ _____    ______ ____
ROOT
ATOM      1  C   UNL     1      31.912 -22.778 -16.367  0.00  0.00    +0.044 C 
ATOM      2  C   UNL     1      30.624 -22.855 -15.838  0.00  0.00    -0.008 C 
ATOM      3  C   UNL     1      32.819 -23.587 -14.278  0.00  0.00    +0.055 C 
ATOM      4  C   UNL     1      33.009 -23.143 -15.586  0.00  0.00    +0.019 C 
ATOM      5  C   UNL     1      30.433 -23.299 -14.529  0.00  0.00    -0.003 C 
ATOM      6  C   UNL     1      31.530 -23.664 -13.749  0.00  0.00    +0.004 C 
ATOM      7  C   UNL     1      29.431 -22.472 -16.651  0.00  0.00    +0.032 C 
ENDROOT
BRANCH   3  10
ATOM      8  O   UNL     1      33.768 -24.447 -12.336  0.00  0.00    -0.270 OA
ATOM      9  N   UNL     1      35.222 -23.731 -14.033  0.00  0.00    -0.280 N 
ATOM     10  C   UNL     1      33.962 -23.966 -13.465  0.00  0.00    +0.250 C 
ATOM     11  H   UNL     1      35.218 -23.345 -14.939  0.00  0.00    +0.155 HD
BRANCH   9  12
ATOM     12  C   UNL     1      36.501 -23.974 -13.473  0.00  0.00    +0.050 C 
ATOM     13  C   UNL     1      37.450 -24.702 -14.191  0.00  0.00    +0.019 C 
ATOM     14  C   UNL     1      38.709 -24.941 -13.640  0.00  0.00    +0.073 C 
ATOM     15  C   UNL     1      36.811 -23.485 -12.204  0.00  0.00    +0.015 C 
ATOM     16  C   UNL     1      39.019 -24.452 -12.370  0.00  0.00    +0.004 C 
ATOM     17  C   UNL     1      38.070 -23.725 -11.653  0.00  0.00    +0.001 C 
BRANCH  14  21
ATOM     18  F   UNL     1      40.302 -25.015 -15.423  0.00  0.00    -0.166 F 
ATOM     19  F   UNL     1      40.765 -26.162 -13.641  0.00  0.00    -0.166 F 
ATOM     20  F   UNL     1      39.198 -26.837 -14.989  0.00  0.00    -0.166 F 
ATOM     21  C   UNL     1      39.723 -25.719 -14.407  0.00  0.00    +0.419 C 
ENDBRANCH  14  21
ENDBRANCH   9  12
ENDBRANCH   3  10
BRANCH   1  22
ATOM     22  N   UNL     1      32.125 -22.331 -17.690  0.00  0.00    -0.312 N 
ATOM     23  H   UNL     1      31.307 -22.314 -18.238  0.00  0.00    +0.152 HD
BRANCH  22  25
ATOM     24  N   UNL     1      35.663 -22.084 -18.715  0.00  0.00    -0.241 NA
ATOM     25  C   UNL     1      33.276 -21.907 -18.378  0.00  0.00    +0.068 C 
ATOM     26  C   UNL     1      33.201 -20.933 -19.368  0.00  0.00    +0.022 C 
ATOM     27  C   UNL     1      34.520 -22.446 -18.092  0.00  0.00    +0.113 C 
ATOM     28  C   UNL     1      34.356 -20.534 -20.032  0.00  0.00    +0.073 C 
ATOM     29  C   UNL     1      35.552 -21.134 -19.671  0.00  0.00    +0.103 C 
BRANCH  28  32
ATOM     30  O   UNL     1      33.442 -19.538 -21.961  0.00  0.00    -0.270 OA
ATOM     31  N   UNL     1      35.265 -18.505 -21.028  0.00  0.00    -0.325 N 
ATOM     32  C   UNL     1      34.311 -19.519 -21.069  0.00  0.00    +0.244 C 
ATOM     33  H   UNL     1      35.265 -17.800 -21.715  0.00  0.00    +0.145 HD
ATOM     34  H   UNL     1      35.940 -18.493 -20.311  0.00  0.00    +0.145 HD
ENDBRANCH  28  32
ENDBRANCH  22  25
ENDBRANCH   1  22
TORSDOF 6
ENDMDL
MODEL 8
REMARK VINA RESULT:     -11.2      2.586      4.983
REMARK  Name = 24875320
REMARK  6 active torsions:
REMARK  status: ('A' for Active; 'I' for Inactive)
REMARK    1  A    between atoms: C_1  and  N_22
REMARK    2  A    between atoms: C_3  and  C_10
REMARK    3  A    between atoms: N_9  and  C_12
REMARK    4  A    between atoms: C_14  and  C_21
REMARK    5  A    between atoms: N_22  and  C_25
REMARK    6  A    between atoms: C_28  and  C_32
REMARK                            x       y       z     vdW  Elec       q    Type
REMARK                         _______ _______ _______ _____ _____    ______ ____
ROOT
ATOM      1  C   UNL     1      35.147 -23.205 -15.654  0.00  0.00    +0.044 C 
ATOM      2  C   UNL     1      36.247 -22.842 -14.877  0.00  0.00    -0.008 C 
ATOM      3  C   UNL     1      36.062 -21.976 -17.523  0.00  0.00    +0.055 C 
ATOM      4  C   UNL     1      35.054 -22.771 -16.977  0.00  0.00    +0.019 C 
ATOM      5  C   UNL     1      37.254 -22.047 -15.423  0.00  0.00    -0.003 C 
ATOM      6  C   UNL     1      37.162 -21.614 -16.746  0.00  0.00    +0.004 C 
ATOM      7  C   UNL     1      36.372 -23.293 -13.458  0.00  0.00    +0.032 C 
ENDROOT
BRANCH   3  10
ATOM      8  O   UNL     1      35.434 -22.266 -19.744  0.00  0.00    -0.270 OA
ATOM      9  N   UNL     1      36.512 -20.262 -19.171  0.00  0.00    -0.280 N 
ATOM     10  C   UNL     1      35.964 -21.524 -18.901  0.00  0.00    +0.250 C 
ATOM     11  H   UNL     1      36.898 -19.789 -18.399  0.00  0.00    +0.155 HD
BRANCH   9  12
ATOM     12  C   UNL     1      36.584 -19.579 -20.410  0.00  0.00    +0.050 C 
ATOM     13  C   UNL     1      35.506 -19.621 -21.295  0.00  0.00    +0.019 C 
ATOM     14  C   UNL     1      35.577 -18.948 -22.514  0.00  0.00    +0.073 C 
ATOM     15  C   UNL     1      37.734 -18.865 -20.747  0.00  0.00    +0.015 C 
ATOM     16  C   UNL     1      36.728 -18.234 -22.850  0.00  0.00    +0.004 C 
ATOM     17  C   UNL     1      37.805 -18.192 -21.966  0.00  0.00    +0.001 C 
BRANCH  14  21
ATOM     18  F   UNL     1      34.628 -19.812 -24.533  0.00  0.00    -0.166 F 
ATOM     19  F   UNL     1      33.266 -19.434 -22.887  0.00  0.00    -0.166 F 
ATOM     20  F   UNL     1      34.130 -17.767 -23.985  0.00  0.00    -0.166 F 
ATOM     21  C   UNL     1      34.425 -18.992 -23.459  0.00  0.00    +0.419 C 
ENDBRANCH  14  21
ENDBRANCH   9  12
ENDBRANCH   3  10
BRANCH   1  22
ATOM     22  N   UNL     1      34.118 -24.010 -15.118  0.00  0.00    -0.312 N 
ATOM     23  H   UNL     1      34.371 -24.955 -15.008  0.00  0.00    +0.152 HD
BRANCH  22  25
ATOM     24  N   UNL     1      31.230 -23.359 -12.911  0.00  0.00    -0.241 NA
ATOM     25  C   UNL     1      32.800 -23.726 -14.711  0.00  0.00    +0.068 C 
ATOM     26  C   UNL     1      31.788 -23.533 -15.644  0.00  0.00    +0.022 C 
ATOM     27  C   UNL     1      32.473 -23.629 -13.368  0.00  0.00    +0.113 C 
ATOM     28  C   UNL     1      30.496 -23.253 -15.212  0.00  0.00    +0.073 C 
ATOM     29  C   UNL     1      30.271 -23.178 -13.847  0.00  0.00    +0.103 C 
BRANCH  28  32
ATOM     30  O   UNL     1      29.249 -21.952 -16.729  0.00  0.00    -0.270 OA
ATOM     31  N   UNL     1      28.578 -24.124 -16.434  0.00  0.00    -0.325 N 
ATOM     32  C   UNL     1      29.417 -23.047 -16.161  0.00  0.00    +0.244 C 
ATOM     33  H   UNL     1      27.835 -24.021 -17.073  0.00  0.00    +0.145 HD
ATOM     34  H   UNL     1      28.727 -24.990 -15.989  0.00  0.00    +0.145 HD
ENDBRANCH  28  32
ENDBRANCH  22  25
ENDBRANCH   1  22
TORSDOF 6
ENDMDL
MODEL 9
REMARK VINA RESULT:     -11.0      3.754      5.481
REMARK  Name = 24875320
REMARK  6 active torsions:
REMARK  status: ('A' for Active; 'I' for Inactive)
REMARK    1  A    between atoms: C_1  and  N_22
REMARK    2  A    between atoms: C_3  and  C_10
REMARK    3  A    between atoms: N_9  and  C_12
REMARK    4  A    between atoms: C_14  and  C_21
REMARK    5  A    between atoms: N_22  and  C_25
REMARK    6  A    between atoms: C_28  and  C_32
REMARK                            x       y       z     vdW  Elec       q    Type
REMARK                         _______ _______ _______ _____ _____    ______ ____
ROOT
ATOM      1  C   UNL     1      35.038 -22.228 -17.769  0.00  0.00    +0.044 C 
ATOM      2  C   UNL     1      36.345 -22.035 -17.322  0.00  0.00    -0.008 C 
ATOM      3  C   UNL     1      35.388 -20.578 -19.500  0.00  0.00    +0.055 C 
ATOM      4  C   UNL     1      34.560 -21.499 -18.858  0.00  0.00    +0.019 C 
ATOM      5  C   UNL     1      37.174 -21.115 -17.963  0.00  0.00    -0.003 C 
ATOM      6  C   UNL     1      36.695 -20.386 -19.052  0.00  0.00    +0.004 C 
ATOM      7  C   UNL     1      36.883 -22.803 -16.159  0.00  0.00    +0.032 C 
ENDROOT
BRANCH   3  10
ATOM      8  O   UNL     1      33.832 -20.172 -21.180  0.00  0.00    -0.270 OA
ATOM      9  N   UNL     1      35.679 -18.732 -21.038  0.00  0.00    -0.280 N 
ATOM     10  C   UNL     1      34.889 -19.818 -20.634  0.00  0.00    +0.250 C 
ATOM     11  H   UNL     1      36.492 -18.573 -20.506  0.00  0.00    +0.155 HD
BRANCH   9  12
ATOM     12  C   UNL     1      35.462 -17.835 -22.113  0.00  0.00    +0.050 C 
ATOM     13  C   UNL     1      35.158 -16.498 -21.856  0.00  0.00    +0.019 C 
ATOM     14  C   UNL     1      34.944 -15.615 -22.914  0.00  0.00    +0.073 C 
ATOM     15  C   UNL     1      35.551 -18.289 -23.429  0.00  0.00    +0.015 C 
ATOM     16  C   UNL     1      35.033 -16.070 -24.230  0.00  0.00    +0.004 C 
ATOM     17  C   UNL     1      35.337 -17.406 -24.487  0.00  0.00    +0.001 C 
BRANCH  14  21
ATOM     18  F   UNL     1      35.073 -13.327 -23.599  0.00  0.00    -0.166 F 
ATOM     19  F   UNL     1      33.279 -13.939 -22.545  0.00  0.00    -0.166 F 
ATOM     20  F   UNL     1      35.157 -13.741 -21.466  0.00  0.00    -0.166 F 
ATOM     21  C   UNL     1      34.619 -14.186 -22.640  0.00  0.00    +0.419 C 
ENDBRANCH  14  21
ENDBRANCH   9  12
ENDBRANCH   3  10
BRANCH   1  22
ATOM     22  N   UNL     1      34.185 -23.156 -17.133  0.00  0.00    -0.312 N 
ATOM     23  H   UNL     1      34.555 -24.068 -17.088  0.00  0.00    +0.152 HD
BRANCH  22  25
ATOM     24  N   UNL     1      30.627 -22.259 -16.722  0.00  0.00    -0.241 NA
ATOM     25  C   UNL     1      32.910 -23.034 -16.550  0.00  0.00    +0.068 C 
ATOM     26  C   UNL     1      32.652 -23.536 -15.279  0.00  0.00    +0.022 C 
ATOM     27  C   UNL     1      31.873 -22.410 -17.224  0.00  0.00    +0.113 C 
ATOM     28  C   UNL     1      31.381 -23.401 -14.729  0.00  0.00    +0.073 C 
ATOM     29  C   UNL     1      30.413 -22.760 -15.484  0.00  0.00    +0.103 C 
BRANCH  28  32
ATOM     30  O   UNL     1      31.358 -23.268 -12.378  0.00  0.00    -0.270 OA
ATOM     31  N   UNL     1      30.448 -25.153 -13.316  0.00  0.00    -0.325 N 
ATOM     32  C   UNL     1      31.080 -23.914 -13.405  0.00  0.00    +0.244 C 
ATOM     33  H   UNL     1      30.229 -25.532 -12.435  0.00  0.00    +0.145 HD
ATOM     34  H   UNL     1      30.221 -25.649 -14.136  0.00  0.00    +0.145 HD
ENDBRANCH  28  32
ENDBRANCH  22  25
ENDBRANCH   1  22
TORSDOF 6
ENDMDL
