MODEL 1
REMARK VINA RESULT:     -12.1      0.000      0.000
REMARK  Name = 44129603
REMARK  3 active torsions:
REMARK  status: ('A' for Active; 'I' for Inactive)
REMARK    1  A    between atoms: N_5  and  C_17
REMARK    2  A    between atoms: C_12  and  C_24
REMARK    3  A    between atoms: C_24  and  O_25
REMARK                            x       y       z     vdW  Elec       q    Type
REMARK                         _______ _______ _______ _____ _____    ______ ____
ROOT
ATOM      1  N   UNL     1      36.779 -22.783 -14.939  0.00  0.00    -0.246 N 
ATOM      2  N   UNL     1      37.749 -22.874 -14.006  0.00  0.00    -0.163 NA
ATOM      3  N   UNL     1      34.194 -22.680 -16.392  0.00  0.00    -0.336 NA
ATOM      4  N   UNL     1      31.882 -23.379 -16.433  0.00  0.00    -0.170 NA
ATOM      5  N   UNL     1      32.816 -22.179 -18.221  0.00  0.00    -0.247 N 
ATOM      6  C   UNL     1      34.607 -24.024 -12.330  0.00  0.00    +0.035 C 
ATOM      7  C   UNL     1      35.739 -23.558 -13.175  0.00  0.00    +0.024 A 
ATOM      8  C   UNL     1      33.456 -24.606 -13.195  0.00  0.00    +0.035 C 
ATOM      9  C   UNL     1      35.561 -23.188 -14.489  0.00  0.00    +0.106 A 
ATOM     10  C   UNL     1      33.247 -23.906 -14.521  0.00  0.00    +0.030 C 
ATOM     11  C   UNL     1      34.294 -23.257 -15.180  0.00  0.00    +0.158 C 
ATOM     12  C   UNL     1      37.106 -23.345 -12.930  0.00  0.00    +0.174 A 
ATOM     13  C   UNL     1      32.054 -23.942 -15.216  0.00  0.00    +0.110 C 
ATOM     14  C   UNL     1      37.123 -22.266 -16.243  0.00  0.00    +0.154 C 
ATOM     15  C   UNL     1      32.973 -22.776 -16.952  0.00  0.00    +0.149 C 
ATOM     16  H   UNL     1      31.909 -22.272 -18.593  0.00  0.00    +0.165 HD
ENDROOT
BRANCH   5  17
ATOM     17  C   UNL     1      33.701 -21.478 -19.061  0.00  0.00    +0.058 C 
ATOM     18  C   UNL     1      33.213 -20.503 -19.929  0.00  0.00    +0.015 C 
ATOM     19  C   UNL     1      35.067 -21.758 -19.022  0.00  0.00    +0.015 C 
ATOM     20  C   UNL     1      34.091 -19.806 -20.761  0.00  0.00    +0.001 C 
ATOM     21  C   UNL     1      35.945 -21.062 -19.854  0.00  0.00    +0.001 C 
ATOM     22  C   UNL     1      35.457 -20.087 -20.723  0.00  0.00    +0.000 C 
ENDBRANCH   5  17
BRANCH  12  24
ATOM     23  O   UNL     1      37.716 -24.571 -10.969  0.00  0.00    -0.243 OA
ATOM     24  C   UNL     1      37.831 -23.579 -11.714  0.00  0.00    +0.357 C 
BRANCH  24  25
ATOM     25  O   UNL     1      38.711 -22.575 -11.408  0.00  0.00    -0.476 OA
ATOM     26  H   UNL     1      39.361 -22.708 -10.746  0.00  0.00    +0.295 HD
ENDBRANCH  24  25
ENDBRANCH  12  24
TORSDOF 3
ENDMDL
MODEL 2
REMARK VINA RESULT:     -11.6      0.364      1.194
REMARK  Name = 44129603
REMARK  3 active torsions:
REMARK  status: ('A' for Active; 'I' for Inactive)
REMARK    1  A    between atoms: N_5  and  C_17
REMARK    2  A    between atoms: C_12  and  C_24
REMARK    3  A    between atoms: C_24  and  O_25
REMARK                            x       y       z     vdW  Elec       q    Type
REMARK                         _______ _______ _______ _____ _____    ______ ____
ROOT
ATOM      1  N   UNL     1      36.820 -22.706 -15.217  0.00  0.00    -0.246 N 
ATOM      2  N   UNL     1      37.826 -22.820 -14.325  0.00  0.00    -0.163 NA
ATOM      3  N   UNL     1      34.181 -22.550 -16.563  0.00  0.00    -0.336 NA
ATOM      4  N   UNL     1      31.858 -23.212 -16.514  0.00  0.00    -0.170 NA
ATOM      5  N   UNL     1      32.738 -22.015 -18.332  0.00  0.00    -0.247 N 
ATOM      6  C   UNL     1      34.736 -23.931 -12.530  0.00  0.00    +0.035 C 
ATOM      7  C   UNL     1      35.840 -23.477 -13.418  0.00  0.00    +0.024 A 
ATOM      8  C   UNL     1      33.541 -24.488 -13.352  0.00  0.00    +0.035 C 
ATOM      9  C   UNL     1      35.615 -23.094 -14.721  0.00  0.00    +0.106 A 
ATOM     10  C   UNL     1      33.290 -23.775 -14.663  0.00  0.00    +0.030 C 
ATOM     11  C   UNL     1      34.320 -23.138 -15.360  0.00  0.00    +0.158 C 
ATOM     12  C   UNL     1      37.219 -23.288 -13.227  0.00  0.00    +0.174 A 
ATOM     13  C   UNL     1      32.070 -23.787 -15.310  0.00  0.00    +0.110 C 
ATOM     14  C   UNL     1      37.120 -22.185 -16.531  0.00  0.00    +0.154 C 
ATOM     15  C   UNL     1      32.936 -22.623 -17.073  0.00  0.00    +0.149 C 
ATOM     16  H   UNL     1      31.815 -22.090 -18.667  0.00  0.00    +0.165 HD
ENDROOT
BRANCH   5  17
ATOM     17  C   UNL     1      33.599 -21.321 -19.202  0.00  0.00    +0.058 C 
ATOM     18  C   UNL     1      34.971 -21.567 -19.167  0.00  0.00    +0.015 C 
ATOM     19  C   UNL     1      33.080 -20.388 -20.099  0.00  0.00    +0.015 C 
ATOM     20  C   UNL     1      35.826 -20.880 -20.030  0.00  0.00    +0.001 C 
ATOM     21  C   UNL     1      33.934 -19.701 -20.963  0.00  0.00    +0.001 C 
ATOM     22  C   UNL     1      35.306 -19.947 -20.928  0.00  0.00    +0.000 C 
ENDBRANCH   5  17
BRANCH  12  24
ATOM     23  O   UNL     1      38.293 -22.706 -11.170  0.00  0.00    -0.243 OA
ATOM     24  C   UNL     1      37.989 -23.542 -12.043  0.00  0.00    +0.357 C 
BRANCH  24  25
ATOM     25  O   UNL     1      38.391 -24.846 -11.930  0.00  0.00    -0.476 OA
ATOM     26  H   UNL     1      38.841 -25.261 -12.640  0.00  0.00    +0.295 HD
ENDBRANCH  24  25
ENDBRANCH  12  24
TORSDOF 3
ENDMDL
MODEL 3
REMARK VINA RESULT:     -10.6     11.862     14.809
REMARK  Name = 44129603
REMARK  3 active torsions:
REMARK  status: ('A' for Active; 'I' for Inactive)
REMARK    1  A    between atoms: N_5  and  C_17
REMARK    2  A    between atoms: C_12  and  C_24
REMARK    3  A    between atoms: C_24  and  O_25
REMARK                            x       y       z     vdW  Elec       q    Type
REMARK                         _______ _______ _______ _____ _____    ______ ____
ROOT
ATOM      1  N   UNL     1      33.783 -11.681 -24.253  0.00  0.00    -0.246 N 
ATOM      2  N   UNL     1      34.316 -12.758 -24.865  0.00  0.00    -0.163 NA
ATOM      3  N   UNL     1      32.701  -9.737 -22.289  0.00  0.00    -0.336 NA
ATOM      4  N   UNL     1      31.604  -9.433 -20.159  0.00  0.00    -0.170 NA
ATOM      5  N   UNL     1      32.041  -7.606 -21.567  0.00  0.00    -0.247 N 
ATOM      6  C   UNL     1      33.423 -13.883 -21.410  0.00  0.00    +0.035 C 
ATOM      7  C   UNL     1      33.682 -13.252 -22.732  0.00  0.00    +0.024 A 
ATOM      8  C   UNL     1      32.296 -13.142 -20.639  0.00  0.00    +0.035 C 
ATOM      9  C   UNL     1      33.383 -11.930 -22.977  0.00  0.00    +0.106 A 
ATOM     10  C   UNL     1      32.273 -11.642 -20.843  0.00  0.00    +0.030 C 
ATOM     11  C   UNL     1      32.758 -11.053 -22.014  0.00  0.00    +0.158 C 
ATOM     12  C   UNL     1      34.255 -13.713 -23.928  0.00  0.00    +0.174 A 
ATOM     13  C   UNL     1      31.689 -10.765 -19.949  0.00  0.00    +0.110 C 
ATOM     14  C   UNL     1      33.722 -10.434 -24.981  0.00  0.00    +0.154 C 
ATOM     15  C   UNL     1      32.119  -8.996 -21.327  0.00  0.00    +0.149 C 
ATOM     16  H   UNL     1      31.611  -7.103 -20.839  0.00  0.00    +0.165 HD
ENDROOT
BRANCH   5  17
ATOM     17  C   UNL     1      32.459  -6.800 -22.642  0.00  0.00    +0.058 C 
ATOM     18  C   UNL     1      31.537  -6.389 -23.604  0.00  0.00    +0.015 C 
ATOM     19  C   UNL     1      33.795  -6.413 -22.744  0.00  0.00    +0.015 C 
ATOM     20  C   UNL     1      31.951  -5.588 -24.669  0.00  0.00    +0.001 C 
ATOM     21  C   UNL     1      34.209  -5.612 -23.810  0.00  0.00    +0.001 C 
ATOM     22  C   UNL     1      33.287  -5.200 -24.772  0.00  0.00    +0.000 C 
ENDBRANCH   5  17
BRANCH  12  24
ATOM     23  O   UNL     1      34.256 -15.823 -25.055  0.00  0.00    -0.243 OA
ATOM     24  C   UNL     1      34.740 -15.031 -24.223  0.00  0.00    +0.357 C 
BRANCH  24  25
ATOM     25  O   UNL     1      35.838 -15.380 -23.483  0.00  0.00    -0.476 OA
ATOM     26  H   UNL     1      36.116 -16.275 -23.451  0.00  0.00    +0.295 HD
ENDBRANCH  24  25
ENDBRANCH  12  24
TORSDOF 3
ENDMDL
MODEL 4
REMARK VINA RESULT:     -10.1      3.521      6.993
REMARK  Name = 44129603
REMARK  3 active torsions:
REMARK  status: ('A' for Active; 'I' for Inactive)
REMARK    1  A    between atoms: N_5  and  C_17
REMARK    2  A    between atoms: C_12  and  C_24
REMARK    3  A    between atoms: C_24  and  O_25
REMARK                            x       y       z     vdW  Elec       q    Type
REMARK                         _______ _______ _______ _____ _____    ______ ____
ROOT
ATOM      1  N   UNL     1      32.670 -23.801 -15.118  0.00  0.00    -0.246 N 
ATOM      2  N   UNL     1      31.325 -23.872 -15.055  0.00  0.00    -0.163 NA
ATOM      3  N   UNL     1      35.481 -23.089 -15.749  0.00  0.00    -0.336 NA
ATOM      4  N   UNL     1      37.002 -22.166 -17.382  0.00  0.00    -0.170 NA
ATOM      5  N   UNL     1      37.794 -23.072 -15.367  0.00  0.00    -0.247 N 
ATOM      6  C   UNL     1      32.096 -21.720 -18.017  0.00  0.00    +0.035 C 
ATOM      7  C   UNL     1      32.000 -22.607 -16.827  0.00  0.00    +0.024 A 
ATOM      8  C   UNL     1      33.460 -21.886 -18.740  0.00  0.00    +0.035 C 
ATOM      9  C   UNL     1      33.120 -23.060 -16.167  0.00  0.00    +0.106 A 
ATOM     10  C   UNL     1      34.635 -22.141 -17.819  0.00  0.00    +0.030 C 
ATOM     11  C   UNL     1      34.473 -22.767 -16.580  0.00  0.00    +0.158 C 
ATOM     12  C   UNL     1      30.922 -23.137 -16.100  0.00  0.00    +0.174 A 
ATOM     13  C   UNL     1      35.944 -21.875 -18.171  0.00  0.00    +0.110 C 
ATOM     14  C   UNL     1      33.445 -24.470 -14.099  0.00  0.00    +0.154 C 
ATOM     15  C   UNL     1      36.704 -22.761 -16.208  0.00  0.00    +0.149 C 
ATOM     16  H   UNL     1      38.668 -22.814 -15.740  0.00  0.00    +0.165 HD
ENDROOT
BRANCH   5  17
ATOM     17  C   UNL     1      37.877 -23.679 -14.100  0.00  0.00    +0.058 C 
ATOM     18  C   UNL     1      37.497 -22.970 -12.961  0.00  0.00    +0.015 C 
ATOM     19  C   UNL     1      38.340 -24.990 -13.985  0.00  0.00    +0.015 C 
ATOM     20  C   UNL     1      37.579 -23.573 -11.705  0.00  0.00    +0.001 C 
ATOM     21  C   UNL     1      38.422 -25.592 -12.728  0.00  0.00    +0.001 C 
ATOM     22  C   UNL     1      38.042 -24.883 -11.589  0.00  0.00    +0.000 C 
ENDBRANCH   5  17
BRANCH  12  24
ATOM     23  O   UNL     1      28.956 -21.939 -16.746  0.00  0.00    -0.243 OA
ATOM     24  C   UNL     1      29.520 -22.981 -16.361  0.00  0.00    +0.357 C 
BRANCH  24  25
ATOM     25  O   UNL     1      28.800 -24.125 -16.146  0.00  0.00    -0.476 OA
ATOM     26  H   UNL     1      28.303 -24.225 -15.357  0.00  0.00    +0.295 HD
ENDBRANCH  24  25
ENDBRANCH  12  24
TORSDOF 3
ENDMDL
MODEL 5
REMARK VINA RESULT:     -10.1      3.617      6.715
REMARK  Name = 44129603
REMARK  3 active torsions:
REMARK  status: ('A' for Active; 'I' for Inactive)
REMARK    1  A    between atoms: N_5  and  C_17
REMARK    2  A    between atoms: C_12  and  C_24
REMARK    3  A    between atoms: C_24  and  O_25
REMARK                            x       y       z     vdW  Elec       q    Type
REMARK                         _______ _______ _______ _____ _____    ______ ____
ROOT
ATOM      1  N   UNL     1      36.657 -21.574 -17.819  0.00  0.00    -0.246 N 
ATOM      2  N   UNL     1      37.020 -20.786 -18.851  0.00  0.00    -0.163 NA
ATOM      3  N   UNL     1      35.237 -23.407 -15.967  0.00  0.00    -0.336 NA
ATOM      4  N   UNL     1      33.099 -24.233 -15.204  0.00  0.00    -0.170 NA
ATOM      5  N   UNL     1      35.095 -24.893 -14.159  0.00  0.00    -0.247 N 
ATOM      6  C   UNL     1      33.379 -21.495 -19.339  0.00  0.00    +0.035 C 
ATOM      7  C   UNL     1      34.806 -21.316 -18.959  0.00  0.00    +0.024 A 
ATOM      8  C   UNL     1      32.503 -21.847 -18.105  0.00  0.00    +0.035 C 
ATOM      9  C   UNL     1      35.339 -21.910 -17.837  0.00  0.00    +0.106 A 
ATOM     10  C   UNL     1      33.187 -22.722 -17.076  0.00  0.00    +0.030 C 
ATOM     11  C   UNL     1      34.574 -22.711 -16.909  0.00  0.00    +0.158 C 
ATOM     12  C   UNL     1      35.885 -20.636 -19.546  0.00  0.00    +0.174 A 
ATOM     13  C   UNL     1      32.498 -23.505 -16.171  0.00  0.00    +0.110 C 
ATOM     14  C   UNL     1      37.667 -21.971 -16.865  0.00  0.00    +0.154 C 
ATOM     15  C   UNL     1      34.445 -24.139 -15.160  0.00  0.00    +0.149 C 
ATOM     16  H   UNL     1      34.480 -25.414 -13.594  0.00  0.00    +0.165 HD
ENDROOT
BRANCH   5  17
ATOM     17  C   UNL     1      36.449 -25.047 -13.810  0.00  0.00    +0.058 C 
ATOM     18  C   UNL     1      37.245 -25.966 -14.493  0.00  0.00    +0.015 C 
ATOM     19  C   UNL     1      36.995 -24.278 -12.782  0.00  0.00    +0.015 C 
ATOM     20  C   UNL     1      38.589 -26.117 -14.147  0.00  0.00    +0.001 C 
ATOM     21  C   UNL     1      38.339 -24.429 -12.437  0.00  0.00    +0.001 C 
ATOM     22  C   UNL     1      39.135 -25.349 -13.119  0.00  0.00    +0.000 C 
ENDBRANCH   5  17
BRANCH  12  24
ATOM     23  O   UNL     1      35.117 -19.979 -21.714  0.00  0.00    -0.243 OA
ATOM     24  C   UNL     1      35.882 -19.840 -20.740  0.00  0.00    +0.357 C 
BRANCH  24  25
ATOM     25  O   UNL     1      36.835 -18.858 -20.736  0.00  0.00    -0.476 OA
ATOM     26  H   UNL     1      36.790 -18.163 -20.108  0.00  0.00    +0.295 HD
ENDBRANCH  24  25
ENDBRANCH  12  24
TORSDOF 3
ENDMDL
MODEL 6
REMARK VINA RESULT:      -9.7      3.671      6.746
REMARK  Name = 44129603
REMARK  3 active torsions:
REMARK  status: ('A' for Active; 'I' for Inactive)
REMARK    1  A    between atoms: N_5  and  C_17
REMARK    2  A    between atoms: C_12  and  C_24
REMARK    3  A    between atoms: C_24  and  O_25
REMARK                            x       y       z     vdW  Elec       q    Type
REMARK                         _______ _______ _______ _____ _____    ______ ____
ROOT
ATOM      1  N   UNL     1      36.631 -21.560 -17.937  0.00  0.00    -0.246 N 
ATOM      2  N   UNL     1      37.007 -20.780 -18.971  0.00  0.00    -0.163 NA
ATOM      3  N   UNL     1      35.180 -23.363 -16.080  0.00  0.00    -0.336 NA
ATOM      4  N   UNL     1      33.028 -24.143 -15.309  0.00  0.00    -0.170 NA
ATOM      5  N   UNL     1      35.013 -24.846 -14.272  0.00  0.00    -0.247 N 
ATOM      6  C   UNL     1      33.349 -21.410 -19.443  0.00  0.00    +0.035 C 
ATOM      7  C   UNL     1      34.781 -21.262 -19.069  0.00  0.00    +0.024 A 
ATOM      8  C   UNL     1      32.472 -21.744 -18.206  0.00  0.00    +0.035 C 
ATOM      9  C   UNL     1      35.306 -21.868 -17.950  0.00  0.00    +0.106 A 
ATOM     10  C   UNL     1      33.140 -22.634 -17.180  0.00  0.00    +0.030 C 
ATOM     11  C   UNL     1      34.528 -22.653 -17.019  0.00  0.00    +0.158 C 
ATOM     12  C   UNL     1      35.873 -20.606 -19.661  0.00  0.00    +0.174 A 
ATOM     13  C   UNL     1      32.438 -23.402 -16.272  0.00  0.00    +0.110 C 
ATOM     14  C   UNL     1      37.637 -21.980 -16.988  0.00  0.00    +0.154 C 
ATOM     15  C   UNL     1      34.376 -24.078 -15.270  0.00  0.00    +0.149 C 
ATOM     16  H   UNL     1      34.389 -25.354 -13.704  0.00  0.00    +0.165 HD
ENDROOT
BRANCH   5  17
ATOM     17  C   UNL     1      36.365 -25.029 -13.929  0.00  0.00    +0.058 C 
ATOM     18  C   UNL     1      36.945 -24.242 -12.934  0.00  0.00    +0.015 C 
ATOM     19  C   UNL     1      37.125 -25.998 -14.584  0.00  0.00    +0.015 C 
ATOM     20  C   UNL     1      38.286 -24.425 -12.593  0.00  0.00    +0.001 C 
ATOM     21  C   UNL     1      38.467 -26.180 -14.243  0.00  0.00    +0.001 C 
ATOM     22  C   UNL     1      39.046 -25.394 -13.248  0.00  0.00    +0.000 C 
ENDBRANCH   5  17
BRANCH  12  24
ATOM     23  O   UNL     1      36.794 -19.042 -21.219  0.00  0.00    -0.243 OA
ATOM     24  C   UNL     1      35.882 -19.809 -20.855  0.00  0.00    +0.357 C 
BRANCH  24  25
ATOM     25  O   UNL     1      34.752 -19.959 -21.612  0.00  0.00    -0.476 OA
ATOM     26  H   UNL     1      34.823 -20.127 -22.532  0.00  0.00    +0.295 HD
ENDBRANCH  24  25
ENDBRANCH  12  24
TORSDOF 3
ENDMDL
MODEL 7
REMARK VINA RESULT:      -9.7      1.926      4.548
REMARK  Name = 44129603
REMARK  3 active torsions:
REMARK  status: ('A' for Active; 'I' for Inactive)
REMARK    1  A    between atoms: N_5  and  C_17
REMARK    2  A    between atoms: C_12  and  C_24
REMARK    3  A    between atoms: C_24  and  O_25
REMARK                            x       y       z     vdW  Elec       q    Type
REMARK                         _______ _______ _______ _____ _____    ______ ____
ROOT
ATOM      1  N   UNL     1      34.924 -23.801 -13.125  0.00  0.00    -0.246 N 
ATOM      2  N   UNL     1      35.763 -24.161 -12.132  0.00  0.00    -0.163 NA
ATOM      3  N   UNL     1      33.701 -23.082 -15.731  0.00  0.00    -0.336 NA
ATOM      4  N   UNL     1      34.062 -22.158 -17.933  0.00  0.00    -0.170 NA
ATOM      5  N   UNL     1      31.907 -22.732 -17.200  0.00  0.00    -0.247 N 
ATOM      6  C   UNL     1      37.939 -23.342 -15.063  0.00  0.00    +0.035 C 
ATOM      7  C   UNL     1      36.912 -23.598 -14.019  0.00  0.00    +0.024 A 
ATOM      8  C   UNL     1      37.414 -22.361 -16.147  0.00  0.00    +0.035 C 
ATOM      9  C   UNL     1      35.566 -23.449 -14.271  0.00  0.00    +0.106 A 
ATOM     10  C   UNL     1      35.943 -22.511 -16.472  0.00  0.00    +0.030 C 
ATOM     11  C   UNL     1      35.029 -22.994 -15.532  0.00  0.00    +0.158 C 
ATOM     12  C   UNL     1      36.976 -24.039 -12.686  0.00  0.00    +0.174 A 
ATOM     13  C   UNL     1      35.385 -22.092 -17.664  0.00  0.00    +0.110 C 
ATOM     14  C   UNL     1      33.501 -23.850 -12.877  0.00  0.00    +0.154 C 
ATOM     15  C   UNL     1      33.293 -22.653 -16.941  0.00  0.00    +0.149 C 
ATOM     16  H   UNL     1      31.653 -22.411 -18.095  0.00  0.00    +0.165 HD
ENDROOT
BRANCH   5  17
ATOM     17  C   UNL     1      30.818 -23.181 -16.431  0.00  0.00    +0.058 C 
ATOM     18  C   UNL     1      30.932 -24.347 -15.674  0.00  0.00    +0.015 C 
ATOM     19  C   UNL     1      29.625 -22.459 -16.425  0.00  0.00    +0.015 C 
ATOM     20  C   UNL     1      29.852 -24.791 -14.910  0.00  0.00    +0.001 C 
ATOM     21  C   UNL     1      28.544 -22.904 -15.661  0.00  0.00    +0.001 C 
ATOM     22  C   UNL     1      28.658 -24.069 -14.905  0.00  0.00    +0.000 C 
ENDBRANCH   5  17
BRANCH  12  24
ATOM     23  O   UNL     1      39.029 -23.532 -11.569  0.00  0.00    -0.243 OA
ATOM     24  C   UNL     1      38.145 -24.341 -11.912  0.00  0.00    +0.357 C 
BRANCH  24  25
ATOM     25  O   UNL     1      38.230 -25.660 -11.555  0.00  0.00    -0.476 OA
ATOM     26  H   UNL     1      38.766 -25.915 -10.829  0.00  0.00    +0.295 HD
ENDBRANCH  24  25
ENDBRANCH  12  24
TORSDOF 3
ENDMDL
MODEL 8
REMARK VINA RESULT:      -9.6      2.519      4.350
REMARK  Name = 44129603
REMARK  3 active torsions:
REMARK  status: ('A' for Active; 'I' for Inactive)
REMARK    1  A    between atoms: N_5  and  C_17
REMARK    2  A    between atoms: C_12  and  C_24
REMARK    3  A    between atoms: C_24  and  O_25
REMARK                            x       y       z     vdW  Elec       q    Type
REMARK                         _______ _______ _______ _____ _____    ______ ____
ROOT
ATOM      1  N   UNL     1      32.628 -22.894 -16.177  0.00  0.00    -0.246 N 
ATOM      2  N   UNL     1      31.555 -23.464 -15.593  0.00  0.00    -0.163 NA
ATOM      3  N   UNL     1      35.363 -22.166 -17.069  0.00  0.00    -0.336 NA
ATOM      4  N   UNL     1      37.718 -22.158 -16.528  0.00  0.00    -0.170 NA
ATOM      5  N   UNL     1      36.920 -21.126 -18.480  0.00  0.00    -0.247 N 
ATOM      6  C   UNL     1      34.539 -24.800 -13.773  0.00  0.00    +0.035 C 
ATOM      7  C   UNL     1      33.491 -24.143 -14.600  0.00  0.00    +0.024 A 
ATOM      8  C   UNL     1      35.849 -23.967 -13.753  0.00  0.00    +0.035 C 
ATOM      9  C   UNL     1      33.809 -23.265 -15.612  0.00  0.00    +0.106 A 
ATOM     10  C   UNL     1      36.165 -23.256 -15.051  0.00  0.00    +0.030 C 
ATOM     11  C   UNL     1      35.158 -22.864 -15.937  0.00  0.00    +0.158 C 
ATOM     12  C   UNL     1      32.090 -24.229 -14.633  0.00  0.00    +0.174 A 
ATOM     13  C   UNL     1      37.439 -22.856 -15.404  0.00  0.00    +0.110 C 
ATOM     14  C   UNL     1      32.414 -22.011 -17.301  0.00  0.00    +0.154 C 
ATOM     15  C   UNL     1      36.653 -21.853 -17.299  0.00  0.00    +0.149 C 
ATOM     16  H   UNL     1      37.874 -20.920 -18.610  0.00  0.00    +0.165 HD
ENDROOT
BRANCH   5  17
ATOM     17  C   UNL     1      36.092 -20.638 -19.507  0.00  0.00    +0.058 C 
ATOM     18  C   UNL     1      34.742 -20.986 -19.538  0.00  0.00    +0.015 C 
ATOM     19  C   UNL     1      36.622 -19.806 -20.493  0.00  0.00    +0.015 C 
ATOM     20  C   UNL     1      33.920 -20.501 -20.557  0.00  0.00    +0.001 C 
ATOM     21  C   UNL     1      35.800 -19.321 -21.511  0.00  0.00    +0.001 C 
ATOM     22  C   UNL     1      34.450 -19.669 -21.543  0.00  0.00    +0.000 C 
ENDBRANCH   5  17
BRANCH  12  24
ATOM     23  O   UNL     1      31.194 -24.954 -12.537  0.00  0.00    -0.243 OA
ATOM     24  C   UNL     1      31.233 -25.004 -13.781  0.00  0.00    +0.357 C 
BRANCH  24  25
ATOM     25  O   UNL     1      30.411 -25.853 -14.472  0.00  0.00    -0.476 OA
ATOM     26  H   UNL     1      30.252 -26.718 -14.147  0.00  0.00    +0.295 HD
ENDBRANCH  24  25
ENDBRANCH  12  24
TORSDOF 3
ENDMDL
MODEL 9
REMARK VINA RESULT:      -9.4      3.507      6.701
REMARK  Name = 44129603
REMARK  3 active torsions:
REMARK  status: ('A' for Active; 'I' for Inactive)
REMARK    1  A    between atoms: N_5  and  C_17
REMARK    2  A    between atoms: C_12  and  C_24
REMARK    3  A    between atoms: C_24  and  O_25
REMARK                            x       y       z     vdW  Elec       q    Type
REMARK                         _______ _______ _______ _____ _____    ______ ____
ROOT
ATOM      1  N   UNL     1      35.369 -22.384 -16.857  0.00  0.00    -0.246 N 
ATOM      2  N   UNL     1      35.351 -21.854 -18.098  0.00  0.00    -0.163 NA
ATOM      3  N   UNL     1      34.692 -23.723 -14.297  0.00  0.00    -0.336 NA
ATOM      4  N   UNL     1      32.945 -24.301 -12.733  0.00  0.00    -0.170 NA
ATOM      5  N   UNL     1      35.197 -24.769 -12.261  0.00  0.00    -0.247 N 
ATOM      6  C   UNL     1      31.778 -22.551 -17.232  0.00  0.00    +0.035 C 
ATOM      7  C   UNL     1      33.242 -22.332 -17.375  0.00  0.00    +0.024 A 
ATOM      8  C   UNL     1      31.355 -22.598 -15.739  0.00  0.00    +0.035 C 
ATOM      9  C   UNL     1      34.129 -22.679 -16.381  0.00  0.00    +0.106 A 
ATOM     10  C   UNL     1      32.368 -23.243 -14.816  0.00  0.00    +0.030 C 
ATOM     11  C   UNL     1      33.734 -23.234 -15.107  0.00  0.00    +0.158 C 
ATOM     12  C   UNL     1      34.049 -21.830 -18.410  0.00  0.00    +0.174 A 
ATOM     13  C   UNL     1      32.036 -23.787 -13.591  0.00  0.00    +0.110 C 
ATOM     14  C   UNL     1      36.646 -22.589 -16.213  0.00  0.00    +0.154 C 
ATOM     15  C   UNL     1      34.230 -24.237 -13.142  0.00  0.00    +0.149 C 
ATOM     16  H   UNL     1      34.816 -25.135 -11.430  0.00  0.00    +0.165 HD
ENDROOT
BRANCH   5  17
ATOM     17  C   UNL     1      36.597 -24.880 -12.337  0.00  0.00    +0.058 C 
ATOM     18  C   UNL     1      37.406 -23.938 -11.703  0.00  0.00    +0.015 C 
ATOM     19  C   UNL     1      37.175 -25.932 -13.048  0.00  0.00    +0.015 C 
ATOM     20  C   UNL     1      38.796 -24.049 -11.778  0.00  0.00    +0.001 C 
ATOM     21  C   UNL     1      38.564 -26.042 -13.123  0.00  0.00    +0.001 C 
ATOM     22  C   UNL     1      39.374 -25.101 -12.488  0.00  0.00    +0.000 C 
ENDBRANCH   5  17
BRANCH  12  24
ATOM     23  O   UNL     1      32.543 -21.541 -20.245  0.00  0.00    -0.243 OA
ATOM     24  C   UNL     1      33.632 -21.316 -19.683  0.00  0.00    +0.357 C 
BRANCH  24  25
ATOM     25  O   UNL     1      34.570 -20.514 -20.275  0.00  0.00    -0.476 OA
ATOM     26  H   UNL     1      34.326 -19.669 -20.600  0.00  0.00    +0.295 HD
ENDBRANCH  24  25
ENDBRANCH  12  24
TORSDOF 3
ENDMDL
