MODEL 1
REMARK VINA RESULT:     -12.4      0.000      0.000
REMARK  Name = 23629645
REMARK  6 active torsions:
REMARK  status: ('A' for Active; 'I' for Inactive)
REMARK    1  A    between atoms: N_1  and  C_6
REMARK    2  A    between atoms: N_1  and  C_21
REMARK    3  A    between atoms: C_3  and  C_16
REMARK    4  A    between atoms: C_11  and  C_18
REMARK    5  A    between atoms: C_18  and  O_19
REMARK    6  A    between atoms: C_21  and  C_28
REMARK                            x       y       z     vdW  Elec       q    Type
REMARK                         _______ _______ _______ _____ _____    ______ ____
ROOT
ATOM      1  N   UNL     1      36.045 -19.003 -21.931  0.00  0.00    -0.300 N 
ATOM      2  C   UNL     1      37.282 -18.318 -21.619  0.00  0.00    +0.113 C 
ENDROOT
BRANCH   1   6
ATOM      3  C   UNL     1      34.137 -21.369 -19.037  0.00  0.00    +0.054 C 
ATOM      4  C   UNL     1      35.524 -21.403 -19.156  0.00  0.00    +0.006 C 
ATOM      5  C   UNL     1      33.380 -20.553 -19.874  0.00  0.00    +0.006 C 
ATOM      6  C   UNL     1      35.403 -19.799 -20.957  0.00  0.00    +0.048 C 
ATOM      7  C   UNL     1      36.158 -20.617 -20.118  0.00  0.00    +0.015 C 
ATOM      8  C   UNL     1      34.014 -19.767 -20.836  0.00  0.00    +0.015 C 
BRANCH   3  16
ATOM      9  O   UNL     1      32.246 -22.286 -18.118  0.00  0.00    -0.270 OA
ATOM     10  N   UNL     1      34.257 -22.803 -17.045  0.00  0.00    -0.276 N 
ATOM     11  C   UNL     1      35.456 -22.941 -14.407  0.00  0.00    +0.102 C 
ATOM     12  C   UNL     1      33.954 -23.148 -14.632  0.00  0.00    +0.033 C 
ATOM     13  C   UNL     1      36.114 -22.168 -15.556  0.00  0.00    +0.033 C 
ATOM     14  C   UNL     1      33.633 -23.656 -16.037  0.00  0.00    +0.094 C 
ATOM     15  C   UNL     1      35.717 -22.698 -16.933  0.00  0.00    +0.094 C 
ATOM     16  C   UNL     1      33.469 -22.197 -18.025  0.00  0.00    +0.249 C 
BRANCH  11  18
ATOM     17  O   UNL     1      36.737 -24.876 -15.056  0.00  0.00    -0.250 OA
ATOM     18  C   UNL     1      36.133 -24.263 -14.187  0.00  0.00    +0.317 C 
BRANCH  18  19
ATOM     19  O   UNL     1      35.965 -24.651 -12.890  0.00  0.00    -0.444 OA
ATOM     20  C   UNL     1      36.426 -23.720 -11.905  0.00  0.00    +0.256 C 
ENDBRANCH  18  19
ENDBRANCH  11  18
ENDBRANCH   3  16
ENDBRANCH   1   6
BRANCH   1  21
ATOM     21  C   UNL     1      35.480 -18.873 -23.259  0.00  0.00    +0.148 C 
BRANCH  21  28
ATOM     22  N   UNL     1      35.034 -16.590 -22.573  0.00  0.00    -0.392 NA
ATOM     23  N   UNL     1      34.704 -15.780 -25.199  0.00  0.00    -0.200 NA
ATOM     24  N   UNL     1      34.284 -13.615 -24.493  0.00  0.00    -0.271 NA
ATOM     25  N   UNL     1      34.304 -13.052 -22.162  0.00  0.00    -0.310 NA
ATOM     26  N   UNL     1      34.758 -14.728 -20.559  0.00  0.00    -0.329 N 
ATOM     27  N   UNL     1      33.859 -11.419 -23.780  0.00  0.00    -0.283 N 
ATOM     28  C   UNL     1      35.155 -17.441 -23.593  0.00  0.00    +0.133 C 
ATOM     29  C   UNL     1      34.995 -17.057 -24.887  0.00  0.00    +0.193 C 
ATOM     30  C   UNL     1      34.743 -15.313 -22.887  0.00  0.00    +0.248 C 
ATOM     31  C   UNL     1      34.573 -14.890 -24.207  0.00  0.00    +0.131 C 
ATOM     32  C   UNL     1      34.595 -14.342 -21.916  0.00  0.00    +0.231 C 
ATOM     33  C   UNL     1      34.164 -12.760 -23.460  0.00  0.00    +0.207 C 
ATOM     34  H   UNL     1      34.659 -14.060 -19.842  0.00  0.00    +0.145 HD
ATOM     35  H   UNL     1      34.972 -15.662 -20.336  0.00  0.00    +0.145 HD
ATOM     36  H   UNL     1      33.746 -11.152 -24.721  0.00  0.00    +0.156 HD
ATOM     37  H   UNL     1      33.759 -10.752 -23.063  0.00  0.00    +0.156 HD
ENDBRANCH  21  28
ENDBRANCH   1  21
TORSDOF 6
ENDMDL
MODEL 2
REMARK VINA RESULT:     -12.2      1.235      1.831
REMARK  Name = 23629645
REMARK  6 active torsions:
REMARK  status: ('A' for Active; 'I' for Inactive)
REMARK    1  A    between atoms: N_1  and  C_6
REMARK    2  A    between atoms: N_1  and  C_21
REMARK    3  A    between atoms: C_3  and  C_16
REMARK    4  A    between atoms: C_11  and  C_18
REMARK    5  A    between atoms: C_18  and  O_19
REMARK    6  A    between atoms: C_21  and  C_28
REMARK                            x       y       z     vdW  Elec       q    Type
REMARK                         _______ _______ _______ _____ _____    ______ ____
ROOT
ATOM      1  N   UNL     1      35.938 -18.504 -21.969  0.00  0.00    -0.300 N 
ATOM      2  C   UNL     1      36.676 -18.959 -23.129  0.00  0.00    +0.113 C 
ENDROOT
BRANCH   1   6
ATOM      3  C   UNL     1      34.407 -21.266 -19.206  0.00  0.00    +0.054 C 
ATOM      4  C   UNL     1      33.536 -20.518 -19.993  0.00  0.00    +0.006 C 
ATOM      5  C   UNL     1      35.784 -21.101 -19.330  0.00  0.00    +0.006 C 
ATOM      6  C   UNL     1      35.423 -19.433 -21.040  0.00  0.00    +0.048 C 
ATOM      7  C   UNL     1      34.044 -19.600 -20.912  0.00  0.00    +0.015 C 
ATOM      8  C   UNL     1      36.293 -20.183 -20.249  0.00  0.00    +0.015 C 
BRANCH   3  16
ATOM      9  O   UNL     1      32.691 -22.544 -18.380  0.00  0.00    -0.270 OA
ATOM     10  N   UNL     1      34.725 -22.708 -17.240  0.00  0.00    -0.276 N 
ATOM     11  C   UNL     1      35.838 -22.693 -14.561  0.00  0.00    +0.102 C 
ATOM     12  C   UNL     1      34.409 -23.169 -14.848  0.00  0.00    +0.033 C 
ATOM     13  C   UNL     1      36.379 -21.780 -15.668  0.00  0.00    +0.033 C 
ATOM     14  C   UNL     1      34.236 -23.689 -16.275  0.00  0.00    +0.094 C 
ATOM     15  C   UNL     1      36.134 -22.336 -17.069  0.00  0.00    +0.094 C 
ATOM     16  C   UNL     1      33.871 -22.232 -18.238  0.00  0.00    +0.249 C 
BRANCH  11  18
ATOM     17  O   UNL     1      36.545 -24.982 -14.815  0.00  0.00    -0.250 OA
ATOM     18  C   UNL     1      36.741 -23.871 -14.342  0.00  0.00    +0.317 C 
BRANCH  18  19
ATOM     19  O   UNL     1      37.787 -23.503 -13.548  0.00  0.00    -0.444 OA
ATOM     20  C   UNL     1      37.431 -23.004 -12.255  0.00  0.00    +0.256 C 
ENDBRANCH  18  19
ENDBRANCH  11  18
ENDBRANCH   3  16
ENDBRANCH   1   6
BRANCH   1  21
ATOM     21  C   UNL     1      35.722 -17.083 -21.781  0.00  0.00    +0.148 C 
BRANCH  21  28
ATOM     22  N   UNL     1      34.975 -15.118 -22.989  0.00  0.00    -0.392 NA
ATOM     23  N   UNL     1      34.053 -16.664 -25.093  0.00  0.00    -0.200 NA
ATOM     24  N   UNL     1      33.357 -14.757 -26.206  0.00  0.00    -0.271 NA
ATOM     25  N   UNL     1      33.667 -12.583 -25.243  0.00  0.00    -0.310 NA
ATOM     26  N   UNL     1      34.698 -12.379 -23.127  0.00  0.00    -0.329 N 
ATOM     27  N   UNL     1      32.650 -12.825 -27.339  0.00  0.00    -0.283 N 
ATOM     28  C   UNL     1      35.079 -16.448 -22.985  0.00  0.00    +0.133 C 
ATOM     29  C   UNL     1      34.630 -17.219 -24.010  0.00  0.00    +0.193 C 
ATOM     30  C   UNL     1      34.397 -14.564 -24.073  0.00  0.00    +0.248 C 
ATOM     31  C   UNL     1      33.927 -15.331 -25.141  0.00  0.00    +0.131 C 
ATOM     32  C   UNL     1      34.235 -13.197 -24.191  0.00  0.00    +0.231 C 
ATOM     33  C   UNL     1      33.254 -13.414 -26.207  0.00  0.00    +0.207 C 
ATOM     34  H   UNL     1      34.598 -11.401 -23.180  0.00  0.00    +0.145 HD
ATOM     35  H   UNL     1      35.120 -12.789 -22.339  0.00  0.00    +0.145 HD
ATOM     36  H   UNL     1      32.329 -13.394 -28.076  0.00  0.00    +0.156 HD
ATOM     37  H   UNL     1      32.549 -11.848 -27.390  0.00  0.00    +0.156 HD
ENDBRANCH  21  28
ENDBRANCH   1  21
TORSDOF 6
ENDMDL
MODEL 3
REMARK VINA RESULT:     -11.8      0.998      1.849
REMARK  Name = 23629645
REMARK  6 active torsions:
REMARK  status: ('A' for Active; 'I' for Inactive)
REMARK    1  A    between atoms: N_1  and  C_6
REMARK    2  A    between atoms: N_1  and  C_21
REMARK    3  A    between atoms: C_3  and  C_16
REMARK    4  A    between atoms: C_11  and  C_18
REMARK    5  A    between atoms: C_18  and  O_19
REMARK    6  A    between atoms: C_21  and  C_28
REMARK                            x       y       z     vdW  Elec       q    Type
REMARK                         _______ _______ _______ _____ _____    ______ ____
ROOT
ATOM      1  N   UNL     1      35.863 -18.816 -22.177  0.00  0.00    -0.300 N 
ATOM      2  C   UNL     1      37.275 -18.490 -22.166  0.00  0.00    +0.113 C 
ENDROOT
BRANCH   1   6
ATOM      3  C   UNL     1      34.232 -21.302 -19.217  0.00  0.00    +0.054 C 
ATOM      4  C   UNL     1      35.612 -21.258 -19.402  0.00  0.00    +0.006 C 
ATOM      5  C   UNL     1      33.391 -20.525 -20.009  0.00  0.00    +0.006 C 
ATOM      6  C   UNL     1      35.315 -19.652 -21.181  0.00  0.00    +0.048 C 
ATOM      7  C   UNL     1      36.154 -20.432 -20.386  0.00  0.00    +0.015 C 
ATOM      8  C   UNL     1      33.933 -19.698 -20.993  0.00  0.00    +0.015 C 
BRANCH   3  16
ATOM      9  O   UNL     1      32.452 -22.381 -18.255  0.00  0.00    -0.270 OA
ATOM     10  N   UNL     1      34.517 -22.681 -17.202  0.00  0.00    -0.276 N 
ATOM     11  C   UNL     1      35.758 -22.655 -14.580  0.00  0.00    +0.102 C 
ATOM     12  C   UNL     1      34.280 -23.010 -14.779  0.00  0.00    +0.033 C 
ATOM     13  C   UNL     1      36.322 -21.842 -15.751  0.00  0.00    +0.033 C 
ATOM     14  C   UNL     1      33.991 -23.572 -16.171  0.00  0.00    +0.094 C 
ATOM     15  C   UNL     1      35.961 -22.433 -17.113  0.00  0.00    +0.094 C 
ATOM     16  C   UNL     1      33.661 -22.173 -18.181  0.00  0.00    +0.249 C 
BRANCH  11  18
ATOM     17  O   UNL     1      36.075 -25.009 -14.177  0.00  0.00    -0.250 OA
ATOM     18  C   UNL     1      36.563 -23.900 -14.347  0.00  0.00    +0.317 C 
BRANCH  18  19
ATOM     19  O   UNL     1      37.891 -23.593 -14.358  0.00  0.00    -0.444 OA
ATOM     20  C   UNL     1      38.773 -24.688 -14.624  0.00  0.00    +0.256 C 
ENDBRANCH  18  19
ENDBRANCH  11  18
ENDBRANCH   3  16
ENDBRANCH   1   6
BRANCH   1  21
ATOM     21  C   UNL     1      35.023 -18.283 -23.231  0.00  0.00    +0.148 C 
BRANCH  21  28
ATOM     22  N   UNL     1      34.308 -16.166 -24.171  0.00  0.00    -0.392 NA
ATOM     23  N   UNL     1      35.287 -14.774 -21.988  0.00  0.00    -0.200 NA
ATOM     24  N   UNL     1      34.584 -12.777 -22.928  0.00  0.00    -0.271 NA
ATOM     25  N   UNL     1      33.478 -12.738 -25.055  0.00  0.00    -0.310 NA
ATOM     26  N   UNL     1      33.098 -14.762 -26.212  0.00  0.00    -0.329 N 
ATOM     27  N   UNL     1      33.872 -10.752 -23.877  0.00  0.00    -0.283 N 
ATOM     28  C   UNL     1      34.903 -16.784 -23.150  0.00  0.00    +0.133 C 
ATOM     29  C   UNL     1      35.389 -16.114 -22.073  0.00  0.00    +0.193 C 
ATOM     30  C   UNL     1      34.207 -14.825 -24.084  0.00  0.00    +0.248 C 
ATOM     31  C   UNL     1      34.696 -14.109 -22.990  0.00  0.00    +0.131 C 
ATOM     32  C   UNL     1      33.610 -14.076 -25.080  0.00  0.00    +0.231 C 
ATOM     33  C   UNL     1      33.983 -12.157 -23.960  0.00  0.00    +0.207 C 
ATOM     34  H   UNL     1      32.666 -14.258 -26.939  0.00  0.00    +0.145 HD
ATOM     35  H   UNL     1      33.174 -15.742 -26.269  0.00  0.00    +0.145 HD
ATOM     36  H   UNL     1      34.228 -10.277 -23.092  0.00  0.00    +0.156 HD
ATOM     37  H   UNL     1      33.442 -10.249 -24.605  0.00  0.00    +0.156 HD
ENDBRANCH  21  28
ENDBRANCH   1  21
TORSDOF 6
ENDMDL
MODEL 4
REMARK VINA RESULT:     -11.2      1.739      2.778
REMARK  Name = 23629645
REMARK  6 active torsions:
REMARK  status: ('A' for Active; 'I' for Inactive)
REMARK    1  A    between atoms: N_1  and  C_6
REMARK    2  A    between atoms: N_1  and  C_21
REMARK    3  A    between atoms: C_3  and  C_16
REMARK    4  A    between atoms: C_11  and  C_18
REMARK    5  A    between atoms: C_18  and  O_19
REMARK    6  A    between atoms: C_21  and  C_28
REMARK                            x       y       z     vdW  Elec       q    Type
REMARK                         _______ _______ _______ _____ _____    ______ ____
ROOT
ATOM      1  N   UNL     1      35.523 -19.672 -20.970  0.00  0.00    -0.300 N 
ATOM      2  C   UNL     1      34.128 -19.706 -21.359  0.00  0.00    +0.113 C 
ENDROOT
BRANCH   1   6
ATOM      3  C   UNL     1      36.808 -21.628 -17.488  0.00  0.00    +0.054 C 
ATOM      4  C   UNL     1      37.537 -20.553 -17.988  0.00  0.00    +0.006 C 
ATOM      5  C   UNL     1      35.654 -22.058 -18.139  0.00  0.00    +0.006 C 
ATOM      6  C   UNL     1      35.955 -20.329 -19.799  0.00  0.00    +0.048 C 
ATOM      7  C   UNL     1      37.110 -19.902 -19.145  0.00  0.00    +0.015 C 
ATOM      8  C   UNL     1      35.227 -21.408 -19.296  0.00  0.00    +0.015 C 
BRANCH   3  16
ATOM      9  O   UNL     1      38.472 -22.472 -16.154  0.00  0.00    -0.270 OA
ATOM     10  N   UNL     1      36.291 -22.737 -15.356  0.00  0.00    -0.276 N 
ATOM     11  C   UNL     1      34.522 -24.718 -14.189  0.00  0.00    +0.102 C 
ATOM     12  C   UNL     1      36.043 -24.773 -14.005  0.00  0.00    +0.033 C 
ATOM     13  C   UNL     1      34.115 -23.891 -15.414  0.00  0.00    +0.033 C 
ATOM     14  C   UNL     1      36.701 -23.399 -14.121  0.00  0.00    +0.094 C 
ATOM     15  C   UNL     1      34.842 -22.549 -15.493  0.00  0.00    +0.094 C 
ATOM     16  C   UNL     1      37.258 -22.314 -16.270  0.00  0.00    +0.249 C 
BRANCH  11  18
ATOM     17  O   UNL     1      34.479 -23.701 -12.005  0.00  0.00    -0.250 OA
ATOM     18  C   UNL     1      33.869 -24.195 -12.942  0.00  0.00    +0.317 C 
BRANCH  18  19
ATOM     19  O   UNL     1      32.518 -24.362 -13.031  0.00  0.00    -0.444 OA
ATOM     20  C   UNL     1      31.750 -23.154 -13.060  0.00  0.00    +0.256 C 
ENDBRANCH  18  19
ENDBRANCH  11  18
ENDBRANCH   3  16
ENDBRANCH   1   6
BRANCH   1  21
ATOM     21  C   UNL     1      36.468 -18.942 -21.792  0.00  0.00    +0.148 C 
BRANCH  21  28
ATOM     22  N   UNL     1      35.489 -16.813 -22.416  0.00  0.00    -0.392 NA
ATOM     23  N   UNL     1      34.843 -17.756 -24.936  0.00  0.00    -0.200 NA
ATOM     24  N   UNL     1      33.920 -15.704 -25.483  0.00  0.00    -0.271 NA
ATOM     25  N   UNL     1      33.904 -13.899 -23.904  0.00  0.00    -0.310 NA
ATOM     26  N   UNL     1      34.843 -14.215 -21.759  0.00  0.00    -0.329 N 
ATOM     27  N   UNL     1      32.984 -13.625 -26.041  0.00  0.00    -0.283 N 
ATOM     28  C   UNL     1      35.775 -18.059 -22.796  0.00  0.00    +0.133 C 
ATOM     29  C   UNL     1      35.463 -18.536 -24.029  0.00  0.00    +0.193 C 
ATOM     30  C   UNL     1      34.869 -16.035 -23.324  0.00  0.00    +0.248 C 
ATOM     31  C   UNL     1      34.536 -16.497 -24.599  0.00  0.00    +0.131 C 
ATOM     32  C   UNL     1      34.524 -14.726 -23.045  0.00  0.00    +0.231 C 
ATOM     33  C   UNL     1      33.634 -14.447 -25.095  0.00  0.00    +0.207 C 
ATOM     34  H   UNL     1      34.611 -13.286 -21.528  0.00  0.00    +0.145 HD
ATOM     35  H   UNL     1      35.297 -14.788 -21.100  0.00  0.00    +0.145 HD
ATOM     36  H   UNL     1      32.763 -13.980 -26.932  0.00  0.00    +0.156 HD
ATOM     37  H   UNL     1      32.751 -12.697 -25.809  0.00  0.00    +0.156 HD
ENDBRANCH  21  28
ENDBRANCH   1  21
TORSDOF 6
ENDMDL
MODEL 5
REMARK VINA RESULT:     -11.1      4.096     10.453
REMARK  Name = 23629645
REMARK  6 active torsions:
REMARK  status: ('A' for Active; 'I' for Inactive)
REMARK    1  A    between atoms: N_1  and  C_6
REMARK    2  A    between atoms: N_1  and  C_21
REMARK    3  A    between atoms: C_3  and  C_16
REMARK    4  A    between atoms: C_11  and  C_18
REMARK    5  A    between atoms: C_18  and  O_19
REMARK    6  A    between atoms: C_21  and  C_28
REMARK                            x       y       z     vdW  Elec       q    Type
REMARK                         _______ _______ _______ _____ _____    ______ ____
ROOT
ATOM      1  N   UNL     1      36.357 -20.509 -19.870  0.00  0.00    -0.300 N 
ATOM      2  C   UNL     1      37.199 -20.093 -18.767  0.00  0.00    +0.113 C 
ENDROOT
BRANCH   1   6
ATOM      3  C   UNL     1      35.316 -17.792 -22.893  0.00  0.00    +0.054 C 
ATOM      4  C   UNL     1      36.547 -17.677 -22.251  0.00  0.00    +0.006 C 
ATOM      5  C   UNL     1      34.429 -18.804 -22.536  0.00  0.00    +0.006 C 
ATOM      6  C   UNL     1      36.007 -19.595 -20.887  0.00  0.00    +0.048 C 
ATOM      7  C   UNL     1      36.893 -18.580 -21.246  0.00  0.00    +0.015 C 
ATOM      8  C   UNL     1      34.775 -19.708 -21.531  0.00  0.00    +0.015 C 
BRANCH   3  16
ATOM      9  O   UNL     1      35.164 -17.205 -25.105  0.00  0.00    -0.270 OA
ATOM     10  N   UNL     1      34.411 -15.609 -23.571  0.00  0.00    -0.276 N 
ATOM     11  C   UNL     1      34.592 -12.779 -22.961  0.00  0.00    +0.102 C 
ATOM     12  C   UNL     1      34.735 -13.316 -24.390  0.00  0.00    +0.033 C 
ATOM     13  C   UNL     1      34.875 -13.855 -21.905  0.00  0.00    +0.033 C 
ATOM     14  C   UNL     1      34.012 -14.647 -24.594  0.00  0.00    +0.094 C 
ATOM     15  C   UNL     1      34.157 -15.173 -22.193  0.00  0.00    +0.094 C 
ATOM     16  C   UNL     1      34.952 -16.840 -23.950  0.00  0.00    +0.249 C 
BRANCH  11  18
ATOM     17  O   UNL     1      32.435 -12.542 -21.914  0.00  0.00    -0.250 OA
ATOM     18  C   UNL     1      33.230 -12.177 -22.768  0.00  0.00    +0.317 C 
BRANCH  18  19
ATOM     19  O   UNL     1      33.037 -11.184 -23.682  0.00  0.00    -0.444 OA
ATOM     20  C   UNL     1      33.245  -9.853 -23.198  0.00  0.00    +0.256 C 
ENDBRANCH  18  19
ENDBRANCH  11  18
ENDBRANCH   3  16
ENDBRANCH   1   6
BRANCH   1  21
ATOM     21  C   UNL     1      35.866 -21.873 -19.909  0.00  0.00    +0.148 C 
BRANCH  21  28
ATOM     22  N   UNL     1      35.127 -22.643 -17.732  0.00  0.00    -0.392 NA
ATOM     23  N   UNL     1      32.501 -21.979 -18.299  0.00  0.00    -0.200 NA
ATOM     24  N   UNL     1      31.845 -22.728 -16.208  0.00  0.00    -0.271 NA
ATOM     25  N   UNL     1      33.444 -23.624 -14.662  0.00  0.00    -0.310 NA
ATOM     26  N   UNL     1      35.722 -23.746 -15.277  0.00  0.00    -0.329 N 
ATOM     27  N   UNL     1      31.178 -23.485 -14.089  0.00  0.00    -0.283 N 
ATOM     28  C   UNL     1      34.773 -22.106 -18.900  0.00  0.00    +0.133 C 
ATOM     29  C   UNL     1      33.488 -21.776 -19.193  0.00  0.00    +0.193 C 
ATOM     30  C   UNL     1      34.139 -22.846 -16.840  0.00  0.00    +0.248 C 
ATOM     31  C   UNL     1      32.809 -22.516 -17.112  0.00  0.00    +0.131 C 
ATOM     32  C   UNL     1      34.384 -23.395 -15.596  0.00  0.00    +0.231 C 
ATOM     33  C   UNL     1      32.208 -23.270 -15.030  0.00  0.00    +0.207 C 
ATOM     34  H   UNL     1      35.931 -24.140 -14.399  0.00  0.00    +0.145 HD
ATOM     35  H   UNL     1      36.440 -23.595 -15.932  0.00  0.00    +0.145 HD
ATOM     36  H   UNL     1      30.250 -23.242 -14.311  0.00  0.00    +0.156 HD
ATOM     37  H   UNL     1      31.387 -23.880 -13.212  0.00  0.00    +0.156 HD
ENDBRANCH  21  28
ENDBRANCH   1  21
TORSDOF 6
ENDMDL
MODEL 6
REMARK VINA RESULT:     -11.0      5.081      9.292
REMARK  Name = 23629645
REMARK  6 active torsions:
REMARK  status: ('A' for Active; 'I' for Inactive)
REMARK    1  A    between atoms: N_1  and  C_6
REMARK    2  A    between atoms: N_1  and  C_21
REMARK    3  A    between atoms: C_3  and  C_16
REMARK    4  A    between atoms: C_11  and  C_18
REMARK    5  A    between atoms: C_18  and  O_19
REMARK    6  A    between atoms: C_21  and  C_28
REMARK                            x       y       z     vdW  Elec       q    Type
REMARK                         _______ _______ _______ _____ _____    ______ ____
ROOT
ATOM      1  N   UNL     1      33.216 -10.347 -23.020  0.00  0.00    -0.300 N 
ATOM      2  C   UNL     1      34.000  -9.265 -23.578  0.00  0.00    +0.113 C 
ENDROOT
BRANCH   1   6
ATOM      3  C   UNL     1      34.036 -14.326 -24.070  0.00  0.00    +0.054 C 
ATOM      4  C   UNL     1      33.625 -14.022 -22.775  0.00  0.00    +0.006 C 
ATOM      5  C   UNL     1      34.177 -13.316 -25.018  0.00  0.00    +0.006 C 
ATOM      6  C   UNL     1      33.491 -11.686 -23.373  0.00  0.00    +0.048 C 
ATOM      7  C   UNL     1      33.352 -12.699 -22.425  0.00  0.00    +0.015 C 
ATOM      8  C   UNL     1      33.904 -11.993 -24.670  0.00  0.00    +0.015 C 
BRANCH   3  16
ATOM      9  O   UNL     1      33.831 -16.115 -25.491  0.00  0.00    -0.270 OA
ATOM     10  N   UNL     1      35.116 -16.478 -23.572  0.00  0.00    -0.276 N 
ATOM     11  C   UNL     1      35.504 -18.388 -21.424  0.00  0.00    +0.102 C 
ATOM     12  C   UNL     1      34.995 -18.809 -22.807  0.00  0.00    +0.033 C 
ATOM     13  C   UNL     1      35.275 -16.897 -21.150  0.00  0.00    +0.033 C 
ATOM     14  C   UNL     1      35.446 -17.858 -23.916  0.00  0.00    +0.094 C 
ATOM     15  C   UNL     1      35.706 -16.006 -22.314  0.00  0.00    +0.094 C 
ATOM     16  C   UNL     1      34.325 -15.719 -24.437  0.00  0.00    +0.249 C 
BRANCH  11  18
ATOM     17  O   UNL     1      37.811 -18.501 -22.109  0.00  0.00    -0.250 OA
ATOM     18  C   UNL     1      36.953 -18.749 -21.273  0.00  0.00    +0.317 C 
BRANCH  18  19
ATOM     19  O   UNL     1      37.144 -19.383 -20.082  0.00  0.00    -0.444 OA
ATOM     20  C   UNL     1      36.375 -20.575 -19.889  0.00  0.00    +0.256 C 
ENDBRANCH  18  19
ENDBRANCH  11  18
ENDBRANCH   3  16
ENDBRANCH   1   6
BRANCH   1  21
ATOM     21  C   UNL     1      32.135 -10.038 -22.104  0.00  0.00    +0.148 C 
BRANCH  21  28
ATOM     22  N   UNL     1      31.778  -7.787 -22.930  0.00  0.00    -0.392 NA
ATOM     23  N   UNL     1      32.014  -6.729 -20.383  0.00  0.00    -0.200 NA
ATOM     24  N   UNL     1      31.669  -4.598 -21.221  0.00  0.00    -0.271 NA
ATOM     25  N   UNL     1      31.308  -4.237 -23.564  0.00  0.00    -0.310 NA
ATOM     26  N   UNL     1      31.303  -6.080 -25.042  0.00  0.00    -0.329 N 
ATOM     27  N   UNL     1      31.319  -2.436 -22.067  0.00  0.00    -0.283 N 
ATOM     28  C   UNL     1      32.007  -8.557 -21.866  0.00  0.00    +0.133 C 
ATOM     29  C   UNL     1      32.126  -8.052 -20.610  0.00  0.00    +0.193 C 
ATOM     30  C   UNL     1      31.666  -6.464 -22.701  0.00  0.00    +0.248 C 
ATOM     31  C   UNL     1      31.784  -5.916 -21.422  0.00  0.00    +0.131 C 
ATOM     32  C   UNL     1      31.428  -5.567 -23.725  0.00  0.00    +0.231 C 
ATOM     33  C   UNL     1      31.437  -3.824 -22.298  0.00  0.00    +0.207 C 
ATOM     34  H   UNL     1      31.133  -5.468 -25.795  0.00  0.00    +0.145 HD
ATOM     35  H   UNL     1      31.385  -7.048 -25.203  0.00  0.00    +0.145 HD
ATOM     36  H   UNL     1      31.406  -2.081 -21.153  0.00  0.00    +0.156 HD
ATOM     37  H   UNL     1      31.150  -1.825 -22.820  0.00  0.00    +0.156 HD
ENDBRANCH  21  28
ENDBRANCH   1  21
TORSDOF 6
ENDMDL
MODEL 7
REMARK VINA RESULT:     -11.0      5.253      9.459
REMARK  Name = 23629645
REMARK  6 active torsions:
REMARK  status: ('A' for Active; 'I' for Inactive)
REMARK    1  A    between atoms: N_1  and  C_6
REMARK    2  A    between atoms: N_1  and  C_21
REMARK    3  A    between atoms: C_3  and  C_16
REMARK    4  A    between atoms: C_11  and  C_18
REMARK    5  A    between atoms: C_18  and  O_19
REMARK    6  A    between atoms: C_21  and  C_28
REMARK                            x       y       z     vdW  Elec       q    Type
REMARK                         _______ _______ _______ _____ _____    ______ ____
ROOT
ATOM      1  N   UNL     1      33.592 -10.052 -23.447  0.00  0.00    -0.300 N 
ATOM      2  C   UNL     1      34.596  -9.123 -23.925  0.00  0.00    +0.113 C 
ENDROOT
BRANCH   1   6
ATOM      3  C   UNL     1      33.889 -14.142 -24.336  0.00  0.00    +0.054 C 
ATOM      4  C   UNL     1      33.510 -13.736 -23.059  0.00  0.00    +0.006 C 
ATOM      5  C   UNL     1      34.170 -13.198 -25.319  0.00  0.00    +0.006 C 
ATOM      6  C   UNL     1      33.692 -11.428 -23.746  0.00  0.00    +0.048 C 
ATOM      7  C   UNL     1      33.411 -12.377 -22.763  0.00  0.00    +0.015 C 
ATOM      8  C   UNL     1      34.072 -11.838 -25.025  0.00  0.00    +0.015 C 
BRANCH   3  16
ATOM      9  O   UNL     1      33.329 -15.972 -25.601  0.00  0.00    -0.270 OA
ATOM     10  N   UNL     1      34.819 -16.364 -23.843  0.00  0.00    -0.276 N 
ATOM     11  C   UNL     1      35.309 -18.191 -21.643  0.00  0.00    +0.102 C 
ATOM     12  C   UNL     1      34.583 -18.628 -22.920  0.00  0.00    +0.033 C 
ATOM     13  C   UNL     1      35.260 -16.671 -21.439  0.00  0.00    +0.033 C 
ATOM     14  C   UNL     1      34.969 -17.786 -24.136  0.00  0.00    +0.094 C 
ATOM     15  C   UNL     1      35.613 -15.890 -22.704  0.00  0.00    +0.094 C 
ATOM     16  C   UNL     1      33.994 -15.574 -24.647  0.00  0.00    +0.249 C 
BRANCH  11  18
ATOM     17  O   UNL     1      37.463 -18.630 -22.631  0.00  0.00    -0.250 OA
ATOM     18  C   UNL     1      36.725 -18.689 -21.657  0.00  0.00    +0.317 C 
BRANCH  18  19
ATOM     19  O   UNL     1      37.039 -19.203 -20.434  0.00  0.00    -0.444 OA
ATOM     20  C   UNL     1      36.378 -20.426 -20.093  0.00  0.00    +0.256 C 
ENDBRANCH  18  19
ENDBRANCH  11  18
ENDBRANCH   3  16
ENDBRANCH   1   6
BRANCH   1  21
ATOM     21  C   UNL     1      32.477  -9.550 -22.669  0.00  0.00    +0.148 C 
BRANCH  21  28
ATOM     22  N   UNL     1      32.291  -7.187 -22.158  0.00  0.00    -0.392 NA
ATOM     23  N   UNL     1      31.258  -6.642 -24.668  0.00  0.00    -0.200 NA
ATOM     24  N   UNL     1      31.100  -4.395 -24.130  0.00  0.00    -0.271 NA
ATOM     25  N   UNL     1      31.783  -3.591 -21.977  0.00  0.00    -0.310 NA
ATOM     26  N   UNL     1      32.630  -5.110 -20.377  0.00  0.00    -0.329 N 
ATOM     27  N   UNL     1      30.939  -2.117 -23.589  0.00  0.00    -0.283 N 
ATOM     28  C   UNL     1      32.103  -8.146 -23.066  0.00  0.00    +0.133 C 
ATOM     29  C   UNL     1      31.596  -7.893 -24.301  0.00  0.00    +0.193 C 
ATOM     30  C   UNL     1      31.952  -5.936 -22.527  0.00  0.00    +0.248 C 
ATOM     31  C   UNL     1      31.430  -5.647 -23.789  0.00  0.00    +0.131 C 
ATOM     32  C   UNL     1      32.102  -4.861 -21.672  0.00  0.00    +0.231 C 
ATOM     33  C   UNL     1      31.292  -3.431 -23.211  0.00  0.00    +0.207 C 
ATOM     34  H   UNL     1      32.750  -4.366 -19.744  0.00  0.00    +0.145 HD
ATOM     35  H   UNL     1      32.876  -6.025 -20.114  0.00  0.00    +0.145 HD
ATOM     36  H   UNL     1      30.573  -1.945 -24.487  0.00  0.00    +0.156 HD
ATOM     37  H   UNL     1      31.058  -1.374 -22.955  0.00  0.00    +0.156 HD
ENDBRANCH  21  28
ENDBRANCH   1  21
TORSDOF 6
ENDMDL
MODEL 8
REMARK VINA RESULT:     -10.7      9.724     15.501
REMARK  Name = 23629645
REMARK  6 active torsions:
REMARK  status: ('A' for Active; 'I' for Inactive)
REMARK    1  A    between atoms: N_1  and  C_6
REMARK    2  A    between atoms: N_1  and  C_21
REMARK    3  A    between atoms: C_3  and  C_16
REMARK    4  A    between atoms: C_11  and  C_18
REMARK    5  A    between atoms: C_18  and  O_19
REMARK    6  A    between atoms: C_21  and  C_28
REMARK                            x       y       z     vdW  Elec       q    Type
REMARK                         _______ _______ _______ _____ _____    ______ ____
ROOT
ATOM      1  N   UNL     1      31.915  -8.930 -20.742  0.00  0.00    -0.300 N 
ATOM      2  C   UNL     1      32.699  -8.941 -19.524  0.00  0.00    +0.113 C 
ENDROOT
BRANCH   1   6
ATOM      3  C   UNL     1      31.919  -5.558 -23.239  0.00  0.00    +0.054 C 
ATOM      4  C   UNL     1      31.584  -6.806 -23.760  0.00  0.00    +0.006 C 
ATOM      5  C   UNL     1      32.253  -5.424 -21.894  0.00  0.00    +0.006 C 
ATOM      6  C   UNL     1      31.916  -7.796 -21.582  0.00  0.00    +0.048 C 
ATOM      7  C   UNL     1      31.582  -7.927 -22.930  0.00  0.00    +0.015 C 
ATOM      8  C   UNL     1      32.252  -6.545 -21.064  0.00  0.00    +0.015 C 
BRANCH   3  16
ATOM      9  O   UNL     1      30.880  -3.725 -24.146  0.00  0.00    -0.270 OA
ATOM     10  N   UNL     1      33.081  -4.098 -24.839  0.00  0.00    -0.276 N 
ATOM     11  C   UNL     1      34.729  -4.188 -27.224  0.00  0.00    +0.102 C 
ATOM     12  C   UNL     1      33.472  -3.317 -27.135  0.00  0.00    +0.033 C 
ATOM     13  C   UNL     1      34.715  -5.335 -26.206  0.00  0.00    +0.033 C 
ATOM     14  C   UNL     1      33.131  -2.919 -25.699  0.00  0.00    +0.094 C 
ATOM     15  C   UNL     1      34.324  -4.876 -24.801  0.00  0.00    +0.094 C 
ATOM     16  C   UNL     1      31.921  -4.378 -24.114  0.00  0.00    +0.249 C 
BRANCH  11  18
ATOM     17  O   UNL     1      35.953  -2.118 -27.076  0.00  0.00    -0.250 OA
ATOM     18  C   UNL     1      35.958  -3.341 -27.068  0.00  0.00    +0.317 C 
BRANCH  18  19
ATOM     19  O   UNL     1      37.050  -4.144 -26.919  0.00  0.00    -0.444 OA
ATOM     20  C   UNL     1      38.306  -3.541 -27.248  0.00  0.00    +0.256 C 
ENDBRANCH  18  19
ENDBRANCH  11  18
ENDBRANCH   3  16
ENDBRANCH   1   6
BRANCH   1  21
ATOM     21  C   UNL     1      31.118 -10.092 -21.080  0.00  0.00    +0.148 C 
BRANCH  21  28
ATOM     22  N   UNL     1      32.626 -11.364 -22.491  0.00  0.00    -0.392 NA
ATOM     23  N   UNL     1      32.821 -13.379 -20.603  0.00  0.00    -0.200 NA
ATOM     24  N   UNL     1      34.257 -14.556 -21.988  0.00  0.00    -0.271 NA
ATOM     25  N   UNL     1      34.885 -13.691 -24.134  0.00  0.00    -0.310 NA
ATOM     26  N   UNL     1      34.029 -11.609 -24.851  0.00  0.00    -0.329 N 
ATOM     27  N   UNL     1      35.715 -15.750 -23.387  0.00  0.00    -0.283 N 
ATOM     28  C   UNL     1      31.973 -11.306 -21.329  0.00  0.00    +0.133 C 
ATOM     29  C   UNL     1      32.059 -12.288 -20.394  0.00  0.00    +0.193 C 
ATOM     30  C   UNL     1      33.387 -12.456 -22.699  0.00  0.00    +0.248 C 
ATOM     31  C   UNL     1      33.494 -13.481 -21.756  0.00  0.00    +0.131 C 
ATOM     32  C   UNL     1      34.110 -12.626 -23.864  0.00  0.00    +0.231 C 
ATOM     33  C   UNL     1      34.914 -14.609 -23.161  0.00  0.00    +0.207 C 
ATOM     34  H   UNL     1      34.532 -11.699 -25.693  0.00  0.00    +0.145 HD
ATOM     35  H   UNL     1      33.472 -10.813 -24.693  0.00  0.00    +0.145 HD
ATOM     36  H   UNL     1      35.769 -16.455 -22.703  0.00  0.00    +0.156 HD
ATOM     37  H   UNL     1      36.215 -15.840 -24.229  0.00  0.00    +0.156 HD
ENDBRANCH  21  28
ENDBRANCH   1  21
TORSDOF 6
ENDMDL
MODEL 9
REMARK VINA RESULT:     -10.4      1.394      2.032
REMARK  Name = 23629645
REMARK  6 active torsions:
REMARK  status: ('A' for Active; 'I' for Inactive)
REMARK    1  A    between atoms: N_1  and  C_6
REMARK    2  A    between atoms: N_1  and  C_21
REMARK    3  A    between atoms: C_3  and  C_16
REMARK    4  A    between atoms: C_11  and  C_18
REMARK    5  A    between atoms: C_18  and  O_19
REMARK    6  A    between atoms: C_21  and  C_28
REMARK                            x       y       z     vdW  Elec       q    Type
REMARK                         _______ _______ _______ _____ _____    ______ ____
ROOT
ATOM      1  N   UNL     1      36.027 -20.023 -20.643  0.00  0.00    -0.300 N 
ATOM      2  C   UNL     1      37.224 -19.228 -20.456  0.00  0.00    +0.113 C 
ENDROOT
BRANCH   1   6
ATOM      3  C   UNL     1      34.486 -22.317 -17.486  0.00  0.00    +0.054 C 
ATOM      4  C   UNL     1      33.642 -21.886 -18.506  0.00  0.00    +0.006 C 
ATOM      5  C   UNL     1      35.839 -21.990 -17.508  0.00  0.00    +0.006 C 
ATOM      6  C   UNL     1      35.509 -20.795 -19.581  0.00  0.00    +0.048 C 
ATOM      7  C   UNL     1      34.154 -21.124 -19.556  0.00  0.00    +0.015 C 
ATOM      8  C   UNL     1      36.352 -21.228 -18.557  0.00  0.00    +0.015 C 
BRANCH   3  16
ATOM      9  O   UNL     1      32.727 -23.280 -16.371  0.00  0.00    -0.270 OA
ATOM     10  N   UNL     1      34.841 -23.623 -15.433  0.00  0.00    -0.276 N 
ATOM     11  C   UNL     1      36.242 -23.539 -12.894  0.00  0.00    +0.102 C 
ATOM     12  C   UNL     1      34.742 -23.840 -12.988  0.00  0.00    +0.033 C 
ATOM     13  C   UNL     1      36.765 -22.800 -14.133  0.00  0.00    +0.033 C 
ATOM     14  C   UNL     1      34.345 -24.446 -14.334  0.00  0.00    +0.094 C 
ATOM     15  C   UNL     1      36.296 -23.432 -15.443  0.00  0.00    +0.094 C 
ATOM     16  C   UNL     1      33.946 -23.120 -16.380  0.00  0.00    +0.249 C 
BRANCH  11  18
ATOM     17  O   UNL     1      36.708 -25.642 -11.815  0.00  0.00    -0.250 OA
ATOM     18  C   UNL     1      37.010 -24.806 -12.656  0.00  0.00    +0.317 C 
BRANCH  18  19
ATOM     19  O   UNL     1      38.070 -24.864 -13.511  0.00  0.00    -0.444 OA
ATOM     20  C   UNL     1      38.345 -26.155 -14.063  0.00  0.00    +0.256 C 
ENDBRANCH  18  19
ENDBRANCH  11  18
ENDBRANCH   3  16
ENDBRANCH   1   6
BRANCH   1  21
ATOM     21  C   UNL     1      35.376 -20.026 -21.938  0.00  0.00    +0.148 C 
BRANCH  21  28
ATOM     22  N   UNL     1      35.111 -17.634 -21.638  0.00  0.00    -0.392 NA
ATOM     23  N   UNL     1      35.168 -17.204 -24.372  0.00  0.00    -0.200 NA
ATOM     24  N   UNL     1      34.914 -14.927 -24.033  0.00  0.00    -0.271 NA
ATOM     25  N   UNL     1      34.734 -14.022 -21.820  0.00  0.00    -0.310 NA
ATOM     26  N   UNL     1      34.818 -15.471 -19.955  0.00  0.00    -0.329 N 
ATOM     27  N   UNL     1      34.657 -12.619 -23.693  0.00  0.00    -0.283 N 
ATOM     28  C   UNL     1      35.250 -18.637 -22.506  0.00  0.00    +0.133 C 
ATOM     29  C   UNL     1      35.279 -18.441 -23.850  0.00  0.00    +0.193 C 
ATOM     30  C   UNL     1      35.000 -16.398 -22.161  0.00  0.00    +0.248 C 
ATOM     31  C   UNL     1      35.026 -16.165 -23.538  0.00  0.00    +0.131 C 
ATOM     32  C   UNL     1      34.852 -15.281 -21.361  0.00  0.00    +0.231 C 
ATOM     33  C   UNL     1      34.774 -13.918 -23.153  0.00  0.00    +0.207 C 
ATOM     34  H   UNL     1      34.714 -14.696 -19.356  0.00  0.00    +0.145 HD
ATOM     35  H   UNL     1      34.901 -16.376 -19.578  0.00  0.00    +0.145 HD
ATOM     36  H   UNL     1      34.679 -12.488 -24.669  0.00  0.00    +0.156 HD
ATOM     37  H   UNL     1      34.551 -11.845 -23.094  0.00  0.00    +0.156 HD
ENDBRANCH  21  28
ENDBRANCH   1  21
TORSDOF 6
ENDMDL
