MODEL 1
REMARK VINA RESULT:     -11.3      0.000      0.000
REMARK  Name = 6914614
REMARK  7 active torsions:
REMARK  status: ('A' for Active; 'I' for Inactive)
REMARK    1  A    between atoms: O_1  and  C_4
REMARK    2  A    between atoms: O_1  and  C_18
REMARK    3  A    between atoms: C_9  and  C_13
REMARK    4  A    between atoms: C_18  and  C_19
REMARK    5  A    between atoms: C_19  and  N_20
REMARK    6  A    between atoms: C_19  and  C_24
REMARK    7  A    between atoms: C_24  and  C_26
REMARK                            x       y       z     vdW  Elec       q    Type
REMARK                         _______ _______ _______ _____ _____    ______ ____
ROOT
ATOM      1  O   UNL     1      37.073 -23.095 -16.073  0.00  0.00    -0.476 OA
ENDROOT
BRANCH   1   4
ATOM      2  N   UNL     1      32.612 -23.709 -14.328  0.00  0.00    -0.404 NA
ATOM      3  N   UNL     1      35.897 -23.976 -12.757  0.00  0.00    -0.258 NA
ATOM      4  C   UNL     1      36.198 -23.381 -15.072  0.00  0.00    +0.159 C 
ATOM      5  C   UNL     1      34.811 -23.386 -15.265  0.00  0.00    +0.063 C 
ATOM      6  C   UNL     1      33.953 -23.690 -14.194  0.00  0.00    +0.136 C 
ATOM      7  C   UNL     1      34.234 -23.096 -16.509  0.00  0.00    +0.008 C 
ATOM      8  C   UNL     1      36.683 -23.680 -13.812  0.00  0.00    +0.130 C 
ATOM      9  C   UNL     1      32.094 -23.422 -15.545  0.00  0.00    +0.131 C 
ATOM     10  C   UNL     1      32.853 -23.112 -16.656  0.00  0.00    +0.032 C 
ATOM     11  C   UNL     1      34.562 -23.972 -12.983  0.00  0.00    +0.184 C 
BRANCH   9  13
ATOM     12  N   UNL     1      27.859 -23.538 -15.751  0.00  0.00    -0.242 NA
ATOM     13  C   UNL     1      30.652 -23.461 -15.615  0.00  0.00    +0.033 C 
ATOM     14  C   UNL     1      29.954 -24.532 -15.066  0.00  0.00    +0.023 C 
ATOM     15  C   UNL     1      29.953 -22.429 -16.233  0.00  0.00    +0.023 C 
ATOM     16  C   UNL     1      28.571 -24.522 -15.158  0.00  0.00    +0.099 C 
ATOM     17  C   UNL     1      28.570 -22.514 -16.274  0.00  0.00    +0.099 C 
ENDBRANCH   9  13
ENDBRANCH   1   4
BRANCH   1  18
ATOM     18  C   UNL     1      37.662 -21.795 -16.072  0.00  0.00    +0.184 C 
BRANCH  18  19
ATOM     19  C   UNL     1      37.053 -20.893 -17.153  0.00  0.00    -0.017 C 
BRANCH  19  20
ATOM     20  N   UNL     1      37.890 -19.695 -17.289  0.00  0.00    +0.384 N 
ATOM     21  H   UNL     1      37.588 -18.991 -16.614  0.00  0.00    -0.089 HD
ATOM     22  H   UNL     1      37.799 -19.322 -18.233  0.00  0.00    -0.089 HD
ATOM     23  H   UNL     1      38.865 -19.938 -17.111  0.00  0.00    -0.089 HD
ENDBRANCH  19  20
BRANCH  19  24
ATOM     24  C   UNL     1      36.931 -21.564 -18.535  0.00  0.00    +0.009 C 
BRANCH  24  26
ATOM     25  N   UNL     1      34.008 -20.385 -20.378  0.00  0.00    -0.312 N 
ATOM     26  C   UNL     1      35.918 -20.911 -19.432  0.00  0.00    -0.008 C 
ATOM     27  C   UNL     1      36.193 -19.938 -20.411  0.00  0.00    +0.011 C 
ATOM     28  C   UNL     1      34.967 -19.618 -20.999  0.00  0.00    +0.048 C 
ATOM     29  C   UNL     1      34.583 -21.177 -19.421  0.00  0.00    +0.058 C 
ATOM     30  C   UNL     1      37.356 -19.285 -20.868  0.00  0.00    +0.001 C 
ATOM     31  C   UNL     1      34.845 -18.673 -22.025  0.00  0.00    +0.015 C 
ATOM     32  C   UNL     1      37.249 -18.339 -21.893  0.00  0.00    +0.000 C 
ATOM     33  C   UNL     1      36.012 -18.039 -22.463  0.00  0.00    +0.001 C 
ATOM     34  H   UNL     1      33.048 -20.367 -20.592  0.00  0.00    +0.152 HD
ENDBRANCH  24  26
ENDBRANCH  19  24
ENDBRANCH  18  19
ENDBRANCH   1  18
TORSDOF 7
ENDMDL
MODEL 2
REMARK VINA RESULT:     -11.3      2.695      5.493
REMARK  Name = 6914614
REMARK  7 active torsions:
REMARK  status: ('A' for Active; 'I' for Inactive)
REMARK    1  A    between atoms: O_1  and  C_4
REMARK    2  A    between atoms: O_1  and  C_18
REMARK    3  A    between atoms: C_9  and  C_13
REMARK    4  A    between atoms: C_18  and  C_19
REMARK    5  A    between atoms: C_19  and  N_20
REMARK    6  A    between atoms: C_19  and  C_24
REMARK    7  A    between atoms: C_24  and  C_26
REMARK                            x       y       z     vdW  Elec       q    Type
REMARK                         _______ _______ _______ _____ _____    ______ ____
ROOT
ATOM      1  O   UNL     1      36.166 -20.562 -19.383  0.00  0.00    -0.476 OA
ENDROOT
BRANCH   1   4
ATOM      2  N   UNL     1      34.952 -23.550 -15.789  0.00  0.00    -0.404 NA
ATOM      3  N   UNL     1      33.079 -22.329 -18.675  0.00  0.00    -0.258 NA
ATOM      4  C   UNL     1      35.290 -21.374 -18.734  0.00  0.00    +0.159 C 
ATOM      5  C   UNL     1      35.625 -22.051 -17.555  0.00  0.00    +0.063 C 
ATOM      6  C   UNL     1      34.679 -22.877 -16.925  0.00  0.00    +0.136 C 
ATOM      7  C   UNL     1      36.891 -21.933 -16.966  0.00  0.00    +0.008 C 
ATOM      8  C   UNL     1      34.017 -21.546 -19.246  0.00  0.00    +0.130 C 
ATOM      9  C   UNL     1      36.187 -23.410 -15.252  0.00  0.00    +0.131 C 
ATOM     10  C   UNL     1      37.182 -22.623 -15.797  0.00  0.00    +0.032 C 
ATOM     11  C   UNL     1      33.440 -22.967 -17.536  0.00  0.00    +0.184 C 
BRANCH   9  13
ATOM     12  N   UNL     1      36.839 -25.606 -11.683  0.00  0.00    -0.242 NA
ATOM     13  C   UNL     1      36.409 -24.158 -14.038  0.00  0.00    +0.033 C 
ATOM     14  C   UNL     1      35.795 -23.765 -12.852  0.00  0.00    +0.023 C 
ATOM     15  C   UNL     1      37.238 -25.275 -14.044  0.00  0.00    +0.023 C 
ATOM     16  C   UNL     1      36.039 -24.516 -11.713  0.00  0.00    +0.099 C 
ATOM     17  C   UNL     1      37.418 -25.959 -12.852  0.00  0.00    +0.099 C 
ENDBRANCH   9  13
ENDBRANCH   1   4
BRANCH   1  18
ATOM     18  C   UNL     1      35.756 -20.039 -20.646  0.00  0.00    +0.184 C 
BRANCH  18  19
ATOM     19  C   UNL     1      36.431 -18.696 -20.953  0.00  0.00    -0.017 C 
BRANCH  19  20
ATOM     20  N   UNL     1      37.605 -18.553 -20.084  0.00  0.00    +0.384 N 
ATOM     21  H   UNL     1      37.706 -19.389 -19.508  0.00  0.00    -0.089 HD
ATOM     22  H   UNL     1      37.486 -17.738 -19.483  0.00  0.00    -0.089 HD
ATOM     23  H   UNL     1      38.441 -18.433 -20.658  0.00  0.00    -0.089 HD
ENDBRANCH  19  20
BRANCH  19  24
ATOM     24  C   UNL     1      36.884 -18.541 -22.418  0.00  0.00    +0.009 C 
BRANCH  24  26
ATOM     25  N   UNL     1      34.146 -18.440 -24.831  0.00  0.00    -0.312 N 
ATOM     26  C   UNL     1      35.762 -18.215 -23.363  0.00  0.00    -0.008 C 
ATOM     27  C   UNL     1      35.252 -16.929 -23.620  0.00  0.00    +0.011 C 
ATOM     28  C   UNL     1      34.227 -17.094 -24.554  0.00  0.00    +0.048 C 
ATOM     29  C   UNL     1      35.081 -19.129 -24.106  0.00  0.00    +0.058 C 
ATOM     30  C   UNL     1      35.547 -15.629 -23.160  0.00  0.00    +0.001 C 
ATOM     31  C   UNL     1      33.479 -16.022 -25.053  0.00  0.00    +0.015 C 
ATOM     32  C   UNL     1      34.808 -14.547 -23.651  0.00  0.00    +0.000 C 
ATOM     33  C   UNL     1      33.790 -14.742 -24.584  0.00  0.00    +0.001 C 
ATOM     34  H   UNL     1      33.508 -18.848 -25.459  0.00  0.00    +0.152 HD
ENDBRANCH  24  26
ENDBRANCH  19  24
ENDBRANCH  18  19
ENDBRANCH   1  18
TORSDOF 7
ENDMDL
MODEL 3
REMARK VINA RESULT:     -11.2      1.882      8.327
REMARK  Name = 6914614
REMARK  7 active torsions:
REMARK  status: ('A' for Active; 'I' for Inactive)
REMARK    1  A    between atoms: O_1  and  C_4
REMARK    2  A    between atoms: O_1  and  C_18
REMARK    3  A    between atoms: C_9  and  C_13
REMARK    4  A    between atoms: C_18  and  C_19
REMARK    5  A    between atoms: C_19  and  N_20
REMARK    6  A    between atoms: C_19  and  C_24
REMARK    7  A    between atoms: C_24  and  C_26
REMARK                            x       y       z     vdW  Elec       q    Type
REMARK                         _______ _______ _______ _____ _____    ______ ____
ROOT
ATOM      1  O   UNL     1      36.482 -22.202 -18.086  0.00  0.00    -0.476 OA
ENDROOT
BRANCH   1   4
ATOM      2  N   UNL     1      34.201 -19.385 -21.277  0.00  0.00    -0.404 NA
ATOM      3  N   UNL     1      32.972 -21.922 -18.956  0.00  0.00    -0.258 NA
ATOM      4  C   UNL     1      35.363 -21.756 -18.718  0.00  0.00    +0.159 C 
ATOM      5  C   UNL     1      35.403 -20.761 -19.702  0.00  0.00    +0.063 C 
ATOM      6  C   UNL     1      34.216 -20.339 -20.324  0.00  0.00    +0.136 C 
ATOM      7  C   UNL     1      36.604 -20.159 -20.100  0.00  0.00    +0.008 C 
ATOM      8  C   UNL     1      34.135 -22.297 -18.385  0.00  0.00    +0.130 C 
ATOM      9  C   UNL     1      35.381 -18.828 -21.633  0.00  0.00    +0.131 C 
ATOM     10  C   UNL     1      36.598 -19.175 -21.080  0.00  0.00    +0.032 C 
ATOM     11  C   UNL     1      33.051 -20.958 -19.904  0.00  0.00    +0.184 C 
BRANCH   9  13
ATOM     12  N   UNL     1      35.113 -15.854 -24.645  0.00  0.00    -0.242 NA
ATOM     13  C   UNL     1      35.290 -17.816 -22.658  0.00  0.00    +0.033 C 
ATOM     14  C   UNL     1      34.995 -18.173 -23.970  0.00  0.00    +0.023 C 
ATOM     15  C   UNL     1      35.496 -16.477 -22.340  0.00  0.00    +0.023 C 
ATOM     16  C   UNL     1      34.918 -17.164 -24.917  0.00  0.00    +0.099 C 
ATOM     17  C   UNL     1      35.397 -15.543 -23.360  0.00  0.00    +0.099 C 
ENDBRANCH   9  13
ENDBRANCH   1   4
BRANCH   1  18
ATOM     18  C   UNL     1      36.614 -21.891 -16.699  0.00  0.00    +0.184 C 
BRANCH  18  19
ATOM     19  C   UNL     1      35.990 -22.975 -15.810  0.00  0.00    -0.017 C 
BRANCH  19  20
ATOM     20  N   UNL     1      37.069 -23.703 -15.132  0.00  0.00    +0.384 N 
ATOM     21  H   UNL     1      36.816 -24.689 -15.051  0.00  0.00    -0.089 HD
ATOM     22  H   UNL     1      37.212 -23.312 -14.202  0.00  0.00    -0.089 HD
ATOM     23  H   UNL     1      37.930 -23.618 -15.674  0.00  0.00    -0.089 HD
ENDBRANCH  19  20
BRANCH  19  24
ATOM     24  C   UNL     1      35.021 -22.430 -14.743  0.00  0.00    +0.009 C 
BRANCH  24  26
ATOM     25  N   UNL     1      32.971 -25.094 -13.317  0.00  0.00    -0.312 N 
ATOM     26  C   UNL     1      33.969 -23.419 -14.326  0.00  0.00    -0.008 C 
ATOM     27  C   UNL     1      32.646 -23.462 -14.802  0.00  0.00    +0.011 C 
ATOM     28  C   UNL     1      32.029 -24.532 -14.150  0.00  0.00    +0.048 C 
ATOM     29  C   UNL     1      34.157 -24.418 -13.420  0.00  0.00    +0.058 C 
ATOM     30  C   UNL     1      31.894 -22.706 -15.724  0.00  0.00    +0.001 C 
ATOM     31  C   UNL     1      30.693 -24.884 -14.372  0.00  0.00    +0.015 C 
ATOM     32  C   UNL     1      30.556 -23.046 -15.957  0.00  0.00    +0.000 C 
ATOM     33  C   UNL     1      29.967 -24.120 -15.290  0.00  0.00    +0.001 C 
ATOM     34  H   UNL     1      32.813 -25.869 -12.732  0.00  0.00    +0.152 HD
ENDBRANCH  24  26
ENDBRANCH  19  24
ENDBRANCH  18  19
ENDBRANCH   1  18
TORSDOF 7
ENDMDL
MODEL 4
REMARK VINA RESULT:     -11.0      4.645      7.998
REMARK  Name = 6914614
REMARK  7 active torsions:
REMARK  status: ('A' for Active; 'I' for Inactive)
REMARK    1  A    between atoms: O_1  and  C_4
REMARK    2  A    between atoms: O_1  and  C_18
REMARK    3  A    between atoms: C_9  and  C_13
REMARK    4  A    between atoms: C_18  and  C_19
REMARK    5  A    between atoms: C_19  and  N_20
REMARK    6  A    between atoms: C_19  and  C_24
REMARK    7  A    between atoms: C_24  and  C_26
REMARK                            x       y       z     vdW  Elec       q    Type
REMARK                         _______ _______ _______ _____ _____    ______ ____
ROOT
ATOM      1  O   UNL     1      34.573 -17.862 -23.238  0.00  0.00    -0.476 OA
ENDROOT
BRANCH   1   4
ATOM      2  N   UNL     1      36.066 -20.591 -19.545  0.00  0.00    -0.404 NA
ATOM      3  N   UNL     1      37.877 -18.413 -21.849  0.00  0.00    -0.258 NA
ATOM      4  C   UNL     1      35.537 -18.358 -22.418  0.00  0.00    +0.159 C 
ATOM      5  C   UNL     1      35.252 -19.250 -21.376  0.00  0.00    +0.063 C 
ATOM      6  C   UNL     1      36.288 -19.732 -20.559  0.00  0.00    +0.136 C 
ATOM      7  C   UNL     1      33.948 -19.689 -21.113  0.00  0.00    +0.008 C 
ATOM      8  C   UNL     1      36.853 -17.976 -22.608  0.00  0.00    +0.130 C 
ATOM      9  C   UNL     1      34.793 -20.991 -19.322  0.00  0.00    +0.131 C 
ATOM     10  C   UNL     1      33.709 -20.574 -20.069  0.00  0.00    +0.032 C 
ATOM     11  C   UNL     1      37.562 -19.275 -20.852  0.00  0.00    +0.184 C 
BRANCH   9  13
ATOM     12  N   UNL     1      34.314 -23.693 -16.088  0.00  0.00    -0.242 NA
ATOM     13  C   UNL     1      34.630 -21.911 -18.221  0.00  0.00    +0.033 C 
ATOM     14  C   UNL     1      35.653 -22.080 -17.294  0.00  0.00    +0.023 C 
ATOM     15  C   UNL     1      33.449 -22.634 -18.082  0.00  0.00    +0.023 C 
ATOM     16  C   UNL     1      35.447 -22.974 -16.255  0.00  0.00    +0.099 C 
ATOM     17  C   UNL     1      33.342 -23.504 -17.008  0.00  0.00    +0.099 C 
ENDBRANCH   9  13
ENDBRANCH   1   4
BRANCH   1  18
ATOM     18  C   UNL     1      35.002 -17.260 -24.459  0.00  0.00    +0.184 C 
BRANCH  18  19
ATOM     19  C   UNL     1      34.637 -15.771 -24.520  0.00  0.00    -0.017 C 
BRANCH  19  20
ATOM     20  N   UNL     1      33.309 -15.639 -25.131  0.00  0.00    +0.384 N 
ATOM     21  H   UNL     1      33.158 -14.670 -25.410  0.00  0.00    -0.089 HD
ATOM     22  H   UNL     1      32.596 -15.914 -24.456  0.00  0.00    -0.089 HD
ATOM     23  H   UNL     1      33.251 -16.242 -25.952  0.00  0.00    -0.089 HD
ENDBRANCH  19  20
BRANCH  19  24
ATOM     24  C   UNL     1      34.615 -15.074 -23.146  0.00  0.00    +0.009 C 
BRANCH  24  26
ATOM     25  N   UNL     1      33.760 -11.603 -23.888  0.00  0.00    -0.312 N 
ATOM     26  C   UNL     1      34.122 -13.656 -23.199  0.00  0.00    -0.008 C 
ATOM     27  C   UNL     1      33.332 -13.023 -22.222  0.00  0.00    +0.011 C 
ATOM     28  C   UNL     1      33.113 -11.721 -22.679  0.00  0.00    +0.048 C 
ATOM     29  C   UNL     1      34.377 -12.782 -24.211  0.00  0.00    +0.058 C 
ATOM     30  C   UNL     1      32.771 -13.412 -20.988  0.00  0.00    +0.001 C 
ATOM     31  C   UNL     1      32.358 -10.786 -21.962  0.00  0.00    +0.015 C 
ATOM     32  C   UNL     1      32.014 -12.487 -20.260  0.00  0.00    +0.000 C 
ATOM     33  C   UNL     1      31.812 -11.194 -20.741  0.00  0.00    +0.001 C 
ATOM     34  H   UNL     1      33.775 -10.789 -24.441  0.00  0.00    +0.152 HD
ENDBRANCH  24  26
ENDBRANCH  19  24
ENDBRANCH  18  19
ENDBRANCH   1  18
TORSDOF 7
ENDMDL
MODEL 5
REMARK VINA RESULT:     -11.0      1.525      7.709
REMARK  Name = 6914614
REMARK  7 active torsions:
REMARK  status: ('A' for Active; 'I' for Inactive)
REMARK    1  A    between atoms: O_1  and  C_4
REMARK    2  A    between atoms: O_1  and  C_18
REMARK    3  A    between atoms: C_9  and  C_13
REMARK    4  A    between atoms: C_18  and  C_19
REMARK    5  A    between atoms: C_19  and  N_20
REMARK    6  A    between atoms: C_19  and  C_24
REMARK    7  A    between atoms: C_24  and  C_26
REMARK                            x       y       z     vdW  Elec       q    Type
REMARK                         _______ _______ _______ _____ _____    ______ ____
ROOT
ATOM      1  O   UNL     1      34.775 -23.635 -15.896  0.00  0.00    -0.476 OA
ENDROOT
BRANCH   1   4
ATOM      2  N   UNL     1      36.800 -20.435 -18.891  0.00  0.00    -0.404 NA
ATOM      3  N   UNL     1      37.934 -21.862 -15.727  0.00  0.00    -0.258 NA
ATOM      4  C   UNL     1      35.778 -22.794 -16.262  0.00  0.00    +0.159 C 
ATOM      5  C   UNL     1      35.731 -22.038 -17.441  0.00  0.00    +0.063 C 
ATOM      6  C   UNL     1      36.796 -21.183 -17.770  0.00  0.00    +0.136 C 
ATOM      7  C   UNL     1      34.643 -22.102 -18.320  0.00  0.00    +0.008 C 
ATOM      8  C   UNL     1      36.890 -22.669 -15.450  0.00  0.00    +0.130 C 
ATOM      9  C   UNL     1      35.731 -20.526 -19.715  0.00  0.00    +0.131 C 
ATOM     10  C   UNL     1      34.638 -21.336 -19.478  0.00  0.00    +0.032 C 
ATOM     11  C   UNL     1      37.852 -21.147 -16.875  0.00  0.00    +0.184 C 
BRANCH   9  13
ATOM     12  N   UNL     1      35.942 -18.091 -23.182  0.00  0.00    -0.242 NA
ATOM     13  C   UNL     1      35.803 -19.697 -20.896  0.00  0.00    +0.033 C 
ATOM     14  C   UNL     1      36.982 -19.030 -21.212  0.00  0.00    +0.023 C 
ATOM     15  C   UNL     1      34.693 -19.560 -21.724  0.00  0.00    +0.023 C 
ATOM     16  C   UNL     1      37.001 -18.248 -22.356  0.00  0.00    +0.099 C 
ATOM     17  C   UNL     1      34.813 -18.753 -22.844  0.00  0.00    +0.099 C 
ENDBRANCH   9  13
ENDBRANCH   1   4
BRANCH   1  18
ATOM     18  C   UNL     1      35.037 -24.530 -14.814  0.00  0.00    +0.184 C 
BRANCH  18  19
ATOM     19  C   UNL     1      34.234 -24.159 -13.561  0.00  0.00    -0.017 C 
BRANCH  19  20
ATOM     20  N   UNL     1      35.139 -23.523 -12.596  0.00  0.00    +0.384 N 
ATOM     21  H   UNL     1      34.603 -23.191 -11.794  0.00  0.00    -0.089 HD
ATOM     22  H   UNL     1      35.611 -22.735 -13.040  0.00  0.00    -0.089 HD
ATOM     23  H   UNL     1      35.833 -24.202 -12.282  0.00  0.00    -0.089 HD
ENDBRANCH  19  20
BRANCH  19  24
ATOM     24  C   UNL     1      33.056 -23.203 -13.831  0.00  0.00    +0.009 C 
BRANCH  24  26
ATOM     25  N   UNL     1      30.097 -25.341 -13.767  0.00  0.00    -0.312 N 
ATOM     26  C   UNL     1      31.741 -23.906 -14.012  0.00  0.00    -0.008 C 
ATOM     27  C   UNL     1      30.732 -23.541 -14.922  0.00  0.00    +0.011 C 
ATOM     28  C   UNL     1      29.697 -24.464 -14.751  0.00  0.00    +0.048 C 
ATOM     29  C   UNL     1      31.343 -25.004 -13.312  0.00  0.00    +0.058 C 
ATOM     30  C   UNL     1      30.578 -22.521 -15.883  0.00  0.00    +0.001 C 
ATOM     31  C   UNL     1      28.512 -24.417 -15.493  0.00  0.00    +0.015 C 
ATOM     32  C   UNL     1      29.398 -22.462 -16.633  0.00  0.00    +0.000 C 
ATOM     33  C   UNL     1      28.382 -23.397 -16.440  0.00  0.00    +0.001 C 
ATOM     34  H   UNL     1      29.563 -26.099 -13.438  0.00  0.00    +0.152 HD
ENDBRANCH  24  26
ENDBRANCH  19  24
ENDBRANCH  18  19
ENDBRANCH   1  18
TORSDOF 7
ENDMDL
MODEL 6
REMARK VINA RESULT:     -11.0      2.853      6.030
REMARK  Name = 6914614
REMARK  7 active torsions:
REMARK  status: ('A' for Active; 'I' for Inactive)
REMARK    1  A    between atoms: O_1  and  C_4
REMARK    2  A    between atoms: O_1  and  C_18
REMARK    3  A    between atoms: C_9  and  C_13
REMARK    4  A    between atoms: C_18  and  C_19
REMARK    5  A    between atoms: C_19  and  N_20
REMARK    6  A    between atoms: C_19  and  C_24
REMARK    7  A    between atoms: C_24  and  C_26
REMARK                            x       y       z     vdW  Elec       q    Type
REMARK                         _______ _______ _______ _____ _____    ______ ____
ROOT
ATOM      1  O   UNL     1      35.901 -20.478 -20.037  0.00  0.00    -0.476 OA
ENDROOT
BRANCH   1   4
ATOM      2  N   UNL     1      35.336 -23.092 -16.016  0.00  0.00    -0.404 NA
ATOM      3  N   UNL     1      33.006 -22.189 -18.678  0.00  0.00    -0.258 NA
ATOM      4  C   UNL     1      35.156 -21.227 -19.180  0.00  0.00    +0.159 C 
ATOM      5  C   UNL     1      35.689 -21.776 -18.007  0.00  0.00    +0.063 C 
ATOM      6  C   UNL     1      34.873 -22.542 -17.156  0.00  0.00    +0.136 C 
ATOM      7  C   UNL     1      37.028 -21.589 -17.641  0.00  0.00    +0.008 C 
ATOM      8  C   UNL     1      33.823 -21.461 -19.465  0.00  0.00    +0.130 C 
ATOM      9  C   UNL     1      36.636 -22.888 -15.698  0.00  0.00    +0.131 C 
ATOM     10  C   UNL     1      37.514 -22.153 -16.469  0.00  0.00    +0.032 C 
ATOM     11  C   UNL     1      33.556 -22.703 -17.552  0.00  0.00    +0.184 C 
BRANCH   9  13
ATOM     12  N   UNL     1      37.890 -24.704 -12.076  0.00  0.00    -0.242 NA
ATOM     13  C   UNL     1      37.063 -23.506 -14.465  0.00  0.00    +0.033 C 
ATOM     14  C   UNL     1      38.128 -24.402 -14.464  0.00  0.00    +0.023 C 
ATOM     15  C   UNL     1      36.412 -23.210 -13.271  0.00  0.00    +0.023 C 
ATOM     16  C   UNL     1      38.500 -24.967 -13.254  0.00  0.00    +0.099 C 
ATOM     17  C   UNL     1      36.860 -23.830 -12.115  0.00  0.00    +0.099 C 
ENDBRANCH   9  13
ENDBRANCH   1   4
BRANCH   1  18
ATOM     18  C   UNL     1      35.196 -19.725 -21.024  0.00  0.00    +0.184 C 
BRANCH  18  19
ATOM     19  C   UNL     1      35.866 -18.371 -21.293  0.00  0.00    -0.017 C 
BRANCH  19  20
ATOM     20  N   UNL     1      37.109 -18.301 -20.515  0.00  0.00    +0.384 N 
ATOM     21  H   UNL     1      37.849 -18.798 -21.011  0.00  0.00    -0.089 HD
ATOM     22  H   UNL     1      36.963 -18.730 -19.602  0.00  0.00    -0.089 HD
ATOM     23  H   UNL     1      37.379 -17.325 -20.393  0.00  0.00    -0.089 HD
ENDBRANCH  19  20
BRANCH  19  24
ATOM     24  C   UNL     1      36.201 -18.121 -22.776  0.00  0.00    +0.009 C 
BRANCH  24  26
ATOM     25  N   UNL     1      34.458 -15.655 -24.828  0.00  0.00    -0.312 N 
ATOM     26  C   UNL     1      35.458 -16.960 -23.373  0.00  0.00    -0.008 C 
ATOM     27  C   UNL     1      35.003 -15.827 -22.672  0.00  0.00    +0.011 C 
ATOM     28  C   UNL     1      34.371 -15.012 -23.614  0.00  0.00    +0.048 C 
ATOM     29  C   UNL     1      35.120 -16.845 -24.686  0.00  0.00    +0.058 C 
ATOM     30  C   UNL     1      35.057 -15.397 -21.331  0.00  0.00    +0.001 C 
ATOM     31  C   UNL     1      33.788 -13.784 -23.281  0.00  0.00    +0.015 C 
ATOM     32  C   UNL     1      34.478 -14.172 -20.983  0.00  0.00    +0.000 C 
ATOM     33  C   UNL     1      33.853 -13.378 -21.944  0.00  0.00    +0.001 C 
ATOM     34  H   UNL     1      34.096 -15.309 -25.675  0.00  0.00    +0.152 HD
ENDBRANCH  24  26
ENDBRANCH  19  24
ENDBRANCH  18  19
ENDBRANCH   1  18
TORSDOF 7
ENDMDL
MODEL 7
REMARK VINA RESULT:     -10.8      4.846     10.460
REMARK  Name = 6914614
REMARK  7 active torsions:
REMARK  status: ('A' for Active; 'I' for Inactive)
REMARK    1  A    between atoms: O_1  and  C_4
REMARK    2  A    between atoms: O_1  and  C_18
REMARK    3  A    between atoms: C_9  and  C_13
REMARK    4  A    between atoms: C_18  and  C_19
REMARK    5  A    between atoms: C_19  and  N_20
REMARK    6  A    between atoms: C_19  and  C_24
REMARK    7  A    between atoms: C_24  and  C_26
REMARK                            x       y       z     vdW  Elec       q    Type
REMARK                         _______ _______ _______ _____ _____    ______ ____
ROOT
ATOM      1  O   UNL     1      35.792 -17.663 -21.171  0.00  0.00    -0.476 OA
ENDROOT
BRANCH   1   4
ATOM      2  N   UNL     1      34.079 -13.898 -23.664  0.00  0.00    -0.404 NA
ATOM      3  N   UNL     1      35.235 -17.196 -24.724  0.00  0.00    -0.258 NA
ATOM      4  C   UNL     1      35.431 -17.046 -22.328  0.00  0.00    +0.159 C 
ATOM      5  C   UNL     1      34.926 -15.740 -22.357  0.00  0.00    +0.063 C 
ATOM      6  C   UNL     1      34.570 -15.151 -23.582  0.00  0.00    +0.136 C 
ATOM      7  C   UNL     1      34.759 -14.983 -21.190  0.00  0.00    +0.008 C 
ATOM      8  C   UNL     1      35.564 -17.722 -23.527  0.00  0.00    +0.130 C 
ATOM      9  C   UNL     1      33.933 -13.200 -22.514  0.00  0.00    +0.131 C 
ATOM     10  C   UNL     1      34.254 -13.692 -21.264  0.00  0.00    +0.032 C 
ATOM     11  C   UNL     1      34.750 -15.931 -24.712  0.00  0.00    +0.184 C 
BRANCH   9  13
ATOM     12  N   UNL     1      32.375  -9.284 -22.994  0.00  0.00    -0.242 NA
ATOM     13  C   UNL     1      33.403 -11.867 -22.677  0.00  0.00    +0.033 C 
ATOM     14  C   UNL     1      32.376 -11.416 -21.853  0.00  0.00    +0.023 C 
ATOM     15  C   UNL     1      33.914 -11.025 -23.660  0.00  0.00    +0.023 C 
ATOM     16  C   UNL     1      31.903 -10.129 -22.049  0.00  0.00    +0.099 C 
ATOM     17  C   UNL     1      33.371  -9.755 -23.776  0.00  0.00    +0.099 C 
ENDBRANCH   9  13
ENDBRANCH   1   4
BRANCH   1  18
ATOM     18  C   UNL     1      36.129 -19.047 -21.248  0.00  0.00    +0.184 C 
BRANCH  18  19
ATOM     19  C   UNL     1      35.312 -19.889 -20.260  0.00  0.00    -0.017 C 
BRANCH  19  20
ATOM     20  N   UNL     1      33.949 -20.035 -20.784  0.00  0.00    +0.384 N 
ATOM     21  H   UNL     1      33.979 -20.079 -21.803  0.00  0.00    -0.089 HD
ATOM     22  H   UNL     1      33.386 -19.235 -20.495  0.00  0.00    -0.089 HD
ATOM     23  H   UNL     1      33.534 -20.892 -20.419  0.00  0.00    -0.089 HD
ENDBRANCH  19  20
BRANCH  19  24
ATOM     24  C   UNL     1      35.891 -21.294 -20.004  0.00  0.00    +0.009 C 
BRANCH  24  26
ATOM     25  N   UNL     1      36.647 -22.032 -16.509  0.00  0.00    -0.312 N 
ATOM     26  C   UNL     1      35.924 -21.675 -18.551  0.00  0.00    -0.008 C 
ATOM     27  C   UNL     1      34.836 -22.163 -17.804  0.00  0.00    +0.011 C 
ATOM     28  C   UNL     1      35.316 -22.384 -16.511  0.00  0.00    +0.048 C 
ATOM     29  C   UNL     1      37.023 -21.598 -17.752  0.00  0.00    +0.058 C 
ATOM     30  C   UNL     1      33.483 -22.446 -18.082  0.00  0.00    +0.001 C 
ATOM     31  C   UNL     1      34.509 -22.873 -15.478  0.00  0.00    +0.015 C 
ATOM     32  C   UNL     1      32.664 -22.937 -17.059  0.00  0.00    +0.000 C 
ATOM     33  C   UNL     1      33.171 -23.147 -15.777  0.00  0.00    +0.001 C 
ATOM     34  H   UNL     1      37.242 -22.084 -15.727  0.00  0.00    +0.152 HD
ENDBRANCH  24  26
ENDBRANCH  19  24
ENDBRANCH  18  19
ENDBRANCH   1  18
TORSDOF 7
ENDMDL
MODEL 8
REMARK VINA RESULT:     -10.5      9.754     13.963
REMARK  Name = 6914614
REMARK  7 active torsions:
REMARK  status: ('A' for Active; 'I' for Inactive)
REMARK    1  A    between atoms: O_1  and  C_4
REMARK    2  A    between atoms: O_1  and  C_18
REMARK    3  A    between atoms: C_9  and  C_13
REMARK    4  A    between atoms: C_18  and  C_19
REMARK    5  A    between atoms: C_19  and  N_20
REMARK    6  A    between atoms: C_19  and  C_24
REMARK    7  A    between atoms: C_24  and  C_26
REMARK                            x       y       z     vdW  Elec       q    Type
REMARK                         _______ _______ _______ _____ _____    ______ ____
ROOT
ATOM      1  O   UNL     1      31.939 -10.144 -21.416  0.00  0.00    -0.476 OA
ENDROOT
BRANCH   1   4
ATOM      2  N   UNL     1      34.626 -13.600 -23.454  0.00  0.00    -0.404 NA
ATOM      3  N   UNL     1      33.826 -10.199 -24.513  0.00  0.00    -0.258 NA
ATOM      4  C   UNL     1      32.738 -10.624 -22.406  0.00  0.00    +0.159 C 
ATOM      5  C   UNL     1      33.270 -11.919 -22.380  0.00  0.00    +0.063 C 
ATOM      6  C   UNL     1      34.090 -12.363 -23.431  0.00  0.00    +0.136 C 
ATOM      7  C   UNL     1      33.011 -12.807 -21.327  0.00  0.00    +0.008 C 
ATOM      8  C   UNL     1      33.044  -9.813 -23.484  0.00  0.00    +0.130 C 
ATOM      9  C   UNL     1      34.353 -14.427 -22.419  0.00  0.00    +0.131 C 
ATOM     10  C   UNL     1      33.560 -14.082 -21.342  0.00  0.00    +0.032 C 
ATOM     11  C   UNL     1      34.321 -11.458 -24.453  0.00  0.00    +0.184 C 
BRANCH   9  13
ATOM     12  N   UNL     1      36.136 -18.266 -22.685  0.00  0.00    -0.242 NA
ATOM     13  C   UNL     1      34.959 -15.734 -22.510  0.00  0.00    +0.033 C 
ATOM     14  C   UNL     1      35.364 -16.400 -21.356  0.00  0.00    +0.023 C 
ATOM     15  C   UNL     1      35.145 -16.336 -23.751  0.00  0.00    +0.023 C 
ATOM     16  C   UNL     1      35.940 -17.652 -21.497  0.00  0.00    +0.099 C 
ATOM     17  C   UNL     1      35.732 -17.591 -23.784  0.00  0.00    +0.099 C 
ENDBRANCH   9  13
ENDBRANCH   1   4
BRANCH   1  18
ATOM     18  C   UNL     1      31.605  -8.757 -21.462  0.00  0.00    +0.184 C 
BRANCH  18  19
ATOM     19  C   UNL     1      32.141  -8.001 -20.240  0.00  0.00    -0.017 C 
BRANCH  19  20
ATOM     20  N   UNL     1      32.534  -8.980 -19.219  0.00  0.00    +0.384 N 
ATOM     21  H   UNL     1      32.401  -8.576 -18.291  0.00  0.00    -0.089 HD
ATOM     22  H   UNL     1      33.515  -9.226 -19.345  0.00  0.00    -0.089 HD
ATOM     23  H   UNL     1      31.958  -9.817 -19.311  0.00  0.00    -0.089 HD
ENDBRANCH  19  20
BRANCH  19  24
ATOM     24  C   UNL     1      33.351  -7.096 -20.543  0.00  0.00    +0.009 C 
BRANCH  24  26
ATOM     25  N   UNL     1      32.199  -4.412 -22.734  0.00  0.00    -0.312 N 
ATOM     26  C   UNL     1      33.089  -6.082 -21.620  0.00  0.00    -0.008 C 
ATOM     27  C   UNL     1      33.802  -5.960 -22.826  0.00  0.00    +0.011 C 
ATOM     28  C   UNL     1      33.222  -4.895 -23.519  0.00  0.00    +0.048 C 
ATOM     29  C   UNL     1      32.114  -5.133 -21.573  0.00  0.00    +0.058 C 
ATOM     30  C   UNL     1      34.887  -6.641 -23.415  0.00  0.00    +0.001 C 
ATOM     31  C   UNL     1      33.674  -4.474 -24.775  0.00  0.00    +0.015 C 
ATOM     32  C   UNL     1      35.350  -6.232 -24.671  0.00  0.00    +0.000 C 
ATOM     33  C   UNL     1      34.751  -5.165 -25.339  0.00  0.00    +0.001 C 
ATOM     34  H   UNL     1      31.615  -3.658 -22.973  0.00  0.00    +0.152 HD
ENDBRANCH  24  26
ENDBRANCH  19  24
ENDBRANCH  18  19
ENDBRANCH   1  18
TORSDOF 7
ENDMDL
MODEL 9
REMARK VINA RESULT:     -10.5      2.402      8.359
REMARK  Name = 6914614
REMARK  7 active torsions:
REMARK  status: ('A' for Active; 'I' for Inactive)
REMARK    1  A    between atoms: O_1  and  C_4
REMARK    2  A    between atoms: O_1  and  C_18
REMARK    3  A    between atoms: C_9  and  C_13
REMARK    4  A    between atoms: C_18  and  C_19
REMARK    5  A    between atoms: C_19  and  N_20
REMARK    6  A    between atoms: C_19  and  C_24
REMARK    7  A    between atoms: C_24  and  C_26
REMARK                            x       y       z     vdW  Elec       q    Type
REMARK                         _______ _______ _______ _____ _____    ______ ____
ROOT
ATOM      1  O   UNL     1      33.171 -22.536 -17.539  0.00  0.00    -0.476 OA
ENDROOT
BRANCH   1   4
ATOM      2  N   UNL     1      35.794 -19.882 -20.603  0.00  0.00    -0.404 NA
ATOM      3  N   UNL     1      36.751 -22.013 -17.798  0.00  0.00    -0.258 NA
ATOM      4  C   UNL     1      34.352 -22.057 -18.013  0.00  0.00    +0.159 C 
ATOM      5  C   UNL     1      34.424 -21.186 -19.108  0.00  0.00    +0.063 C 
ATOM      6  C   UNL     1      35.671 -20.721 -19.555  0.00  0.00    +0.136 C 
ATOM      7  C   UNL     1      33.277 -20.752 -19.786  0.00  0.00    +0.008 C 
ATOM      8  C   UNL     1      35.533 -22.435 -17.401  0.00  0.00    +0.130 C 
ATOM      9  C   UNL     1      34.663 -19.486 -21.232  0.00  0.00    +0.131 C 
ATOM     10  C   UNL     1      33.394 -19.889 -20.868  0.00  0.00    +0.032 C 
ATOM     11  C   UNL     1      36.780 -21.172 -18.858  0.00  0.00    +0.184 C 
BRANCH   9  13
ATOM     12  N   UNL     1      35.270 -16.849 -24.499  0.00  0.00    -0.242 NA
ATOM     13  C   UNL     1      34.870 -18.589 -22.344  0.00  0.00    +0.033 C 
ATOM     14  C   UNL     1      35.473 -17.351 -22.142  0.00  0.00    +0.023 C 
ATOM     15  C   UNL     1      34.467 -18.955 -23.625  0.00  0.00    +0.023 C 
ATOM     16  C   UNL     1      35.650 -16.526 -23.242  0.00  0.00    +0.099 C 
ATOM     17  C   UNL     1      34.687 -18.058 -24.658  0.00  0.00    +0.099 C 
ENDBRANCH   9  13
ENDBRANCH   1   4
BRANCH   1  18
ATOM     18  C   UNL     1      33.233 -23.627 -16.620  0.00  0.00    +0.184 C 
BRANCH  18  19
ATOM     19  C   UNL     1      33.296 -23.144 -15.166  0.00  0.00    -0.017 C 
BRANCH  19  20
ATOM     20  N   UNL     1      31.995 -22.569 -14.806  0.00  0.00    +0.384 N 
ATOM     21  H   UNL     1      32.078 -22.063 -13.923  0.00  0.00    -0.089 HD
ATOM     22  H   UNL     1      31.309 -23.316 -14.705  0.00  0.00    -0.089 HD
ATOM     23  H   UNL     1      31.693 -21.926 -15.538  0.00  0.00    -0.089 HD
ENDBRANCH  19  20
BRANCH  19  24
ATOM     24  C   UNL     1      33.640 -24.251 -14.151  0.00  0.00    +0.009 C 
BRANCH  24  26
ATOM     25  N   UNL     1      37.024 -25.514 -14.684  0.00  0.00    -0.312 N 
ATOM     26  C   UNL     1      35.097 -24.619 -14.133  0.00  0.00    -0.008 C 
ATOM     27  C   UNL     1      36.040 -24.194 -13.179  0.00  0.00    +0.011 C 
ATOM     28  C   UNL     1      37.257 -24.772 -13.547  0.00  0.00    +0.048 C 
ATOM     29  C   UNL     1      35.707 -25.423 -15.046  0.00  0.00    +0.058 C 
ATOM     30  C   UNL     1      35.999 -23.374 -12.033  0.00  0.00    +0.001 C 
ATOM     31  C   UNL     1      38.439 -24.571 -12.826  0.00  0.00    +0.015 C 
ATOM     32  C   UNL     1      37.173 -23.163 -11.301  0.00  0.00    +0.000 C 
ATOM     33  C   UNL     1      38.373 -23.754 -11.693  0.00  0.00    +0.001 C 
ATOM     34  H   UNL     1      37.707 -26.033 -15.167  0.00  0.00    +0.152 HD
ENDBRANCH  24  26
ENDBRANCH  19  24
ENDBRANCH  18  19
ENDBRANCH   1  18
TORSDOF 7
ENDMDL
