MODEL 1
REMARK VINA RESULT:     -11.5      0.000      0.000
REMARK  Name = 24832041
REMARK  6 active torsions:
REMARK  status: ('A' for Active; 'I' for Inactive)
REMARK    1  A    between atoms: C_1  and  C_18
REMARK    2  A    between atoms: C_4  and  C_7
REMARK    3  A    between atoms: C_10  and  C_15
REMARK    4  A    between atoms: C_18  and  N_19
REMARK    5  A    between atoms: C_18  and  C_23
REMARK    6  A    between atoms: C_23  and  C_26
REMARK                            x       y       z     vdW  Elec       q    Type
REMARK                         _______ _______ _______ _____ _____    ______ ____
ROOT
ATOM      1  C   UNL     1      34.613 -19.639 -21.394  0.00  0.00    -0.042 C 
ATOM      2  C   UNL     1      35.686 -20.192 -20.696  0.00  0.00    -0.006 C 
ATOM      3  C   UNL     1      33.307 -19.864 -20.957  0.00  0.00    -0.006 C 
ATOM      4  C   UNL     1      34.150 -21.197 -19.125  0.00  0.00    -0.000 C 
ATOM      5  C   UNL     1      35.455 -20.971 -19.562  0.00  0.00    -0.000 C 
ATOM      6  C   UNL     1      33.076 -20.643 -19.823  0.00  0.00    -0.000 C 
ENDROOT
BRANCH   4   7
ATOM      7  C   UNL     1      33.910 -22.003 -17.949  0.00  0.00    +0.000 C 
ATOM      8  C   UNL     1      32.603 -22.311 -17.569  0.00  0.00    +0.005 C 
ATOM      9  C   UNL     1      34.985 -22.473 -17.195  0.00  0.00    +0.000 C 
ATOM     10  C   UNL     1      32.372 -23.089 -16.434  0.00  0.00    +0.053 C 
ATOM     11  C   UNL     1      34.753 -23.251 -16.060  0.00  0.00    +0.000 C 
ATOM     12  C   UNL     1      33.447 -23.559 -15.680  0.00  0.00    +0.005 C 
BRANCH  10  15
ATOM     13  O   UNL     1      30.767 -24.354 -15.263  0.00  0.00    -0.270 OA
ATOM     14  N   UNL     1      29.984 -22.621 -16.543  0.00  0.00    -0.325 N 
ATOM     15  C   UNL     1      31.011 -23.413 -16.038  0.00  0.00    +0.243 C 
ATOM     16  H   UNL     1      29.049 -22.810 -16.298  0.00  0.00    +0.145 HD
ATOM     17  H   UNL     1      30.191 -21.870 -17.146  0.00  0.00    +0.145 HD
ENDBRANCH  10  15
ENDBRANCH   4   7
BRANCH   1  18
ATOM     18  C   UNL     1      34.859 -18.806 -22.605  0.00  0.00    -0.038 C 
BRANCH  18  19
ATOM     19  N   UNL     1      35.257 -19.626 -23.770  0.00  0.00    +0.384 N 
ATOM     20  H   UNL     1      34.747 -19.313 -24.597  0.00  0.00    -0.089 HD
ATOM     21  H   UNL     1      35.039 -20.606 -23.587  0.00  0.00    -0.089 HD
ATOM     22  H   UNL     1      36.259 -19.525 -23.932  0.00  0.00    -0.089 HD
ENDBRANCH  18  19
BRANCH  18  23
ATOM     23  C   UNL     1      35.933 -17.696 -22.410  0.00  0.00    +0.011 C 
BRANCH  23  26
ATOM     24  F   UNL     1      35.528 -16.496 -24.948  0.00  0.00    -0.205 F 
ATOM     25  F   UNL     1      34.182 -13.532 -20.552  0.00  0.00    -0.204 F 
ATOM     26  C   UNL     1      35.373 -16.303 -22.587  0.00  0.00    +0.006 C 
ATOM     27  C   UNL     1      35.200 -15.776 -23.866  0.00  0.00    +0.136 C 
ATOM     28  C   UNL     1      35.029 -15.546 -21.467  0.00  0.00    +0.028 C 
ATOM     29  C   UNL     1      34.512 -14.260 -21.627  0.00  0.00    +0.140 C 
ATOM     30  C   UNL     1      34.683 -14.489 -24.026  0.00  0.00    +0.032 C 
ATOM     31  C   UNL     1      34.339 -13.732 -22.907  0.00  0.00    +0.032 C 
ENDBRANCH  23  26
ENDBRANCH  18  23
ENDBRANCH   1  18
TORSDOF 6
ENDMDL
MODEL 2
REMARK VINA RESULT:     -11.4      2.052      2.650
REMARK  Name = 24832041
REMARK  6 active torsions:
REMARK  status: ('A' for Active; 'I' for Inactive)
REMARK    1  A    between atoms: C_1  and  C_18
REMARK    2  A    between atoms: C_4  and  C_7
REMARK    3  A    between atoms: C_10  and  C_15
REMARK    4  A    between atoms: C_18  and  N_19
REMARK    5  A    between atoms: C_18  and  C_23
REMARK    6  A    between atoms: C_23  and  C_26
REMARK                            x       y       z     vdW  Elec       q    Type
REMARK                         _______ _______ _______ _____ _____    ______ ____
ROOT
ATOM      1  C   UNL     1      34.791 -19.628 -21.401  0.00  0.00    -0.042 C 
ATOM      2  C   UNL     1      33.537 -19.953 -20.884  0.00  0.00    -0.006 C 
ATOM      3  C   UNL     1      35.946 -20.100 -20.778  0.00  0.00    -0.006 C 
ATOM      4  C   UNL     1      34.594 -21.222 -19.119  0.00  0.00    -0.000 C 
ATOM      5  C   UNL     1      33.438 -20.750 -19.743  0.00  0.00    -0.000 C 
ATOM      6  C   UNL     1      35.848 -20.897 -19.638  0.00  0.00    -0.000 C 
ENDROOT
BRANCH   4   7
ATOM      7  C   UNL     1      34.491 -22.049 -17.938  0.00  0.00    +0.000 C 
ATOM      8  C   UNL     1      35.583 -22.178 -17.080  0.00  0.00    +0.005 C 
ATOM      9  C   UNL     1      33.300 -22.718 -17.656  0.00  0.00    +0.000 C 
ATOM     10  C   UNL     1      35.485 -22.976 -15.940  0.00  0.00    +0.053 C 
ATOM     11  C   UNL     1      33.201 -23.516 -16.516  0.00  0.00    +0.000 C 
ATOM     12  C   UNL     1      34.293 -23.645 -15.658  0.00  0.00    +0.005 C 
BRANCH  10  15
ATOM     13  O   UNL     1      36.483 -23.065 -13.808  0.00  0.00    -0.270 OA
ATOM     14  N   UNL     1      37.876 -23.308 -15.614  0.00  0.00    -0.325 N 
ATOM     15  C   UNL     1      36.622 -23.110 -15.043  0.00  0.00    +0.243 C 
ATOM     16  H   UNL     1      38.669 -23.402 -15.038  0.00  0.00    +0.145 HD
ATOM     17  H   UNL     1      37.970 -23.354 -16.593  0.00  0.00    +0.145 HD
ENDBRANCH  10  15
ENDBRANCH   4   7
BRANCH   1  18
ATOM     18  C   UNL     1      34.897 -18.777 -22.620  0.00  0.00    -0.038 C 
BRANCH  18  19
ATOM     19  N   UNL     1      35.192 -19.575 -23.830  0.00  0.00    +0.384 N 
ATOM     20  H   UNL     1      36.105 -20.019 -23.731  0.00  0.00    -0.089 HD
ATOM     21  H   UNL     1      35.197 -18.964 -24.647  0.00  0.00    -0.089 HD
ATOM     22  H   UNL     1      34.477 -20.293 -23.947  0.00  0.00    -0.089 HD
ENDBRANCH  18  19
BRANCH  18  23
ATOM     23  C   UNL     1      35.963 -17.647 -22.520  0.00  0.00    +0.011 C 
BRANCH  23  26
ATOM     24  F   UNL     1      35.448 -16.436 -25.033  0.00  0.00    -0.205 F 
ATOM     25  F   UNL     1      34.181 -13.538 -20.571  0.00  0.00    -0.204 F 
ATOM     26  C   UNL     1      35.367 -16.265 -22.667  0.00  0.00    +0.006 C 
ATOM     27  C   UNL     1      35.140 -15.732 -23.935  0.00  0.00    +0.136 C 
ATOM     28  C   UNL     1      35.043 -15.525 -21.530  0.00  0.00    +0.028 C 
ATOM     29  C   UNL     1      34.492 -14.250 -21.662  0.00  0.00    +0.140 C 
ATOM     30  C   UNL     1      34.590 -14.457 -24.067  0.00  0.00    +0.032 C 
ATOM     31  C   UNL     1      34.265 -13.716 -22.931  0.00  0.00    +0.032 C 
ENDBRANCH  23  26
ENDBRANCH  18  23
ENDBRANCH   1  18
TORSDOF 6
ENDMDL
MODEL 3
REMARK VINA RESULT:     -11.3      4.699      9.507
REMARK  Name = 24832041
REMARK  6 active torsions:
REMARK  status: ('A' for Active; 'I' for Inactive)
REMARK    1  A    between atoms: C_1  and  C_18
REMARK    2  A    between atoms: C_4  and  C_7
REMARK    3  A    between atoms: C_10  and  C_15
REMARK    4  A    between atoms: C_18  and  N_19
REMARK    5  A    between atoms: C_18  and  C_23
REMARK    6  A    between atoms: C_23  and  C_26
REMARK                            x       y       z     vdW  Elec       q    Type
REMARK                         _______ _______ _______ _____ _____    ______ ____
ROOT
ATOM      1  C   UNL     1      35.388 -16.539 -22.193  0.00  0.00    -0.042 C 
ATOM      2  C   UNL     1      35.018 -15.686 -21.154  0.00  0.00    -0.006 C 
ATOM      3  C   UNL     1      35.303 -16.105 -23.516  0.00  0.00    -0.006 C 
ATOM      4  C   UNL     1      34.478 -13.963 -22.760  0.00  0.00    -0.000 C 
ATOM      5  C   UNL     1      34.563 -14.398 -21.437  0.00  0.00    -0.000 C 
ATOM      6  C   UNL     1      34.848 -14.817 -23.800  0.00  0.00    -0.000 C 
ENDROOT
BRANCH   4   7
ATOM      7  C   UNL     1      34.007 -12.628 -23.054  0.00  0.00    +0.000 C 
ATOM      8  C   UNL     1      33.053 -12.028 -22.230  0.00  0.00    +0.005 C 
ATOM      9  C   UNL     1      34.505 -11.940 -24.159  0.00  0.00    +0.000 C 
ATOM     10  C   UNL     1      32.598 -10.740 -22.513  0.00  0.00    +0.053 C 
ATOM     11  C   UNL     1      34.050 -10.651 -24.442  0.00  0.00    +0.000 C 
ATOM     12  C   UNL     1      33.097 -10.051 -23.619  0.00  0.00    +0.005 C 
BRANCH  10  15
ATOM     13  O   UNL     1      31.565  -8.879 -21.505  0.00  0.00    -0.270 OA
ATOM     14  N   UNL     1      30.688 -10.940 -21.014  0.00  0.00    -0.325 N 
ATOM     15  C   UNL     1      31.606 -10.113 -21.654  0.00  0.00    +0.243 C 
ATOM     16  H   UNL     1      30.002 -10.551 -20.424  0.00  0.00    +0.145 HD
ATOM     17  H   UNL     1      30.724 -11.914 -21.151  0.00  0.00    +0.145 HD
ENDBRANCH  10  15
ENDBRANCH   4   7
BRANCH   1  18
ATOM     18  C   UNL     1      35.875 -17.915 -21.891  0.00  0.00    -0.038 C 
BRANCH  18  19
ATOM     19  N   UNL     1      37.028 -18.293 -22.737  0.00  0.00    +0.384 N 
ATOM     20  H   UNL     1      37.886 -17.919 -22.330  0.00  0.00    -0.089 HD
ATOM     21  H   UNL     1      36.902 -17.910 -23.675  0.00  0.00    -0.089 HD
ATOM     22  H   UNL     1      37.093 -19.309 -22.790  0.00  0.00    -0.089 HD
ENDBRANCH  18  19
BRANCH  18  23
ATOM     23  C   UNL     1      34.792 -19.023 -22.034  0.00  0.00    +0.011 C 
BRANCH  23  26
ATOM     24  F   UNL     1      32.382 -19.976 -20.880  0.00  0.00    -0.205 F 
ATOM     25  F   UNL     1      37.065 -21.691 -18.633  0.00  0.00    -0.204 F 
ATOM     26  C   UNL     1      34.756 -19.963 -20.851  0.00  0.00    +0.006 C 
ATOM     27  C   UNL     1      33.534 -20.392 -20.335  0.00  0.00    +0.136 C 
ATOM     28  C   UNL     1      35.949 -20.402 -20.277  0.00  0.00    +0.028 C 
ATOM     29  C   UNL     1      35.920 -21.270 -19.185  0.00  0.00    +0.140 C 
ATOM     30  C   UNL     1      33.505 -21.260 -19.242  0.00  0.00    +0.032 C 
ATOM     31  C   UNL     1      34.697 -21.699 -18.668  0.00  0.00    +0.032 C 
ENDBRANCH  23  26
ENDBRANCH  18  23
ENDBRANCH   1  18
TORSDOF 6
ENDMDL
MODEL 4
REMARK VINA RESULT:     -11.3      2.287      3.198
REMARK  Name = 24832041
REMARK  6 active torsions:
REMARK  status: ('A' for Active; 'I' for Inactive)
REMARK    1  A    between atoms: C_1  and  C_18
REMARK    2  A    between atoms: C_4  and  C_7
REMARK    3  A    between atoms: C_10  and  C_15
REMARK    4  A    between atoms: C_18  and  N_19
REMARK    5  A    between atoms: C_18  and  C_23
REMARK    6  A    between atoms: C_23  and  C_26
REMARK                            x       y       z     vdW  Elec       q    Type
REMARK                         _______ _______ _______ _____ _____    ______ ____
ROOT
ATOM      1  C   UNL     1      34.758 -19.481 -21.630  0.00  0.00    -0.042 C 
ATOM      2  C   UNL     1      33.532 -19.853 -21.080  0.00  0.00    -0.006 C 
ATOM      3  C   UNL     1      35.946 -19.904 -21.034  0.00  0.00    -0.006 C 
ATOM      4  C   UNL     1      34.682 -21.073 -19.339  0.00  0.00    -0.000 C 
ATOM      5  C   UNL     1      33.493 -20.649 -19.935  0.00  0.00    -0.000 C 
ATOM      6  C   UNL     1      35.908 -20.699 -19.889  0.00  0.00    -0.000 C 
ENDROOT
BRANCH   4   7
ATOM      7  C   UNL     1      34.641 -21.898 -18.152  0.00  0.00    +0.000 C 
ATOM      8  C   UNL     1      35.778 -22.026 -17.353  0.00  0.00    +0.005 C 
ATOM      9  C   UNL     1      33.467 -22.566 -17.807  0.00  0.00    +0.000 C 
ATOM     10  C   UNL     1      35.740 -22.822 -16.208  0.00  0.00    +0.053 C 
ATOM     11  C   UNL     1      33.429 -23.362 -16.662  0.00  0.00    +0.000 C 
ATOM     12  C   UNL     1      34.565 -23.491 -15.863  0.00  0.00    +0.005 C 
BRANCH  10  15
ATOM     13  O   UNL     1      36.834 -23.212 -14.160  0.00  0.00    -0.270 OA
ATOM     14  N   UNL     1      38.165 -22.801 -15.981  0.00  0.00    -0.325 N 
ATOM     15  C   UNL     1      36.923 -22.955 -15.373  0.00  0.00    +0.243 C 
ATOM     16  H   UNL     1      38.988 -22.883 -15.448  0.00  0.00    +0.145 HD
ATOM     17  H   UNL     1      38.221 -22.610 -16.946  0.00  0.00    +0.145 HD
ENDBRANCH  10  15
ENDBRANCH   4   7
BRANCH   1  18
ATOM     18  C   UNL     1      34.800 -18.631 -22.854  0.00  0.00    -0.038 C 
BRANCH  18  19
ATOM     19  N   UNL     1      35.086 -19.424 -24.069  0.00  0.00    +0.384 N 
ATOM     20  H   UNL     1      36.068 -19.316 -24.323  0.00  0.00    -0.089 HD
ATOM     21  H   UNL     1      34.499 -19.095 -24.836  0.00  0.00    -0.089 HD
ATOM     22  H   UNL     1      34.889 -20.408 -23.889  0.00  0.00    -0.089 HD
ENDBRANCH  18  19
BRANCH  18  23
ATOM     23  C   UNL     1      35.829 -17.465 -22.788  0.00  0.00    +0.011 C 
BRANCH  23  26
ATOM     24  F   UNL     1      35.189 -15.744 -20.627  0.00  0.00    -0.205 F 
ATOM     25  F   UNL     1      34.002 -13.963 -25.661  0.00  0.00    -0.204 F 
ATOM     26  C   UNL     1      35.188 -16.109 -22.973  0.00  0.00    +0.006 C 
ATOM     27  C   UNL     1      34.901 -15.314 -21.864  0.00  0.00    +0.136 C 
ATOM     28  C   UNL     1      34.885 -15.653 -24.256  0.00  0.00    +0.028 C 
ATOM     29  C   UNL     1      34.294 -14.401 -24.430  0.00  0.00    +0.140 C 
ATOM     30  C   UNL     1      34.309 -14.062 -22.038  0.00  0.00    +0.032 C 
ATOM     31  C   UNL     1      34.006 -13.606 -23.320  0.00  0.00    +0.032 C 
ENDBRANCH  23  26
ENDBRANCH  18  23
ENDBRANCH   1  18
TORSDOF 6
ENDMDL
MODEL 5
REMARK VINA RESULT:     -11.3      4.563      9.089
REMARK  Name = 24832041
REMARK  6 active torsions:
REMARK  status: ('A' for Active; 'I' for Inactive)
REMARK    1  A    between atoms: C_1  and  C_18
REMARK    2  A    between atoms: C_4  and  C_7
REMARK    3  A    between atoms: C_10  and  C_15
REMARK    4  A    between atoms: C_18  and  N_19
REMARK    5  A    between atoms: C_18  and  C_23
REMARK    6  A    between atoms: C_23  and  C_26
REMARK                            x       y       z     vdW  Elec       q    Type
REMARK                         _______ _______ _______ _____ _____    ______ ____
ROOT
ATOM      1  C   UNL     1      33.991 -22.137 -18.262  0.00  0.00    -0.042 C 
ATOM      2  C   UNL     1      35.360 -22.052 -18.512  0.00  0.00    -0.006 C 
ATOM      3  C   UNL     1      33.098 -21.359 -18.999  0.00  0.00    -0.006 C 
ATOM      4  C   UNL     1      34.944 -20.411 -20.238  0.00  0.00    -0.000 C 
ATOM      5  C   UNL     1      35.837 -21.190 -19.500  0.00  0.00    -0.000 C 
ATOM      6  C   UNL     1      33.574 -20.497 -19.986  0.00  0.00    -0.000 C 
ENDROOT
BRANCH   4   7
ATOM      7  C   UNL     1      35.439 -19.518 -21.261  0.00  0.00    +0.000 C 
ATOM      8  C   UNL     1      34.630 -19.190 -22.350  0.00  0.00    +0.005 C 
ATOM      9  C   UNL     1      36.723 -18.986 -21.161  0.00  0.00    +0.000 C 
ATOM     10  C   UNL     1      35.107 -18.328 -23.338  0.00  0.00    +0.053 C 
ATOM     11  C   UNL     1      37.200 -18.124 -22.150  0.00  0.00    +0.000 C 
ATOM     12  C   UNL     1      36.393 -17.795 -23.238  0.00  0.00    +0.005 C 
BRANCH  10  15
ATOM     13  O   UNL     1      34.526 -17.011 -25.202  0.00  0.00    -0.270 OA
ATOM     14  N   UNL     1      33.160 -18.790 -24.727  0.00  0.00    -0.325 N 
ATOM     15  C   UNL     1      34.264 -17.983 -24.472  0.00  0.00    +0.243 C 
ATOM     16  H   UNL     1      32.566 -18.587 -25.486  0.00  0.00    +0.145 HD
ATOM     17  H   UNL     1      32.971 -19.565 -24.149  0.00  0.00    +0.145 HD
ENDBRANCH  10  15
ENDBRANCH   4   7
BRANCH   1  18
ATOM     18  C   UNL     1      33.481 -23.059 -17.208  0.00  0.00    -0.038 C 
BRANCH  18  19
ATOM     19  N   UNL     1      32.003 -23.105 -17.180  0.00  0.00    +0.384 N 
ATOM     20  H   UNL     1      31.652 -22.403 -16.528  0.00  0.00    -0.089 HD
ATOM     21  H   UNL     1      31.698 -24.031 -16.878  0.00  0.00    -0.089 HD
ATOM     22  H   UNL     1      31.638 -22.915 -18.113  0.00  0.00    -0.089 HD
ENDBRANCH  18  19
BRANCH  18  23
ATOM     23  C   UNL     1      33.977 -22.725 -15.771  0.00  0.00    +0.011 C 
BRANCH  23  26
ATOM     24  F   UNL     1      36.484 -21.409 -15.594  0.00  0.00    -0.205 F 
ATOM     25  F   UNL     1      36.418 -26.784 -14.579  0.00  0.00    -0.204 F 
ATOM     26  C   UNL     1      35.262 -23.437 -15.415  0.00  0.00    +0.006 C 
ATOM     27  C   UNL     1      36.460 -22.726 -15.346  0.00  0.00    +0.136 C 
ATOM     28  C   UNL     1      35.247 -24.807 -15.156  0.00  0.00    +0.028 C 
ATOM     29  C   UNL     1      36.432 -25.468 -14.828  0.00  0.00    +0.140 C 
ATOM     30  C   UNL     1      37.644 -23.387 -15.018  0.00  0.00    +0.032 C 
ATOM     31  C   UNL     1      37.631 -24.757 -14.758  0.00  0.00    +0.032 C 
ENDBRANCH  23  26
ENDBRANCH  18  23
ENDBRANCH   1  18
TORSDOF 6
ENDMDL
MODEL 6
REMARK VINA RESULT:     -11.2      4.665      9.471
REMARK  Name = 24832041
REMARK  6 active torsions:
REMARK  status: ('A' for Active; 'I' for Inactive)
REMARK    1  A    between atoms: C_1  and  C_18
REMARK    2  A    between atoms: C_4  and  C_7
REMARK    3  A    between atoms: C_10  and  C_15
REMARK    4  A    between atoms: C_18  and  N_19
REMARK    5  A    between atoms: C_18  and  C_23
REMARK    6  A    between atoms: C_23  and  C_26
REMARK                            x       y       z     vdW  Elec       q    Type
REMARK                         _______ _______ _______ _____ _____    ______ ____
ROOT
ATOM      1  C   UNL     1      33.862 -22.015 -18.373  0.00  0.00    -0.042 C 
ATOM      2  C   UNL     1      32.993 -21.267 -19.166  0.00  0.00    -0.006 C 
ATOM      3  C   UNL     1      35.240 -21.906 -18.554  0.00  0.00    -0.006 C 
ATOM      4  C   UNL     1      34.881 -20.301 -20.325  0.00  0.00    -0.000 C 
ATOM      5  C   UNL     1      33.502 -20.410 -20.142  0.00  0.00    -0.000 C 
ATOM      6  C   UNL     1      35.750 -21.050 -19.530  0.00  0.00    -0.000 C 
ENDROOT
BRANCH   4   7
ATOM      7  C   UNL     1      35.409 -19.412 -21.335  0.00  0.00    +0.000 C 
ATOM      8  C   UNL     1      34.617 -19.048 -22.425  0.00  0.00    +0.005 C 
ATOM      9  C   UNL     1      36.708 -18.919 -21.221  0.00  0.00    +0.000 C 
ATOM     10  C   UNL     1      35.126 -18.190 -23.401  0.00  0.00    +0.053 C 
ATOM     11  C   UNL     1      37.217 -18.062 -22.197  0.00  0.00    +0.000 C 
ATOM     12  C   UNL     1      36.427 -17.697 -23.287  0.00  0.00    +0.005 C 
BRANCH  10  15
ATOM     13  O   UNL     1      34.573 -16.811 -25.228  0.00  0.00    -0.270 OA
ATOM     14  N   UNL     1      33.204 -18.608 -24.838  0.00  0.00    -0.325 N 
ATOM     15  C   UNL     1      34.302 -17.808 -24.536  0.00  0.00    +0.243 C 
ATOM     16  H   UNL     1      32.622 -18.380 -25.599  0.00  0.00    +0.145 HD
ATOM     17  H   UNL     1      33.008 -19.403 -24.290  0.00  0.00    +0.145 HD
ENDBRANCH  10  15
ENDBRANCH   4   7
BRANCH   1  18
ATOM     18  C   UNL     1      33.318 -22.931 -17.329  0.00  0.00    -0.038 C 
BRANCH  18  19
ATOM     19  N   UNL     1      33.286 -24.337 -17.787  0.00  0.00    +0.384 N 
ATOM     20  H   UNL     1      32.518 -24.827 -17.328  0.00  0.00    -0.089 HD
ATOM     21  H   UNL     1      34.169 -24.791 -17.551  0.00  0.00    -0.089 HD
ATOM     22  H   UNL     1      33.150 -24.363 -18.797  0.00  0.00    -0.089 HD
ENDBRANCH  18  19
BRANCH  18  23
ATOM     23  C   UNL     1      31.892 -22.556 -16.829  0.00  0.00    +0.011 C 
BRANCH  23  26
ATOM     24  F   UNL     1      33.418 -22.456 -14.441  0.00  0.00    -0.205 F 
ATOM     25  F   UNL     1      28.866 -25.487 -14.359  0.00  0.00    -0.204 F 
ATOM     26  C   UNL     1      31.503 -23.291 -15.567  0.00  0.00    +0.006 C 
ATOM     27  C   UNL     1      32.301 -23.197 -14.428  0.00  0.00    +0.136 C 
ATOM     28  C   UNL     1      30.342 -24.064 -15.545  0.00  0.00    +0.028 C 
ATOM     29  C   UNL     1      29.980 -24.744 -14.382  0.00  0.00    +0.140 C 
ATOM     30  C   UNL     1      31.939 -23.877 -13.265  0.00  0.00    +0.032 C 
ATOM     31  C   UNL     1      30.778 -24.650 -13.241  0.00  0.00    +0.032 C 
ENDBRANCH  23  26
ENDBRANCH  18  23
ENDBRANCH   1  18
TORSDOF 6
ENDMDL
MODEL 7
REMARK VINA RESULT:     -11.1      4.833      9.924
REMARK  Name = 24832041
REMARK  6 active torsions:
REMARK  status: ('A' for Active; 'I' for Inactive)
REMARK    1  A    between atoms: C_1  and  C_18
REMARK    2  A    between atoms: C_4  and  C_7
REMARK    3  A    between atoms: C_10  and  C_15
REMARK    4  A    between atoms: C_18  and  N_19
REMARK    5  A    between atoms: C_18  and  C_23
REMARK    6  A    between atoms: C_23  and  C_26
REMARK                            x       y       z     vdW  Elec       q    Type
REMARK                         _______ _______ _______ _____ _____    ______ ____
ROOT
ATOM      1  C   UNL     1      35.531 -17.084 -22.018  0.00  0.00    -0.042 C 
ATOM      2  C   UNL     1      35.508 -17.181 -23.409  0.00  0.00    -0.006 C 
ATOM      3  C   UNL     1      35.156 -15.893 -21.396  0.00  0.00    -0.006 C 
ATOM      4  C   UNL     1      34.736 -14.895 -23.557  0.00  0.00    -0.000 C 
ATOM      5  C   UNL     1      35.111 -16.087 -24.179  0.00  0.00    -0.000 C 
ATOM      6  C   UNL     1      34.759 -14.799 -22.165  0.00  0.00    -0.000 C 
ENDROOT
BRANCH   4   7
ATOM      7  C   UNL     1      34.324 -13.762 -24.354  0.00  0.00    +0.000 C 
ATOM      8  C   UNL     1      34.479 -12.467 -23.858  0.00  0.00    +0.005 C 
ATOM      9  C   UNL     1      33.772 -13.963 -25.618  0.00  0.00    +0.000 C 
ATOM     10  C   UNL     1      34.081 -11.373 -24.627  0.00  0.00    +0.053 C 
ATOM     11  C   UNL     1      33.374 -12.869 -26.387  0.00  0.00    +0.000 C 
ATOM     12  C   UNL     1      33.528 -11.575 -25.892  0.00  0.00    +0.005 C 
BRANCH  10  15
ATOM     13  O   UNL     1      33.283  -9.388 -23.643  0.00  0.00    -0.270 OA
ATOM     14  N   UNL     1      35.519  -9.467 -24.144  0.00  0.00    -0.325 N 
ATOM     15  C   UNL     1      34.243 -10.023 -24.112  0.00  0.00    +0.243 C 
ATOM     16  H   UNL     1      35.667  -8.555 -23.805  0.00  0.00    +0.145 HD
ATOM     17  H   UNL     1      36.273  -9.986 -24.506  0.00  0.00    +0.145 HD
ENDBRANCH  10  15
ENDBRANCH   4   7
BRANCH   1  18
ATOM     18  C   UNL     1      35.954 -18.253 -21.196  0.00  0.00    -0.038 C 
BRANCH  18  19
ATOM     19  N   UNL     1      37.410 -18.496 -21.285  0.00  0.00    +0.384 N 
ATOM     20  H   UNL     1      37.778 -18.055 -22.129  0.00  0.00    -0.089 HD
ATOM     21  H   UNL     1      37.585 -19.501 -21.322  0.00  0.00    -0.089 HD
ATOM     22  H   UNL     1      37.872 -18.100 -20.467  0.00  0.00    -0.089 HD
ENDBRANCH  18  19
BRANCH  18  23
ATOM     23  C   UNL     1      35.223 -19.581 -21.548  0.00  0.00    +0.011 C 
BRANCH  23  26
ATOM     24  F   UNL     1      32.624 -20.339 -20.704  0.00  0.00    -0.205 F 
ATOM     25  F   UNL     1      36.834 -22.158 -17.724  0.00  0.00    -0.204 F 
ATOM     26  C   UNL     1      34.966 -20.447 -20.336  0.00  0.00    +0.006 C 
ATOM     27  C   UNL     1      33.660 -20.781 -19.979  0.00  0.00    +0.136 C 
ATOM     28  C   UNL     1      36.039 -20.912 -19.575  0.00  0.00    +0.028 C 
ATOM     29  C   UNL     1      35.805 -21.712 -18.456  0.00  0.00    +0.140 C 
ATOM     30  C   UNL     1      33.427 -21.580 -18.860  0.00  0.00    +0.032 C 
ATOM     31  C   UNL     1      34.498 -22.046 -18.098  0.00  0.00    +0.032 C 
ENDBRANCH  23  26
ENDBRANCH  18  23
ENDBRANCH   1  18
TORSDOF 6
ENDMDL
MODEL 8
REMARK VINA RESULT:     -10.7      5.011      9.907
REMARK  Name = 24832041
REMARK  6 active torsions:
REMARK  status: ('A' for Active; 'I' for Inactive)
REMARK    1  A    between atoms: C_1  and  C_18
REMARK    2  A    between atoms: C_4  and  C_7
REMARK    3  A    between atoms: C_10  and  C_15
REMARK    4  A    between atoms: C_18  and  N_19
REMARK    5  A    between atoms: C_18  and  C_23
REMARK    6  A    between atoms: C_23  and  C_26
REMARK                            x       y       z     vdW  Elec       q    Type
REMARK                         _______ _______ _______ _____ _____    ______ ____
ROOT
ATOM      1  C   UNL     1      35.404 -16.693 -22.007  0.00  0.00    -0.042 C 
ATOM      2  C   UNL     1      35.036 -15.908 -20.915  0.00  0.00    -0.006 C 
ATOM      3  C   UNL     1      35.282 -16.187 -23.302  0.00  0.00    -0.006 C 
ATOM      4  C   UNL     1      34.422 -14.111 -22.410  0.00  0.00    -0.000 C 
ATOM      5  C   UNL     1      34.545 -14.618 -21.116  0.00  0.00    -0.000 C 
ATOM      6  C   UNL     1      34.791 -14.897 -23.503  0.00  0.00    -0.000 C 
ENDROOT
BRANCH   4   7
ATOM      7  C   UNL     1      33.915 -12.774 -22.618  0.00  0.00    +0.000 C 
ATOM      8  C   UNL     1      34.630 -11.871 -23.405  0.00  0.00    +0.005 C 
ATOM      9  C   UNL     1      32.710 -12.386 -22.033  0.00  0.00    +0.000 C 
ATOM     10  C   UNL     1      34.140 -10.580 -23.606  0.00  0.00    +0.053 C 
ATOM     11  C   UNL     1      32.220 -11.096 -22.233  0.00  0.00    +0.000 C 
ATOM     12  C   UNL     1      32.935 -10.192 -23.020  0.00  0.00    +0.005 C 
BRANCH  10  15
ATOM     13  O   UNL     1      35.486 -10.006 -25.452  0.00  0.00    -0.270 OA
ATOM     14  N   UNL     1      34.887  -8.302 -24.040  0.00  0.00    -0.325 N 
ATOM     15  C   UNL     1      34.884  -9.639 -24.428  0.00  0.00    +0.243 C 
ATOM     16  H   UNL     1      35.381  -7.636 -24.571  0.00  0.00    +0.145 HD
ATOM     17  H   UNL     1      34.396  -8.022 -23.234  0.00  0.00    +0.145 HD
ENDBRANCH  10  15
ENDBRANCH   4   7
BRANCH   1  18
ATOM     18  C   UNL     1      35.929 -18.071 -21.793  0.00  0.00    -0.038 C 
BRANCH  18  19
ATOM     19  N   UNL     1      37.046 -18.387 -22.709  0.00  0.00    +0.384 N 
ATOM     20  H   UNL     1      36.721 -19.026 -23.436  0.00  0.00    -0.089 HD
ATOM     21  H   UNL     1      37.803 -18.827 -22.184  0.00  0.00    -0.089 HD
ATOM     22  H   UNL     1      37.387 -17.528 -23.141  0.00  0.00    -0.089 HD
ENDBRANCH  18  19
BRANCH  18  23
ATOM     23  C   UNL     1      34.859 -19.193 -21.936  0.00  0.00    +0.011 C 
BRANCH  23  26
ATOM     24  F   UNL     1      32.431 -20.116 -20.800  0.00  0.00    -0.205 F 
ATOM     25  F   UNL     1      37.074 -21.782 -18.437  0.00  0.00    -0.204 F 
ATOM     26  C   UNL     1      34.804 -20.105 -20.732  0.00  0.00    +0.006 C 
ATOM     27  C   UNL     1      33.573 -20.521 -20.226  0.00  0.00    +0.136 C 
ATOM     28  C   UNL     1      35.987 -20.531 -20.129  0.00  0.00    +0.028 C 
ATOM     29  C   UNL     1      35.939 -21.373 -19.017  0.00  0.00    +0.140 C 
ATOM     30  C   UNL     1      33.524 -21.363 -19.115  0.00  0.00    +0.032 C 
ATOM     31  C   UNL     1      34.707 -21.789 -18.511  0.00  0.00    +0.032 C 
ENDBRANCH  23  26
ENDBRANCH  18  23
ENDBRANCH   1  18
TORSDOF 6
ENDMDL
MODEL 9
REMARK VINA RESULT:     -10.6      1.286      1.500
REMARK  Name = 24832041
REMARK  6 active torsions:
REMARK  status: ('A' for Active; 'I' for Inactive)
REMARK    1  A    between atoms: C_1  and  C_18
REMARK    2  A    between atoms: C_4  and  C_7
REMARK    3  A    between atoms: C_10  and  C_15
REMARK    4  A    between atoms: C_18  and  N_19
REMARK    5  A    between atoms: C_18  and  C_23
REMARK    6  A    between atoms: C_23  and  C_26
REMARK                            x       y       z     vdW  Elec       q    Type
REMARK                         _______ _______ _______ _____ _____    ______ ____
ROOT
ATOM      1  C   UNL     1      35.456 -20.289 -20.470  0.00  0.00    -0.042 C 
ATOM      2  C   UNL     1      36.203 -20.999 -19.531  0.00  0.00    -0.006 C 
ATOM      3  C   UNL     1      34.063 -20.272 -20.385  0.00  0.00    -0.006 C 
ATOM      4  C   UNL     1      34.166 -21.677 -18.421  0.00  0.00    -0.000 C 
ATOM      5  C   UNL     1      35.558 -21.693 -18.507  0.00  0.00    -0.000 C 
ATOM      6  C   UNL     1      33.418 -20.966 -19.361  0.00  0.00    -0.000 C 
ENDROOT
BRANCH   4   7
ATOM      7  C   UNL     1      33.498 -22.396 -17.360  0.00  0.00    +0.000 C 
ATOM      8  C   UNL     1      32.107 -22.352 -17.255  0.00  0.00    +0.005 C 
ATOM      9  C   UNL     1      34.243 -23.132 -16.440  0.00  0.00    +0.000 C 
ATOM     10  C   UNL     1      31.463 -23.046 -16.230  0.00  0.00    +0.053 C 
ATOM     11  C   UNL     1      33.599 -23.826 -15.415  0.00  0.00    +0.000 C 
ATOM     12  C   UNL     1      32.209 -23.783 -15.310  0.00  0.00    +0.005 C 
BRANCH  10  15
ATOM     13  O   UNL     1      29.334 -22.224 -16.813  0.00  0.00    -0.270 OA
ATOM     14  N   UNL     1      29.405 -23.879 -15.228  0.00  0.00    -0.325 N 
ATOM     15  C   UNL     1      30.013 -23.003 -16.122  0.00  0.00    +0.243 C 
ATOM     16  H   UNL     1      28.425 -23.879 -15.127  0.00  0.00    +0.145 HD
ATOM     17  H   UNL     1      29.953 -24.501 -14.697  0.00  0.00    +0.145 HD
ENDBRANCH  10  15
ENDBRANCH   4   7
BRANCH   1  18
ATOM     18  C   UNL     1      36.144 -19.546 -21.564  0.00  0.00    -0.038 C 
BRANCH  18  19
ATOM     19  N   UNL     1      36.894 -18.378 -21.055  0.00  0.00    +0.384 N 
ATOM     20  H   UNL     1      36.481 -17.521 -21.422  0.00  0.00    -0.089 HD
ATOM     21  H   UNL     1      37.868 -18.442 -21.356  0.00  0.00    -0.089 HD
ATOM     22  H   UNL     1      36.854 -18.365 -20.036  0.00  0.00    -0.089 HD
ENDBRANCH  18  19
BRANCH  18  23
ATOM     23  C   UNL     1      35.196 -19.051 -22.695  0.00  0.00    +0.011 C 
BRANCH  23  26
ATOM     24  F   UNL     1      35.267 -17.640 -25.155  0.00  0.00    -0.205 F 
ATOM     25  F   UNL     1      34.875 -14.657 -20.587  0.00  0.00    -0.204 F 
ATOM     26  C   UNL     1      35.131 -17.543 -22.787  0.00  0.00    +0.006 C 
ATOM     27  C   UNL     1      35.171 -16.916 -24.031  0.00  0.00    +0.136 C 
ATOM     28  C   UNL     1      35.031 -16.781 -21.623  0.00  0.00    +0.028 C 
ATOM     29  C   UNL     1      34.971 -15.390 -21.703  0.00  0.00    +0.140 C 
ATOM     30  C   UNL     1      35.111 -15.524 -24.112  0.00  0.00    +0.032 C 
ATOM     31  C   UNL     1      35.010 -14.761 -22.949  0.00  0.00    +0.032 C 
ENDBRANCH  23  26
ENDBRANCH  18  23
ENDBRANCH   1  18
TORSDOF 6
ENDMDL
