MODEL 1
REMARK VINA RESULT:     -12.1      0.000      0.000
REMARK  Name = 204109
REMARK  5 active torsions:
REMARK  status: ('A' for Active; 'I' for Inactive)
REMARK    1  A    between atoms: C_1  and  C_20
REMARK    2  A    between atoms: C_9  and  O_11
REMARK    3  A    between atoms: O_11  and  C_12
REMARK    4  A    between atoms: C_12  and  C_14
REMARK    5  A    between atoms: C_20  and  C_25
REMARK                            x       y       z     vdW  Elec       q    Type
REMARK                         _______ _______ _______ _____ _____    ______ ____
ROOT
ATOM      1  C   UNL     1      33.900 -22.044 -18.680  0.00  0.00    -0.021 C 
ATOM      2  C   UNL     1      35.540 -20.626 -19.785  0.00  0.00    -0.000 C 
ATOM      3  C   UNL     1      35.225 -21.664 -18.892  0.00  0.00    -0.004 C 
ATOM      4  C   UNL     1      34.494 -19.965 -20.471  0.00  0.00    +0.003 C 
ATOM      5  C   UNL     1      32.872 -21.393 -19.355  0.00  0.00    -0.004 C 
ATOM      6  C   UNL     1      33.165 -20.360 -20.247  0.00  0.00    -0.000 C 
ATOM      7  C   UNL     1      34.808 -18.927 -21.364  0.00  0.00    +0.037 C 
ATOM      8  C   UNL     1      36.868 -20.230 -20.010  0.00  0.00    +0.003 C 
ATOM      9  C   UNL     1      36.134 -18.547 -21.576  0.00  0.00    +0.139 C 
ATOM     10  C   UNL     1      37.161 -19.198 -20.901  0.00  0.00    +0.037 C 
ENDROOT
BRANCH   9  11
ATOM     11  O   UNL     1      36.423 -17.539 -22.445  0.00  0.00    -0.471 OA
BRANCH  11  12
ATOM     12  C   UNL     1      35.422 -17.201 -23.403  0.00  0.00    +0.234 C 
BRANCH  12  14
ATOM     13  F   UNL     1      34.017 -15.765 -25.392  0.00  0.00    -0.204 F 
ATOM     14  C   UNL     1      34.880 -15.829 -23.180  0.00  0.00    +0.049 C 
ATOM     15  C   UNL     1      34.195 -15.173 -24.203  0.00  0.00    +0.140 C 
ATOM     16  C   UNL     1      35.060 -15.203 -21.947  0.00  0.00    +0.002 C 
ATOM     17  C   UNL     1      33.689 -13.890 -23.991  0.00  0.00    +0.029 C 
ATOM     18  C   UNL     1      34.554 -13.920 -21.736  0.00  0.00    -0.000 C 
ATOM     19  C   UNL     1      33.868 -13.264 -22.757  0.00  0.00    +0.002 C 
ENDBRANCH  12  14
ENDBRANCH  11  12
ENDBRANCH   9  11
BRANCH   1  20
ATOM     20  C   UNL     1      33.585 -23.149 -17.728  0.00  0.00    +0.047 C 
BRANCH  20  25
ATOM     21  S   UNL     1      34.089 -23.477 -15.034  0.00  0.00    -0.048 S 
ATOM     22  O   UNL     1      30.795 -22.520 -16.802  0.00  0.00    -0.274 OA
ATOM     23  O   UNL     1      32.670 -24.687 -13.181  0.00  0.00    -0.263 OA
ATOM     24  N   UNL     1      31.542 -23.638 -14.922  0.00  0.00    -0.246 N 
ATOM     25  C   UNL     1      33.167 -22.630 -16.354  0.00  0.00    +0.137 C 
ATOM     26  C   UNL     1      31.706 -22.907 -16.080  0.00  0.00    +0.239 C 
ATOM     27  C   UNL     1      32.647 -24.038 -14.216  0.00  0.00    +0.279 C 
ATOM     28  H   UNL     1      30.640 -23.871 -14.605  0.00  0.00    +0.158 HD
ENDBRANCH  20  25
ENDBRANCH   1  20
TORSDOF 5
ENDMDL
MODEL 2
REMARK VINA RESULT:     -12.0      4.623      9.837
REMARK  Name = 204109
REMARK  5 active torsions:
REMARK  status: ('A' for Active; 'I' for Inactive)
REMARK    1  A    between atoms: C_1  and  C_20
REMARK    2  A    between atoms: C_9  and  O_11
REMARK    3  A    between atoms: O_11  and  C_12
REMARK    4  A    between atoms: C_12  and  C_14
REMARK    5  A    between atoms: C_20  and  C_25
REMARK                            x       y       z     vdW  Elec       q    Type
REMARK                         _______ _______ _______ _____ _____    ______ ____
ROOT
ATOM      1  C   UNL     1      36.081 -18.617 -21.532  0.00  0.00    -0.021 C 
ATOM      2  C   UNL     1      34.675 -20.162 -20.284  0.00  0.00    -0.000 C 
ATOM      3  C   UNL     1      34.820 -19.128 -21.224  0.00  0.00    -0.004 C 
ATOM      4  C   UNL     1      35.826 -20.684 -19.648  0.00  0.00    +0.003 C 
ATOM      5  C   UNL     1      37.213 -19.132 -20.906  0.00  0.00    -0.004 C 
ATOM      6  C   UNL     1      37.088 -20.160 -19.971  0.00  0.00    -0.000 C 
ATOM      7  C   UNL     1      35.682 -21.718 -18.709  0.00  0.00    +0.037 C 
ATOM      8  C   UNL     1      33.414 -20.688 -19.961  0.00  0.00    +0.003 C 
ATOM      9  C   UNL     1      34.420 -22.229 -18.400  0.00  0.00    +0.139 C 
ATOM     10  C   UNL     1      33.289 -21.715 -19.026  0.00  0.00    +0.037 C 
ENDROOT
BRANCH   9  11
ATOM     11  O   UNL     1      34.296 -23.232 -17.487  0.00  0.00    -0.471 OA
BRANCH  11  12
ATOM     12  C   UNL     1      34.381 -22.871 -16.110  0.00  0.00    +0.234 C 
BRANCH  12  14
ATOM     13  F   UNL     1      34.583 -24.676 -13.945  0.00  0.00    -0.204 F 
ATOM     14  C   UNL     1      33.196 -23.344 -15.338  0.00  0.00    +0.049 C 
ATOM     15  C   UNL     1      33.362 -24.236 -14.278  0.00  0.00    +0.140 C 
ATOM     16  C   UNL     1      31.921 -22.892 -15.677  0.00  0.00    +0.002 C 
ATOM     17  C   UNL     1      32.251 -24.676 -13.557  0.00  0.00    +0.029 C 
ATOM     18  C   UNL     1      30.810 -23.333 -14.956  0.00  0.00    -0.000 C 
ATOM     19  C   UNL     1      30.976 -24.224 -13.896  0.00  0.00    +0.002 C 
ENDBRANCH  12  14
ENDBRANCH  11  12
ENDBRANCH   9  11
BRANCH   1  20
ATOM     20  C   UNL     1      36.217 -17.520 -22.532  0.00  0.00    +0.047 C 
BRANCH  20  25
ATOM     21  S   UNL     1      34.589 -16.832 -24.654  0.00  0.00    -0.048 S 
ATOM     22  O   UNL     1      35.051 -15.059 -21.257  0.00  0.00    -0.274 OA
ATOM     23  O   UNL     1      34.132 -14.485 -25.746  0.00  0.00    -0.263 OA
ATOM     24  N   UNL     1      34.563 -14.572 -23.464  0.00  0.00    -0.246 N 
ATOM     25  C   UNL     1      34.877 -16.862 -22.858  0.00  0.00    +0.137 C 
ATOM     26  C   UNL     1      34.849 -15.417 -22.412  0.00  0.00    +0.239 C 
ATOM     27  C   UNL     1      34.386 -15.095 -24.718  0.00  0.00    +0.279 C 
ATOM     28  H   UNL     1      34.487 -13.602 -23.316  0.00  0.00    +0.158 HD
ENDBRANCH  20  25
ENDBRANCH   1  20
TORSDOF 5
ENDMDL
MODEL 3
REMARK VINA RESULT:     -12.0      1.375      2.223
REMARK  Name = 204109
REMARK  5 active torsions:
REMARK  status: ('A' for Active; 'I' for Inactive)
REMARK    1  A    between atoms: C_1  and  C_20
REMARK    2  A    between atoms: C_9  and  O_11
REMARK    3  A    between atoms: O_11  and  C_12
REMARK    4  A    between atoms: C_12  and  C_14
REMARK    5  A    between atoms: C_20  and  C_25
REMARK                            x       y       z     vdW  Elec       q    Type
REMARK                         _______ _______ _______ _____ _____    ______ ____
ROOT
ATOM      1  C   UNL     1      33.807 -22.579 -17.747  0.00  0.00    -0.021 C 
ATOM      2  C   UNL     1      33.809 -20.991 -19.590  0.00  0.00    -0.000 C 
ATOM      3  C   UNL     1      33.119 -21.835 -18.705  0.00  0.00    -0.004 C 
ATOM      4  C   UNL     1      35.218 -20.900 -19.501  0.00  0.00    +0.003 C 
ATOM      5  C   UNL     1      35.193 -22.490 -17.660  0.00  0.00    -0.004 C 
ATOM      6  C   UNL     1      35.896 -21.655 -18.530  0.00  0.00    -0.000 C 
ATOM      7  C   UNL     1      35.909 -20.055 -20.385  0.00  0.00    +0.037 C 
ATOM      8  C   UNL     1      33.132 -20.235 -20.561  0.00  0.00    +0.003 C 
ATOM      9  C   UNL     1      35.219 -19.312 -21.344  0.00  0.00    +0.139 C 
ATOM     10  C   UNL     1      33.833 -19.401 -21.431  0.00  0.00    +0.037 C 
ENDROOT
BRANCH   9  11
ATOM     11  O   UNL     1      35.902 -18.496 -22.195  0.00  0.00    -0.471 OA
BRANCH  11  12
ATOM     12  C   UNL     1      36.033 -17.127 -21.818  0.00  0.00    +0.234 C 
BRANCH  12  14
ATOM     13  F   UNL     1      35.089 -14.587 -21.014  0.00  0.00    -0.204 F 
ATOM     14  C   UNL     1      35.266 -16.225 -22.724  0.00  0.00    +0.049 C 
ATOM     15  C   UNL     1      34.827 -14.983 -22.268  0.00  0.00    +0.140 C 
ATOM     16  C   UNL     1      34.988 -16.627 -24.030  0.00  0.00    +0.002 C 
ATOM     17  C   UNL     1      34.110 -14.140 -23.118  0.00  0.00    +0.029 C 
ATOM     18  C   UNL     1      34.270 -15.785 -24.881  0.00  0.00    -0.000 C 
ATOM     19  C   UNL     1      33.832 -14.542 -24.425  0.00  0.00    +0.002 C 
ENDBRANCH  12  14
ENDBRANCH  11  12
ENDBRANCH   9  11
BRANCH   1  20
ATOM     20  C   UNL     1      33.058 -23.471 -16.816  0.00  0.00    +0.047 C 
BRANCH  20  25
ATOM     21  S   UNL     1      32.829 -23.442 -14.064  0.00  0.00    -0.048 S 
ATOM     22  O   UNL     1      30.265 -22.362 -16.740  0.00  0.00    -0.274 OA
ATOM     23  O   UNL     1      30.824 -24.165 -12.525  0.00  0.00    -0.263 OA
ATOM     24  N   UNL     1      30.340 -23.263 -14.612  0.00  0.00    -0.246 N 
ATOM     25  C   UNL     1      32.406 -22.699 -15.671  0.00  0.00    +0.137 C 
ATOM     26  C   UNL     1      30.897 -22.745 -15.762  0.00  0.00    +0.239 C 
ATOM     27  C   UNL     1      31.159 -23.685 -13.598  0.00  0.00    +0.279 C 
ATOM     28  H   UNL     1      29.362 -23.329 -14.520  0.00  0.00    +0.158 HD
ENDBRANCH  20  25
ENDBRANCH   1  20
TORSDOF 5
ENDMDL
MODEL 4
REMARK VINA RESULT:     -11.7      4.584      9.609
REMARK  Name = 204109
REMARK  5 active torsions:
REMARK  status: ('A' for Active; 'I' for Inactive)
REMARK    1  A    between atoms: C_1  and  C_20
REMARK    2  A    between atoms: C_9  and  O_11
REMARK    3  A    between atoms: O_11  and  C_12
REMARK    4  A    between atoms: C_12  and  C_14
REMARK    5  A    between atoms: C_20  and  C_25
REMARK                            x       y       z     vdW  Elec       q    Type
REMARK                         _______ _______ _______ _____ _____    ______ ____
ROOT
ATOM      1  C   UNL     1      35.409 -20.371 -20.327  0.00  0.00    -0.021 C 
ATOM      2  C   UNL     1      35.720 -21.573 -18.235  0.00  0.00    -0.000 C 
ATOM      3  C   UNL     1      36.237 -20.809 -19.293  0.00  0.00    -0.004 C 
ATOM      4  C   UNL     1      34.342 -21.897 -18.225  0.00  0.00    +0.003 C 
ATOM      5  C   UNL     1      34.054 -20.690 -20.317  0.00  0.00    -0.004 C 
ATOM      6  C   UNL     1      33.522 -21.448 -19.272  0.00  0.00    -0.000 C 
ATOM      7  C   UNL     1      33.825 -22.661 -17.166  0.00  0.00    +0.037 C 
ATOM      8  C   UNL     1      36.539 -22.022 -17.186  0.00  0.00    +0.003 C 
ATOM      9  C   UNL     1      34.654 -23.099 -16.132  0.00  0.00    +0.139 C 
ATOM     10  C   UNL     1      36.008 -22.780 -16.142  0.00  0.00    +0.037 C 
ENDROOT
BRANCH   9  11
ATOM     11  O   UNL     1      34.137 -23.838 -15.112  0.00  0.00    -0.471 OA
BRANCH  11  12
ATOM     12  C   UNL     1      33.242 -23.178 -14.219  0.00  0.00    +0.234 C 
BRANCH  12  14
ATOM     13  F   UNL     1      32.058 -25.663 -13.578  0.00  0.00    -0.204 F 
ATOM     14  C   UNL     1      31.818 -23.497 -14.522  0.00  0.00    +0.049 C 
ATOM     15  C   UNL     1      31.292 -24.742 -14.180  0.00  0.00    +0.140 C 
ATOM     16  C   UNL     1      31.011 -22.547 -15.149  0.00  0.00    +0.002 C 
ATOM     17  C   UNL     1      29.958 -25.038 -14.465  0.00  0.00    +0.029 C 
ATOM     18  C   UNL     1      29.678 -22.843 -15.434  0.00  0.00    -0.000 C 
ATOM     19  C   UNL     1      29.151 -24.088 -15.092  0.00  0.00    +0.002 C 
ENDBRANCH  12  14
ENDBRANCH  11  12
ENDBRANCH   9  11
BRANCH   1  20
ATOM     20  C   UNL     1      35.975 -19.561 -21.444  0.00  0.00    +0.047 C 
BRANCH  20  25
ATOM     21  S   UNL     1      34.903 -18.806 -23.874  0.00  0.00    -0.048 S 
ATOM     22  O   UNL     1      35.437 -16.703 -20.682  0.00  0.00    -0.274 OA
ATOM     23  O   UNL     1      35.300 -16.632 -25.297  0.00  0.00    -0.263 OA
ATOM     24  N   UNL     1      35.395 -16.464 -22.981  0.00  0.00    -0.246 N 
ATOM     25  C   UNL     1      34.942 -18.623 -22.064  0.00  0.00    +0.137 C 
ATOM     26  C   UNL     1      35.285 -17.173 -21.803  0.00  0.00    +0.239 C 
ATOM     27  C   UNL     1      35.232 -17.114 -24.176  0.00  0.00    +0.279 C 
ATOM     28  H   UNL     1      35.591 -15.499 -22.964  0.00  0.00    +0.158 HD
ENDBRANCH  20  25
ENDBRANCH   1  20
TORSDOF 5
ENDMDL
MODEL 5
REMARK VINA RESULT:     -11.6      2.572      3.648
REMARK  Name = 204109
REMARK  5 active torsions:
REMARK  status: ('A' for Active; 'I' for Inactive)
REMARK    1  A    between atoms: C_1  and  C_20
REMARK    2  A    between atoms: C_9  and  O_11
REMARK    3  A    between atoms: O_11  and  C_12
REMARK    4  A    between atoms: C_12  and  C_14
REMARK    5  A    between atoms: C_20  and  C_25
REMARK                            x       y       z     vdW  Elec       q    Type
REMARK                         _______ _______ _______ _____ _____    ______ ____
ROOT
ATOM      1  C   UNL     1      34.064 -23.368 -15.958  0.00  0.00    -0.021 C 
ATOM      2  C   UNL     1      35.077 -22.088 -17.763  0.00  0.00    -0.000 C 
ATOM      3  C   UNL     1      35.195 -22.842 -16.584  0.00  0.00    -0.004 C 
ATOM      4  C   UNL     1      33.793 -21.864 -18.314  0.00  0.00    +0.003 C 
ATOM      5  C   UNL     1      32.802 -23.147 -16.501  0.00  0.00    -0.004 C 
ATOM      6  C   UNL     1      32.665 -22.401 -17.672  0.00  0.00    -0.000 C 
ATOM      7  C   UNL     1      33.674 -21.110 -19.493  0.00  0.00    +0.037 C 
ATOM      8  C   UNL     1      36.204 -21.551 -18.406  0.00  0.00    +0.003 C 
ATOM      9  C   UNL     1      34.805 -20.584 -20.119  0.00  0.00    +0.139 C 
ATOM     10  C   UNL     1      36.067 -20.805 -19.576  0.00  0.00    +0.037 C 
ENDROOT
BRANCH   9  11
ATOM     11  O   UNL     1      34.675 -19.856 -21.262  0.00  0.00    -0.471 OA
BRANCH  11  12
ATOM     12  C   UNL     1      35.821 -19.134 -21.707  0.00  0.00    +0.234 C 
BRANCH  12  14
ATOM     13  F   UNL     1      34.927 -19.609 -24.346  0.00  0.00    -0.204 F 
ATOM     14  C   UNL     1      35.456 -18.036 -22.648  0.00  0.00    +0.049 C 
ATOM     15  C   UNL     1      35.021 -18.336 -23.938  0.00  0.00    +0.140 C 
ATOM     16  C   UNL     1      35.551 -16.707 -22.235  0.00  0.00    +0.002 C 
ATOM     17  C   UNL     1      34.680 -17.306 -24.817  0.00  0.00    +0.029 C 
ATOM     18  C   UNL     1      35.211 -15.677 -23.113  0.00  0.00    -0.000 C 
ATOM     19  C   UNL     1      34.775 -15.977 -24.403  0.00  0.00    +0.002 C 
ENDBRANCH  12  14
ENDBRANCH  11  12
ENDBRANCH   9  11
BRANCH   1  20
ATOM     20  C   UNL     1      34.209 -24.166 -14.707  0.00  0.00    +0.047 C 
BRANCH  20  25
ATOM     21  S   UNL     1      36.810 -25.092 -14.736  0.00  0.00    -0.048 S 
ATOM     22  O   UNL     1      34.740 -23.722 -11.781  0.00  0.00    -0.274 OA
ATOM     23  O   UNL     1      38.067 -26.664 -13.045  0.00  0.00    -0.263 OA
ATOM     24  N   UNL     1      36.429 -25.240 -12.215  0.00  0.00    -0.246 N 
ATOM     25  C   UNL     1      35.567 -23.960 -14.039  0.00  0.00    +0.137 C 
ATOM     26  C   UNL     1      35.509 -24.272 -12.561  0.00  0.00    +0.239 C 
ATOM     27  C   UNL     1      37.213 -25.801 -13.188  0.00  0.00    +0.279 C 
ATOM     28  H   UNL     1      36.521 -25.525 -11.277  0.00  0.00    +0.158 HD
ENDBRANCH  20  25
ENDBRANCH   1  20
TORSDOF 5
ENDMDL
MODEL 6
REMARK VINA RESULT:     -11.6      4.706      9.829
REMARK  Name = 204109
REMARK  5 active torsions:
REMARK  status: ('A' for Active; 'I' for Inactive)
REMARK    1  A    between atoms: C_1  and  C_20
REMARK    2  A    between atoms: C_9  and  O_11
REMARK    3  A    between atoms: O_11  and  C_12
REMARK    4  A    between atoms: C_12  and  C_14
REMARK    5  A    between atoms: C_20  and  C_25
REMARK                            x       y       z     vdW  Elec       q    Type
REMARK                         _______ _______ _______ _____ _____    ______ ____
ROOT
ATOM      1  C   UNL     1      36.053 -18.326 -21.721  0.00  0.00    -0.021 C 
ATOM      2  C   UNL     1      34.702 -19.942 -20.503  0.00  0.00    -0.000 C 
ATOM      3  C   UNL     1      34.808 -18.871 -21.404  0.00  0.00    -0.004 C 
ATOM      4  C   UNL     1      35.877 -20.468 -19.914  0.00  0.00    +0.003 C 
ATOM      5  C   UNL     1      37.207 -18.844 -21.141  0.00  0.00    -0.004 C 
ATOM      6  C   UNL     1      37.122 -19.909 -20.244  0.00  0.00    -0.000 C 
ATOM      7  C   UNL     1      35.771 -21.540 -19.013  0.00  0.00    +0.037 C 
ATOM      8  C   UNL     1      33.458 -20.503 -20.173  0.00  0.00    +0.003 C 
ATOM      9  C   UNL     1      34.526 -22.085 -18.696  0.00  0.00    +0.139 C 
ATOM     10  C   UNL     1      33.372 -21.567 -19.276  0.00  0.00    +0.037 C 
ENDROOT
BRANCH   9  11
ATOM     11  O   UNL     1      34.439 -23.125 -17.821  0.00  0.00    -0.471 OA
BRANCH  11  12
ATOM     12  C   UNL     1      33.510 -22.995 -16.748  0.00  0.00    +0.234 C 
BRANCH  12  14
ATOM     13  F   UNL     1      32.127 -24.219 -14.608  0.00  0.00    -0.204 F 
ATOM     14  C   UNL     1      34.144 -23.269 -15.426  0.00  0.00    +0.049 C 
ATOM     15  C   UNL     1      33.408 -23.876 -14.410  0.00  0.00    +0.140 C 
ATOM     16  C   UNL     1      35.475 -22.915 -15.208  0.00  0.00    +0.002 C 
ATOM     17  C   UNL     1      34.004 -24.131 -13.174  0.00  0.00    +0.029 C 
ATOM     18  C   UNL     1      36.071 -23.170 -13.973  0.00  0.00    -0.000 C 
ATOM     19  C   UNL     1      35.336 -23.778 -12.956  0.00  0.00    +0.002 C 
ENDBRANCH  12  14
ENDBRANCH  11  12
ENDBRANCH   9  11
BRANCH   1  20
ATOM     20  C   UNL     1      36.147 -17.188 -22.680  0.00  0.00    +0.047 C 
BRANCH  20  25
ATOM     21  S   UNL     1      34.431 -16.524 -24.739  0.00  0.00    -0.048 S 
ATOM     22  O   UNL     1      35.001 -14.739 -21.365  0.00  0.00    -0.274 OA
ATOM     23  O   UNL     1      33.905 -14.184 -25.816  0.00  0.00    -0.263 OA
ATOM     24  N   UNL     1      34.423 -14.262 -23.552  0.00  0.00    -0.246 N 
ATOM     25  C   UNL     1      34.788 -16.547 -22.955  0.00  0.00    +0.137 C 
ATOM     26  C   UNL     1      34.759 -15.101 -22.511  0.00  0.00    +0.239 C 
ATOM     27  C   UNL     1      34.206 -14.789 -24.798  0.00  0.00    +0.279 C 
ATOM     28  H   UNL     1      34.342 -13.293 -23.402  0.00  0.00    +0.158 HD
ENDBRANCH  20  25
ENDBRANCH   1  20
TORSDOF 5
ENDMDL
MODEL 7
REMARK VINA RESULT:     -11.5      2.942      4.149
REMARK  Name = 204109
REMARK  5 active torsions:
REMARK  status: ('A' for Active; 'I' for Inactive)
REMARK    1  A    between atoms: C_1  and  C_20
REMARK    2  A    between atoms: C_9  and  O_11
REMARK    3  A    between atoms: O_11  and  C_12
REMARK    4  A    between atoms: C_12  and  C_14
REMARK    5  A    between atoms: C_20  and  C_25
REMARK                            x       y       z     vdW  Elec       q    Type
REMARK                         _______ _______ _______ _____ _____    ______ ____
ROOT
ATOM      1  C   UNL     1      36.596 -23.073 -15.614  0.00  0.00    -0.021 C 
ATOM      2  C   UNL     1      35.140 -22.304 -17.405  0.00  0.00    -0.000 C 
ATOM      3  C   UNL     1      35.345 -23.046 -16.230  0.00  0.00    -0.004 C 
ATOM      4  C   UNL     1      36.221 -21.580 -17.963  0.00  0.00    +0.003 C 
ATOM      5  C   UNL     1      37.658 -22.361 -16.163  0.00  0.00    -0.004 C 
ATOM      6  C   UNL     1      37.473 -21.618 -17.329  0.00  0.00    -0.000 C 
ATOM      7  C   UNL     1      36.016 -20.839 -19.138  0.00  0.00    +0.037 C 
ATOM      8  C   UNL     1      33.888 -22.266 -18.039  0.00  0.00    +0.003 C 
ATOM      9  C   UNL     1      34.764 -20.812 -19.754  0.00  0.00    +0.139 C 
ATOM     10  C   UNL     1      33.702 -21.524 -19.205  0.00  0.00    +0.037 C 
ENDROOT
BRANCH   9  11
ATOM     11  O   UNL     1      34.581 -20.087 -20.893  0.00  0.00    -0.471 OA
BRANCH  11  12
ATOM     12  C   UNL     1      35.752 -19.639 -21.573  0.00  0.00    +0.234 C 
BRANCH  12  14
ATOM     13  F   UNL     1      34.980 -19.950 -24.274  0.00  0.00    -0.204 F 
ATOM     14  C   UNL     1      35.465 -18.483 -22.470  0.00  0.00    +0.049 C 
ATOM     15  C   UNL     1      35.088 -18.702 -23.795  0.00  0.00    +0.140 C 
ATOM     16  C   UNL     1      35.575 -17.181 -21.983  0.00  0.00    +0.002 C 
ATOM     17  C   UNL     1      34.820 -17.619 -24.633  0.00  0.00    +0.029 C 
ATOM     18  C   UNL     1      35.308 -16.097 -22.820  0.00  0.00    -0.000 C 
ATOM     19  C   UNL     1      34.930 -16.316 -24.145  0.00  0.00    +0.002 C 
ENDBRANCH  12  14
ENDBRANCH  11  12
ENDBRANCH   9  11
BRANCH   1  20
ATOM     20  C   UNL     1      36.795 -23.866 -14.367  0.00  0.00    +0.047 C 
BRANCH  20  25
ATOM     21  S   UNL     1      37.327 -23.066 -11.778  0.00  0.00    -0.048 S 
ATOM     22  O   UNL     1      34.032 -24.381 -13.299  0.00  0.00    -0.274 OA
ATOM     23  O   UNL     1      36.636 -24.164  -9.491  0.00  0.00    -0.263 OA
ATOM     24  N   UNL     1      35.184 -24.369 -11.294  0.00  0.00    -0.246 N 
ATOM     25  C   UNL     1      36.142 -23.211 -13.151  0.00  0.00    +0.137 C 
ATOM     26  C   UNL     1      34.998 -24.046 -12.622  0.00  0.00    +0.239 C 
ATOM     27  C   UNL     1      36.324 -23.959 -10.655  0.00  0.00    +0.279 C 
ATOM     28  H   UNL     1      34.504 -24.891 -10.810  0.00  0.00    +0.158 HD
ENDBRANCH  20  25
ENDBRANCH   1  20
TORSDOF 5
ENDMDL
MODEL 8
REMARK VINA RESULT:     -11.4      4.874      9.864
REMARK  Name = 204109
REMARK  5 active torsions:
REMARK  status: ('A' for Active; 'I' for Inactive)
REMARK    1  A    between atoms: C_1  and  C_20
REMARK    2  A    between atoms: C_9  and  O_11
REMARK    3  A    between atoms: O_11  and  C_12
REMARK    4  A    between atoms: C_12  and  C_14
REMARK    5  A    between atoms: C_20  and  C_25
REMARK                            x       y       z     vdW  Elec       q    Type
REMARK                         _______ _______ _______ _____ _____    ______ ____
ROOT
ATOM      1  C   UNL     1      34.823 -19.515 -21.489  0.00  0.00    -0.021 C 
ATOM      2  C   UNL     1      34.112 -20.947 -19.655  0.00  0.00    -0.000 C 
ATOM      3  C   UNL     1      33.811 -20.160 -20.778  0.00  0.00    -0.004 C 
ATOM      4  C   UNL     1      35.461 -21.082 -19.247  0.00  0.00    +0.003 C 
ATOM      5  C   UNL     1      36.148 -19.647 -21.088  0.00  0.00    -0.004 C 
ATOM      6  C   UNL     1      36.468 -20.426 -19.975  0.00  0.00    -0.000 C 
ATOM      7  C   UNL     1      35.764 -21.869 -18.125  0.00  0.00    +0.037 C 
ATOM      8  C   UNL     1      33.106 -21.603 -18.927  0.00  0.00    +0.003 C 
ATOM      9  C   UNL     1      34.751 -22.514 -17.413  0.00  0.00    +0.139 C 
ATOM     10  C   UNL     1      33.425 -22.382 -17.814  0.00  0.00    +0.037 C 
ENDROOT
BRANCH   9  11
ATOM     11  O   UNL     1      35.059 -23.275 -16.327  0.00  0.00    -0.471 OA
BRANCH  11  12
ATOM     12  C   UNL     1      35.959 -22.713 -15.374  0.00  0.00    +0.234 C 
BRANCH  12  14
ATOM     13  F   UNL     1      38.708 -22.855 -16.015  0.00  0.00    -0.204 F 
ATOM     14  C   UNL     1      36.872 -23.740 -14.797  0.00  0.00    +0.049 C 
ATOM     15  C   UNL     1      38.220 -23.758 -15.153  0.00  0.00    +0.140 C 
ATOM     16  C   UNL     1      36.375 -24.685 -13.900  0.00  0.00    +0.002 C 
ATOM     17  C   UNL     1      39.072 -24.721 -14.611  0.00  0.00    +0.029 C 
ATOM     18  C   UNL     1      37.226 -25.649 -13.358  0.00  0.00    -0.000 C 
ATOM     19  C   UNL     1      38.575 -25.666 -13.713  0.00  0.00    +0.002 C 
ENDBRANCH  12  14
ENDBRANCH  11  12
ENDBRANCH   9  11
BRANCH   1  20
ATOM     20  C   UNL     1      34.483 -18.682 -22.679  0.00  0.00    +0.047 C 
BRANCH  20  25
ATOM     21  S   UNL     1      35.263 -16.310 -21.500  0.00  0.00    -0.048 S 
ATOM     22  O   UNL     1      35.129 -17.249 -25.242  0.00  0.00    -0.274 OA
ATOM     23  O   UNL     1      34.714 -13.828 -22.169  0.00  0.00    -0.263 OA
ATOM     24  N   UNL     1      34.898 -15.409 -23.862  0.00  0.00    -0.246 N 
ATOM     25  C   UNL     1      35.442 -17.508 -22.859  0.00  0.00    +0.137 C 
ATOM     26  C   UNL     1      35.143 -16.740 -24.127  0.00  0.00    +0.239 C 
ATOM     27  C   UNL     1      34.912 -14.966 -22.565  0.00  0.00    +0.279 C 
ATOM     28  H   UNL     1      34.712 -14.782 -24.598  0.00  0.00    +0.158 HD
ENDBRANCH  20  25
ENDBRANCH   1  20
TORSDOF 5
ENDMDL
MODEL 9
REMARK VINA RESULT:     -11.4      2.222      2.618
REMARK  Name = 204109
REMARK  5 active torsions:
REMARK  status: ('A' for Active; 'I' for Inactive)
REMARK    1  A    between atoms: C_1  and  C_20
REMARK    2  A    between atoms: C_9  and  O_11
REMARK    3  A    between atoms: O_11  and  C_12
REMARK    4  A    between atoms: C_12  and  C_14
REMARK    5  A    between atoms: C_20  and  C_25
REMARK                            x       y       z     vdW  Elec       q    Type
REMARK                         _______ _______ _______ _____ _____    ______ ____
ROOT
ATOM      1  C   UNL     1      34.679 -22.401 -17.796  0.00  0.00    -0.021 C 
ATOM      2  C   UNL     1      35.529 -20.857 -19.473  0.00  0.00    -0.000 C 
ATOM      3  C   UNL     1      35.748 -21.747 -18.409  0.00  0.00    -0.004 C 
ATOM      4  C   UNL     1      34.207 -20.627 -19.921  0.00  0.00    +0.003 C 
ATOM      5  C   UNL     1      33.379 -22.175 -18.237  0.00  0.00    -0.004 C 
ATOM      6  C   UNL     1      33.142 -21.294 -19.293  0.00  0.00    -0.000 C 
ATOM      7  C   UNL     1      33.987 -19.738 -20.985  0.00  0.00    +0.037 C 
ATOM      8  C   UNL     1      36.593 -20.190 -20.102  0.00  0.00    +0.003 C 
ATOM      9  C   UNL     1      35.057 -19.083 -21.599  0.00  0.00    +0.139 C 
ATOM     10  C   UNL     1      36.357 -19.310 -21.158  0.00  0.00    +0.037 C 
ENDROOT
BRANCH   9  11
ATOM     11  O   UNL     1      34.829 -18.224 -22.630  0.00  0.00    -0.471 OA
BRANCH  11  12
ATOM     12  C   UNL     1      35.720 -17.119 -22.764  0.00  0.00    +0.234 C 
BRANCH  12  14
ATOM     13  F   UNL     1      35.120 -15.019 -20.970  0.00  0.00    -0.204 F 
ATOM     14  C   UNL     1      35.008 -15.877 -23.181  0.00  0.00    +0.049 C 
ATOM     15  C   UNL     1      34.740 -14.876 -22.248  0.00  0.00    +0.140 C 
ATOM     16  C   UNL     1      34.608 -15.719 -24.508  0.00  0.00    +0.002 C 
ATOM     17  C   UNL     1      34.074 -13.715 -22.642  0.00  0.00    +0.029 C 
ATOM     18  C   UNL     1      33.941 -14.558 -24.902  0.00  0.00    -0.000 C 
ATOM     19  C   UNL     1      33.674 -13.556 -23.969  0.00  0.00    +0.002 C 
ENDBRANCH  12  14
ENDBRANCH  11  12
ENDBRANCH   9  11
BRANCH   1  20
ATOM     20  C   UNL     1      34.930 -23.343 -16.667  0.00  0.00    +0.047 C 
BRANCH  20  25
ATOM     21  S   UNL     1      37.179 -22.627 -15.234  0.00  0.00    -0.048 S 
ATOM     22  O   UNL     1      33.652 -23.529 -13.953  0.00  0.00    -0.274 OA
ATOM     23  O   UNL     1      38.174 -23.647 -13.025  0.00  0.00    -0.263 OA
ATOM     24  N   UNL     1      35.867 -23.666 -13.305  0.00  0.00    -0.246 N 
ATOM     25  C   UNL     1      35.367 -22.621 -15.394  0.00  0.00    +0.137 C 
ATOM     26  C   UNL     1      34.842 -23.316 -14.158  0.00  0.00    +0.239 C 
ATOM     27  C   UNL     1      37.162 -23.399 -13.664  0.00  0.00    +0.279 C 
ATOM     28  H   UNL     1      35.671 -24.105 -12.446  0.00  0.00    +0.158 HD
ENDBRANCH  20  25
ENDBRANCH   1  20
TORSDOF 5
ENDMDL
