MODEL 1
REMARK VINA RESULT:     -12.1      0.000      0.000
REMARK  Name = 11633167
REMARK  7 active torsions:
REMARK  status: ('A' for Active; 'I' for Inactive)
REMARK    1  A    between atoms: C_1  and  C_8
REMARK    2  A    between atoms: C_2  and  C_25
REMARK    3  A    between atoms: C_4  and  O_17
REMARK    4  A    between atoms: O_17  and  C_18
REMARK    5  A    between atoms: C_18  and  C_20
REMARK    6  A    between atoms: C_25  and  N_26
REMARK    7  A    between atoms: N_26  and  C_29
REMARK                            x       y       z     vdW  Elec       q    Type
REMARK                         _______ _______ _______ _____ _____    ______ ____
ROOT
ATOM      1  C   UNL     1      35.660 -20.692 -19.585  0.00  0.00    -0.000 C 
ATOM      2  C   UNL     1      34.456 -22.158 -18.090  0.00  0.00    +0.031 C 
ATOM      3  C   UNL     1      34.480 -21.341 -19.221  0.00  0.00    +0.000 C 
ATOM      4  C   UNL     1      35.610 -22.326 -17.326  0.00  0.00    +0.137 C 
ATOM      5  C   UNL     1      36.814 -20.860 -18.822  0.00  0.00    +0.003 C 
ATOM      6  C   UNL     1      36.790 -21.678 -17.692  0.00  0.00    +0.037 C 
ENDROOT
BRANCH   1   8
ATOM      7  N   UNL     1      33.731 -18.778 -23.742  0.00  0.00    -0.312 N 
ATOM      8  C   UNL     1      35.686 -19.844 -20.758  0.00  0.00    +0.001 C 
ATOM      9  C   UNL     1      34.650 -18.995 -22.740  0.00  0.00    +0.048 C 
ATOM     10  C   UNL     1      35.760 -18.194 -23.020  0.00  0.00    +0.015 C 
ATOM     11  C   UNL     1      34.584 -19.829 -21.618  0.00  0.00    +0.015 C 
ATOM     12  C   UNL     1      36.806 -19.056 -21.012  0.00  0.00    +0.000 C 
ATOM     13  C   UNL     1      36.859 -18.227 -22.139  0.00  0.00    +0.001 C 
ATOM     14  C   UNL     1      35.474 -17.490 -24.223  0.00  0.00    +0.017 C 
ATOM     15  C   UNL     1      34.220 -17.871 -24.644  0.00  0.00    +0.062 C 
ATOM     16  H   UNL     1      32.850 -19.213 -23.803  0.00  0.00    +0.152 HD
ENDBRANCH   1   8
BRANCH   4  17
ATOM     17  O   UNL     1      35.604 -23.120 -16.219  0.00  0.00    -0.469 OA
BRANCH  17  18
ATOM     18  C   UNL     1      36.578 -22.841 -15.216  0.00  0.00    +0.251 C 
BRANCH  18  20
ATOM     19  N   UNL     1      36.579 -25.262 -15.193  0.00  0.00    -0.244 NA
ATOM     20  C   UNL     1      37.079 -24.135 -14.646  0.00  0.00    +0.103 C 
ATOM     21  C   UNL     1      38.002 -24.105 -13.619  0.00  0.00    +0.018 C 
ATOM     22  C   UNL     1      38.446 -25.321 -13.114  0.00  0.00    +0.003 C 
ATOM     23  C   UNL     1      37.033 -26.425 -14.676  0.00  0.00    +0.099 C 
ATOM     24  C   UNL     1      37.957 -26.509 -13.647  0.00  0.00    +0.021 C 
ENDBRANCH  18  20
ENDBRANCH  17  18
ENDBRANCH   4  17
BRANCH   2  25
ATOM     25  C   UNL     1      33.186 -22.845 -17.713  0.00  0.00    +0.117 C 
BRANCH  25  26
ATOM     26  N   UNL     1      32.849 -22.655 -16.301  0.00  0.00    -0.327 N 
ATOM     27  H   UNL     1      33.332 -21.965 -15.792  0.00  0.00    +0.147 HD
BRANCH  26  29
ATOM     28  N   UNL     1      31.273 -25.089 -13.997  0.00  0.00    -0.228 NA
ATOM     29  C   UNL     1      31.890 -23.398 -15.652  0.00  0.00    +0.077 C 
ATOM     30  C   UNL     1      32.186 -24.341 -14.656  0.00  0.00    +0.139 C 
ATOM     31  C   UNL     1      30.527 -23.245 -15.961  0.00  0.00    +0.019 C 
ATOM     32  C   UNL     1      29.557 -23.996 -15.304  0.00  0.00    +0.022 C 
ATOM     33  C   UNL     1      29.980 -24.896 -14.339  0.00  0.00    +0.100 C 
ATOM     34  N   UNL     1      33.551 -24.522 -14.321  0.00  0.00    -0.342 N 
ATOM     35  H   UNL     1      33.805 -25.173 -13.628  0.00  0.00    +0.144 HD
ATOM     36  H   UNL     1      34.245 -23.995 -14.780  0.00  0.00    +0.144 HD
ENDBRANCH  26  29
ENDBRANCH  25  26
ENDBRANCH   2  25
TORSDOF 7
ENDMDL
MODEL 2
REMARK VINA RESULT:     -12.1      0.973      1.491
REMARK  Name = 11633167
REMARK  7 active torsions:
REMARK  status: ('A' for Active; 'I' for Inactive)
REMARK    1  A    between atoms: C_1  and  C_8
REMARK    2  A    between atoms: C_2  and  C_25
REMARK    3  A    between atoms: C_4  and  O_17
REMARK    4  A    between atoms: O_17  and  C_18
REMARK    5  A    between atoms: C_18  and  C_20
REMARK    6  A    between atoms: C_25  and  N_26
REMARK    7  A    between atoms: N_26  and  C_29
REMARK                            x       y       z     vdW  Elec       q    Type
REMARK                         _______ _______ _______ _____ _____    ______ ____
ROOT
ATOM      1  C   UNL     1      35.630 -20.597 -19.748  0.00  0.00    -0.000 C 
ATOM      2  C   UNL     1      34.448 -22.124 -18.298  0.00  0.00    +0.031 C 
ATOM      3  C   UNL     1      34.466 -21.290 -19.417  0.00  0.00    +0.000 C 
ATOM      4  C   UNL     1      35.591 -22.262 -17.512  0.00  0.00    +0.137 C 
ATOM      5  C   UNL     1      36.773 -20.734 -18.964  0.00  0.00    +0.003 C 
ATOM      6  C   UNL     1      36.755 -21.568 -17.845  0.00  0.00    +0.037 C 
ENDROOT
BRANCH   1   8
ATOM      7  N   UNL     1      33.702 -18.662 -23.896  0.00  0.00    -0.312 N 
ATOM      8  C   UNL     1      35.650 -19.731 -20.909  0.00  0.00    +0.001 C 
ATOM      9  C   UNL     1      34.615 -18.875 -22.889  0.00  0.00    +0.048 C 
ATOM     10  C   UNL     1      35.712 -18.048 -23.147  0.00  0.00    +0.015 C 
ATOM     11  C   UNL     1      34.555 -19.725 -21.779  0.00  0.00    +0.015 C 
ATOM     12  C   UNL     1      36.757 -18.919 -21.142  0.00  0.00    +0.000 C 
ATOM     13  C   UNL     1      36.803 -18.073 -22.256  0.00  0.00    +0.001 C 
ATOM     14  C   UNL     1      35.424 -17.333 -24.342  0.00  0.00    +0.017 C 
ATOM     15  C   UNL     1      34.182 -17.732 -24.781  0.00  0.00    +0.062 C 
ATOM     16  H   UNL     1      32.830 -19.113 -23.971  0.00  0.00    +0.152 HD
ENDBRANCH   1   8
BRANCH   4  17
ATOM     17  O   UNL     1      35.591 -23.071 -16.417  0.00  0.00    -0.469 OA
BRANCH  17  18
ATOM     18  C   UNL     1      36.521 -22.762 -15.381  0.00  0.00    +0.251 C 
BRANCH  18  20
ATOM     19  N   UNL     1      38.542 -23.928 -14.734  0.00  0.00    -0.244 NA
ATOM     20  C   UNL     1      37.215 -24.021 -14.953  0.00  0.00    +0.103 C 
ATOM     21  C   UNL     1      36.476 -25.179 -14.809  0.00  0.00    +0.018 C 
ATOM     22  C   UNL     1      37.149 -26.329 -14.411  0.00  0.00    +0.003 C 
ATOM     23  C   UNL     1      39.162 -25.065 -14.349  0.00  0.00    +0.099 C 
ATOM     24  C   UNL     1      38.518 -26.279 -14.174  0.00  0.00    +0.021 C 
ENDBRANCH  18  20
ENDBRANCH  17  18
ENDBRANCH   4  17
BRANCH   2  25
ATOM     25  C   UNL     1      33.195 -22.859 -17.956  0.00  0.00    +0.117 C 
BRANCH  25  26
ATOM     26  N   UNL     1      32.562 -22.345 -16.741  0.00  0.00    -0.327 N 
ATOM     27  H   UNL     1      32.565 -21.373 -16.585  0.00  0.00    +0.147 HD
BRANCH  26  29
ATOM     28  N   UNL     1      29.948 -24.119 -14.808  0.00  0.00    -0.228 NA
ATOM     29  C   UNL     1      31.962 -23.156 -15.806  0.00  0.00    +0.077 C 
ATOM     30  C   UNL     1      30.574 -23.333 -15.712  0.00  0.00    +0.139 C 
ATOM     31  C   UNL     1      32.732 -23.871 -14.870  0.00  0.00    +0.019 C 
ATOM     32  C   UNL     1      32.125 -24.691 -13.924  0.00  0.00    +0.022 C 
ATOM     33  C   UNL     1      30.742 -24.779 -13.936  0.00  0.00    +0.100 C 
ATOM     34  N   UNL     1      29.767 -22.627 -16.640  0.00  0.00    -0.342 N 
ATOM     35  H   UNL     1      28.788 -22.720 -16.612  0.00  0.00    +0.144 HD
ATOM     36  H   UNL     1      30.187 -22.043 -17.314  0.00  0.00    +0.144 HD
ENDBRANCH  26  29
ENDBRANCH  25  26
ENDBRANCH   2  25
TORSDOF 7
ENDMDL
MODEL 3
REMARK VINA RESULT:     -11.8      1.099      4.748
REMARK  Name = 11633167
REMARK  7 active torsions:
REMARK  status: ('A' for Active; 'I' for Inactive)
REMARK    1  A    between atoms: C_1  and  C_8
REMARK    2  A    between atoms: C_2  and  C_25
REMARK    3  A    between atoms: C_4  and  O_17
REMARK    4  A    between atoms: O_17  and  C_18
REMARK    5  A    between atoms: C_18  and  C_20
REMARK    6  A    between atoms: C_25  and  N_26
REMARK    7  A    between atoms: N_26  and  C_29
REMARK                            x       y       z     vdW  Elec       q    Type
REMARK                         _______ _______ _______ _____ _____    ______ ____
ROOT
ATOM      1  C   UNL     1      35.273 -21.370 -18.785  0.00  0.00    -0.000 C 
ATOM      2  C   UNL     1      35.883 -22.380 -16.678  0.00  0.00    +0.031 C 
ATOM      3  C   UNL     1      36.184 -21.528 -17.741  0.00  0.00    +0.000 C 
ATOM      4  C   UNL     1      34.673 -23.072 -16.659  0.00  0.00    +0.137 C 
ATOM      5  C   UNL     1      34.063 -22.061 -18.767  0.00  0.00    +0.003 C 
ATOM      6  C   UNL     1      33.762 -22.912 -17.703  0.00  0.00    +0.037 C 
ENDROOT
BRANCH   1   8
ATOM      7  N   UNL     1      34.187 -18.885 -22.945  0.00  0.00    -0.312 N 
ATOM      8  C   UNL     1      35.585 -20.487 -19.889  0.00  0.00    +0.001 C 
ATOM      9  C   UNL     1      34.940 -19.340 -21.887  0.00  0.00    +0.048 C 
ATOM     10  C   UNL     1      36.212 -18.775 -22.016  0.00  0.00    +0.015 C 
ATOM     11  C   UNL     1      34.598 -20.198 -20.836  0.00  0.00    +0.015 C 
ATOM     12  C   UNL     1      36.861 -19.939 -19.992  0.00  0.00    +0.000 C 
ATOM     13  C   UNL     1      37.190 -19.082 -21.049  0.00  0.00    +0.001 C 
ATOM     14  C   UNL     1      36.193 -17.966 -23.186  0.00  0.00    +0.017 C 
ATOM     15  C   UNL     1      34.935 -18.055 -23.737  0.00  0.00    +0.062 C 
ATOM     16  H   UNL     1      33.245 -19.122 -23.110  0.00  0.00    +0.152 HD
ENDBRANCH   1   8
BRANCH   4  17
ATOM     17  O   UNL     1      34.363 -23.907 -15.629  0.00  0.00    -0.469 OA
BRANCH  17  18
ATOM     18  C   UNL     1      33.697 -23.333 -14.506  0.00  0.00    +0.251 C 
BRANCH  18  20
ATOM     19  N   UNL     1      31.892 -24.921 -14.221  0.00  0.00    -0.244 NA
ATOM     20  C   UNL     1      32.236 -23.667 -14.579  0.00  0.00    +0.103 C 
ATOM     21  C   UNL     1      31.346 -22.698 -14.997  0.00  0.00    +0.018 C 
ATOM     22  C   UNL     1      30.000 -23.041 -15.054  0.00  0.00    +0.003 C 
ATOM     23  C   UNL     1      30.576 -25.217 -14.288  0.00  0.00    +0.099 C 
ATOM     24  C   UNL     1      29.598 -24.322 -14.693  0.00  0.00    +0.021 C 
ENDBRANCH  18  20
ENDBRANCH  17  18
ENDBRANCH   4  17
BRANCH   2  25
ATOM     25  C   UNL     1      36.869 -22.538 -15.568  0.00  0.00    +0.117 C 
BRANCH  25  26
ATOM     26  N   UNL     1      37.344 -23.916 -15.439  0.00  0.00    -0.327 N 
ATOM     27  H   UNL     1      37.581 -24.410 -16.257  0.00  0.00    +0.147 HD
BRANCH  26  29
ATOM     28  N   UNL     1      37.071 -26.496 -12.796  0.00  0.00    -0.228 NA
ATOM     29  C   UNL     1      37.475 -24.555 -14.228  0.00  0.00    +0.077 C 
ATOM     30  C   UNL     1      36.964 -25.837 -13.971  0.00  0.00    +0.139 C 
ATOM     31  C   UNL     1      38.146 -23.941 -13.156  0.00  0.00    +0.019 C 
ATOM     32  C   UNL     1      38.277 -24.587 -11.931  0.00  0.00    +0.022 C 
ATOM     33  C   UNL     1      37.727 -25.853 -11.804  0.00  0.00    +0.100 C 
ATOM     34  N   UNL     1      36.280 -26.485 -15.030  0.00  0.00    -0.342 N 
ATOM     35  H   UNL     1      35.905 -27.385 -14.895  0.00  0.00    +0.144 HD
ATOM     36  H   UNL     1      36.182 -26.036 -15.901  0.00  0.00    +0.144 HD
ENDBRANCH  26  29
ENDBRANCH  25  26
ENDBRANCH   2  25
TORSDOF 7
ENDMDL
MODEL 4
REMARK VINA RESULT:     -11.8      1.483      2.071
REMARK  Name = 11633167
REMARK  7 active torsions:
REMARK  status: ('A' for Active; 'I' for Inactive)
REMARK    1  A    between atoms: C_1  and  C_8
REMARK    2  A    between atoms: C_2  and  C_25
REMARK    3  A    between atoms: C_4  and  O_17
REMARK    4  A    between atoms: O_17  and  C_18
REMARK    5  A    between atoms: C_18  and  C_20
REMARK    6  A    between atoms: C_25  and  N_26
REMARK    7  A    between atoms: N_26  and  C_29
REMARK                            x       y       z     vdW  Elec       q    Type
REMARK                         _______ _______ _______ _____ _____    ______ ____
ROOT
ATOM      1  C   UNL     1      35.463 -20.079 -20.447  0.00  0.00    -0.000 C 
ATOM      2  C   UNL     1      34.562 -21.792 -19.003  0.00  0.00    +0.031 C 
ATOM      3  C   UNL     1      34.413 -20.921 -20.083  0.00  0.00    +0.000 C 
ATOM      4  C   UNL     1      35.759 -21.819 -18.289  0.00  0.00    +0.137 C 
ATOM      5  C   UNL     1      36.660 -20.106 -19.735  0.00  0.00    +0.003 C 
ATOM      6  C   UNL     1      36.809 -20.977 -18.655  0.00  0.00    +0.037 C 
ENDROOT
BRANCH   1   8
ATOM      7  N   UNL     1      35.344 -15.588 -22.565  0.00  0.00    -0.312 N 
ATOM      8  C   UNL     1      35.309 -19.175 -21.568  0.00  0.00    +0.001 C 
ATOM      9  C   UNL     1      35.277 -16.960 -22.470  0.00  0.00    +0.048 C 
ATOM     10  C   UNL     1      35.008 -17.447 -23.752  0.00  0.00    +0.015 C 
ATOM     11  C   UNL     1      35.433 -17.798 -21.360  0.00  0.00    +0.015 C 
ATOM     12  C   UNL     1      35.042 -19.690 -22.834  0.00  0.00    +0.000 C 
ATOM     13  C   UNL     1      34.888 -18.839 -23.936  0.00  0.00    +0.001 C 
ATOM     14  C   UNL     1      34.919 -16.321 -24.617  0.00  0.00    +0.017 C 
ATOM     15  C   UNL     1      35.128 -15.192 -23.858  0.00  0.00    +0.062 C 
ATOM     16  H   UNL     1      35.522 -14.979 -21.812  0.00  0.00    +0.152 HD
ENDBRANCH   1   8
BRANCH   4  17
ATOM     17  O   UNL     1      35.922 -22.663 -17.232  0.00  0.00    -0.469 OA
BRANCH  17  18
ATOM     18  C   UNL     1      36.918 -22.316 -16.272  0.00  0.00    +0.251 C 
BRANCH  18  20
ATOM     19  N   UNL     1      36.534 -24.549 -15.420  0.00  0.00    -0.244 NA
ATOM     20  C   UNL     1      36.840 -23.271 -15.118  0.00  0.00    +0.103 C 
ATOM     21  C   UNL     1      37.080 -22.803 -13.841  0.00  0.00    +0.018 C 
ATOM     22  C   UNL     1      36.999 -23.714 -12.794  0.00  0.00    +0.003 C 
ATOM     23  C   UNL     1      36.465 -25.406 -14.377  0.00  0.00    +0.099 C 
ATOM     24  C   UNL     1      36.687 -25.043 -13.059  0.00  0.00    +0.021 C 
ENDBRANCH  18  20
ENDBRANCH  17  18
ENDBRANCH   4  17
BRANCH   2  25
ATOM     25  C   UNL     1      33.428 -22.686 -18.625  0.00  0.00    +0.117 C 
BRANCH  25  26
ATOM     26  N   UNL     1      32.548 -22.077 -17.627  0.00  0.00    -0.327 N 
ATOM     27  H   UNL     1      32.151 -21.198 -17.824  0.00  0.00    +0.147 HD
BRANCH  26  29
ATOM     28  N   UNL     1      30.606 -23.494 -14.809  0.00  0.00    -0.228 NA
ATOM     29  C   UNL     1      32.250 -22.675 -16.424  0.00  0.00    +0.077 C 
ATOM     30  C   UNL     1      30.939 -22.910 -15.982  0.00  0.00    +0.139 C 
ATOM     31  C   UNL     1      33.271 -23.093 -15.552  0.00  0.00    +0.019 C 
ATOM     32  C   UNL     1      32.968 -23.698 -14.336  0.00  0.00    +0.022 C 
ATOM     33  C   UNL     1      31.631 -23.873 -14.015  0.00  0.00    +0.100 C 
ATOM     34  N   UNL     1      29.885 -22.501 -16.837  0.00  0.00    -0.342 N 
ATOM     35  H   UNL     1      28.949 -22.646 -16.568  0.00  0.00    +0.144 HD
ATOM     36  H   UNL     1      30.088 -22.072 -17.700  0.00  0.00    +0.144 HD
ENDBRANCH  26  29
ENDBRANCH  25  26
ENDBRANCH   2  25
TORSDOF 7
ENDMDL
MODEL 5
REMARK VINA RESULT:     -11.7      1.641      4.702
REMARK  Name = 11633167
REMARK  7 active torsions:
REMARK  status: ('A' for Active; 'I' for Inactive)
REMARK    1  A    between atoms: C_1  and  C_8
REMARK    2  A    between atoms: C_2  and  C_25
REMARK    3  A    between atoms: C_4  and  O_17
REMARK    4  A    between atoms: O_17  and  C_18
REMARK    5  A    between atoms: C_18  and  C_20
REMARK    6  A    between atoms: C_25  and  N_26
REMARK    7  A    between atoms: N_26  and  C_29
REMARK                            x       y       z     vdW  Elec       q    Type
REMARK                         _______ _______ _______ _____ _____    ______ ____
ROOT
ATOM      1  C   UNL     1      34.794 -20.022 -20.557  0.00  0.00    -0.000 C 
ATOM      2  C   UNL     1      35.824 -21.335 -18.811  0.00  0.00    +0.031 C 
ATOM      3  C   UNL     1      35.936 -20.436 -19.872  0.00  0.00    +0.000 C 
ATOM      4  C   UNL     1      34.572 -21.818 -18.436  0.00  0.00    +0.137 C 
ATOM      5  C   UNL     1      33.541 -20.505 -20.182  0.00  0.00    +0.003 C 
ATOM      6  C   UNL     1      33.429 -21.403 -19.120  0.00  0.00    +0.037 C 
ENDROOT
BRANCH   1   8
ATOM      7  N   UNL     1      35.275 -15.488 -22.524  0.00  0.00    -0.312 N 
ATOM      8  C   UNL     1      34.909 -19.090 -21.659  0.00  0.00    +0.001 C 
ATOM      9  C   UNL     1      35.143 -16.857 -22.485  0.00  0.00    +0.048 C 
ATOM     10  C   UNL     1      35.131 -17.307 -23.807  0.00  0.00    +0.015 C 
ATOM     11  C   UNL     1      35.034 -17.724 -21.391  0.00  0.00    +0.015 C 
ATOM     12  C   UNL     1      34.895 -19.567 -22.967  0.00  0.00    +0.000 C 
ATOM     13  C   UNL     1      35.005 -18.689 -24.052  0.00  0.00    +0.001 C 
ATOM     14  C   UNL     1      35.263 -16.161 -24.640  0.00  0.00    +0.017 C 
ATOM     15  C   UNL     1      35.348 -15.057 -23.822  0.00  0.00    +0.062 C 
ATOM     16  H   UNL     1      35.312 -14.902 -21.734  0.00  0.00    +0.152 HD
ENDBRANCH   1   8
BRANCH   4  17
ATOM     17  O   UNL     1      34.444 -22.696 -17.402  0.00  0.00    -0.469 OA
BRANCH  17  18
ATOM     18  C   UNL     1      33.351 -23.610 -17.458  0.00  0.00    +0.251 C 
BRANCH  18  20
ATOM     19  N   UNL     1      32.940 -23.967 -15.099  0.00  0.00    -0.244 NA
ATOM     20  C   UNL     1      32.489 -23.418 -16.245  0.00  0.00    +0.103 C 
ATOM     21  C   UNL     1      31.311 -22.707 -16.363  0.00  0.00    +0.018 C 
ATOM     22  C   UNL     1      30.536 -22.547 -15.221  0.00  0.00    +0.003 C 
ATOM     23  C   UNL     1      32.160 -23.791 -14.009  0.00  0.00    +0.099 C 
ATOM     24  C   UNL     1      30.961 -23.096 -14.016  0.00  0.00    +0.021 C 
ENDBRANCH  18  20
ENDBRANCH  17  18
ENDBRANCH   4  17
BRANCH   2  25
ATOM     25  C   UNL     1      37.057 -21.768 -18.088  0.00  0.00    +0.117 C 
BRANCH  25  26
ATOM     26  N   UNL     1      36.963 -21.541 -16.646  0.00  0.00    -0.327 N 
ATOM     27  H   UNL     1      36.663 -20.659 -16.327  0.00  0.00    +0.147 HD
BRANCH  26  29
ATOM     28  N   UNL     1      36.702 -23.789 -13.713  0.00  0.00    -0.228 NA
ATOM     29  C   UNL     1      37.276 -22.503 -15.713  0.00  0.00    +0.077 C 
ATOM     30  C   UNL     1      36.430 -22.852 -14.649  0.00  0.00    +0.139 C 
ATOM     31  C   UNL     1      38.493 -23.206 -15.780  0.00  0.00    +0.019 C 
ATOM     32  C   UNL     1      38.808 -24.178 -14.836  0.00  0.00    +0.022 C 
ATOM     33  C   UNL     1      37.886 -24.429 -13.832  0.00  0.00    +0.100 C 
ATOM     34  N   UNL     1      35.195 -22.162 -14.551  0.00  0.00    -0.342 N 
ATOM     35  H   UNL     1      34.570 -22.374 -13.821  0.00  0.00    +0.144 HD
ATOM     36  H   UNL     1      34.963 -21.472 -15.214  0.00  0.00    +0.144 HD
ENDBRANCH  26  29
ENDBRANCH  25  26
ENDBRANCH   2  25
TORSDOF 7
ENDMDL
MODEL 6
REMARK VINA RESULT:     -11.0      1.638      2.751
REMARK  Name = 11633167
REMARK  7 active torsions:
REMARK  status: ('A' for Active; 'I' for Inactive)
REMARK    1  A    between atoms: C_1  and  C_8
REMARK    2  A    between atoms: C_2  and  C_25
REMARK    3  A    between atoms: C_4  and  O_17
REMARK    4  A    between atoms: O_17  and  C_18
REMARK    5  A    between atoms: C_18  and  C_20
REMARK    6  A    between atoms: C_25  and  N_26
REMARK    7  A    between atoms: N_26  and  C_29
REMARK                            x       y       z     vdW  Elec       q    Type
REMARK                         _______ _______ _______ _____ _____    ______ ____
ROOT
ATOM      1  C   UNL     1      36.040 -22.029 -17.313  0.00  0.00    -0.000 C 
ATOM      2  C   UNL     1      35.194 -23.458 -15.560  0.00  0.00    +0.031 C 
ATOM      3  C   UNL     1      34.984 -22.731 -16.733  0.00  0.00    +0.000 C 
ATOM      4  C   UNL     1      36.457 -23.482 -14.971  0.00  0.00    +0.137 C 
ATOM      5  C   UNL     1      37.303 -22.052 -16.724  0.00  0.00    +0.003 C 
ATOM      6  C   UNL     1      37.512 -22.780 -15.553  0.00  0.00    +0.037 C 
ENDROOT
BRANCH   1   8
ATOM      7  N   UNL     1      37.461 -19.025 -21.004  0.00  0.00    -0.312 N 
ATOM      8  C   UNL     1      35.823 -21.273 -18.529  0.00  0.00    +0.001 C 
ATOM      9  C   UNL     1      36.627 -19.823 -20.253  0.00  0.00    +0.048 C 
ATOM     10  C   UNL     1      35.380 -19.821 -20.883  0.00  0.00    +0.015 C 
ATOM     11  C   UNL     1      36.879 -20.538 -19.077  0.00  0.00    +0.015 C 
ATOM     12  C   UNL     1      34.570 -21.291 -19.136  0.00  0.00    +0.000 C 
ATOM     13  C   UNL     1      34.332 -20.570 -20.312  0.00  0.00    +0.001 C 
ATOM     14  C   UNL     1      35.496 -18.998 -22.037  0.00  0.00    +0.017 C 
ATOM     15  C   UNL     1      36.786 -18.521 -22.085  0.00  0.00    +0.062 C 
ATOM     16  H   UNL     1      38.405 -18.842 -20.796  0.00  0.00    +0.152 HD
ENDBRANCH   1   8
BRANCH   4  17
ATOM     17  O   UNL     1      36.679 -24.187 -13.826  0.00  0.00    -0.469 OA
BRANCH  17  18
ATOM     18  C   UNL     1      36.785 -25.604 -13.947  0.00  0.00    +0.251 C 
BRANCH  18  20
ATOM     19  N   UNL     1      38.394 -26.844 -15.264  0.00  0.00    -0.244 NA
ATOM     20  C   UNL     1      38.208 -25.963 -14.260  0.00  0.00    +0.103 C 
ATOM     21  C   UNL     1      39.224 -25.386 -13.524  0.00  0.00    +0.018 C 
ATOM     22  C   UNL     1      40.530 -25.741 -13.839  0.00  0.00    +0.003 C 
ATOM     23  C   UNL     1      39.677 -27.165 -15.542  0.00  0.00    +0.099 C 
ATOM     24  C   UNL     1      40.771 -26.646 -14.866  0.00  0.00    +0.021 C 
ENDBRANCH  18  20
ENDBRANCH  17  18
ENDBRANCH   4  17
BRANCH   2  25
ATOM     25  C   UNL     1      34.053 -24.204 -14.951  0.00  0.00    +0.117 C 
BRANCH  25  26
ATOM     26  N   UNL     1      32.999 -23.312 -14.468  0.00  0.00    -0.327 N 
ATOM     27  H   UNL     1      33.239 -22.606 -13.825  0.00  0.00    +0.147 HD
BRANCH  26  29
ATOM     28  N   UNL     1      29.453 -24.372 -14.612  0.00  0.00    -0.228 NA
ATOM     29  C   UNL     1      31.688 -23.412 -14.871  0.00  0.00    +0.077 C 
ATOM     30  C   UNL     1      30.749 -24.246 -14.246  0.00  0.00    +0.139 C 
ATOM     31  C   UNL     1      31.207 -22.662 -15.960  0.00  0.00    +0.019 C 
ATOM     32  C   UNL     1      29.880 -22.764 -16.366  0.00  0.00    +0.022 C 
ATOM     33  C   UNL     1      29.052 -23.626 -15.665  0.00  0.00    +0.100 C 
ATOM     34  N   UNL     1      31.200 -25.017 -13.144  0.00  0.00    -0.342 N 
ATOM     35  H   UNL     1      30.576 -25.616 -12.675  0.00  0.00    +0.144 HD
ATOM     36  H   UNL     1      32.137 -24.952 -12.849  0.00  0.00    +0.144 HD
ENDBRANCH  26  29
ENDBRANCH  25  26
ENDBRANCH   2  25
TORSDOF 7
ENDMDL
MODEL 7
REMARK VINA RESULT:     -10.9      2.463      8.861
REMARK  Name = 11633167
REMARK  7 active torsions:
REMARK  status: ('A' for Active; 'I' for Inactive)
REMARK    1  A    between atoms: C_1  and  C_8
REMARK    2  A    between atoms: C_2  and  C_25
REMARK    3  A    between atoms: C_4  and  O_17
REMARK    4  A    between atoms: O_17  and  C_18
REMARK    5  A    between atoms: C_18  and  C_20
REMARK    6  A    between atoms: C_25  and  N_26
REMARK    7  A    between atoms: N_26  and  C_29
REMARK                            x       y       z     vdW  Elec       q    Type
REMARK                         _______ _______ _______ _____ _____    ______ ____
ROOT
ATOM      1  C   UNL     1      34.720 -23.939 -14.442  0.00  0.00    -0.000 C 
ATOM      2  C   UNL     1      33.173 -22.983 -16.031  0.00  0.00    +0.031 C 
ATOM      3  C   UNL     1      34.455 -23.432 -15.714  0.00  0.00    +0.000 C 
ATOM      4  C   UNL     1      32.158 -23.041 -15.077  0.00  0.00    +0.137 C 
ATOM      5  C   UNL     1      33.706 -23.998 -13.488  0.00  0.00    +0.003 C 
ATOM      6  C   UNL     1      32.423 -23.550 -13.805  0.00  0.00    +0.037 C 
ENDROOT
BRANCH   1   8
ATOM      7  N   UNL     1      39.544 -24.666 -15.373  0.00  0.00    -0.312 N 
ATOM      8  C   UNL     1      36.051 -24.404 -14.112  0.00  0.00    +0.001 C 
ATOM      9  C   UNL     1      38.356 -24.698 -14.677  0.00  0.00    +0.048 C 
ATOM     10  C   UNL     1      38.616 -25.312 -13.450  0.00  0.00    +0.015 C 
ATOM     11  C   UNL     1      37.086 -24.234 -15.036  0.00  0.00    +0.015 C 
ATOM     12  C   UNL     1      36.280 -25.013 -12.881  0.00  0.00    +0.000 C 
ATOM     13  C   UNL     1      37.556 -25.473 -12.535  0.00  0.00    +0.001 C 
ATOM     14  C   UNL     1      39.999 -25.646 -13.433  0.00  0.00    +0.017 C 
ATOM     15  C   UNL     1      40.542 -25.237 -14.630  0.00  0.00    +0.062 C 
ATOM     16  H   UNL     1      39.659 -24.288 -16.274  0.00  0.00    +0.152 HD
ENDBRANCH   1   8
BRANCH   4  17
ATOM     17  O   UNL     1      30.900 -22.608 -15.370  0.00  0.00    -0.469 OA
BRANCH  17  18
ATOM     18  C   UNL     1      29.925 -23.603 -15.674  0.00  0.00    +0.251 C 
BRANCH  18  20
ATOM     19  N   UNL     1      28.381 -22.837 -17.374  0.00  0.00    -0.244 NA
ATOM     20  C   UNL     1      28.639 -22.929 -16.054  0.00  0.00    +0.103 C 
ATOM     21  C   UNL     1      27.810 -22.453 -15.057  0.00  0.00    +0.018 C 
ATOM     22  C   UNL     1      26.627 -21.834 -15.443  0.00  0.00    +0.003 C 
ATOM     23  C   UNL     1      27.222 -22.230 -17.711  0.00  0.00    +0.099 C 
ATOM     24  C   UNL     1      26.319 -21.717 -16.794  0.00  0.00    +0.021 C 
ENDBRANCH  18  20
ENDBRANCH  17  18
ENDBRANCH   4  17
BRANCH   2  25
ATOM     25  C   UNL     1      32.905 -22.443 -17.397  0.00  0.00    +0.117 C 
BRANCH  25  26
ATOM     26  N   UNL     1      34.098 -22.460 -18.244  0.00  0.00    -0.327 N 
ATOM     27  H   UNL     1      34.720 -23.219 -18.166  0.00  0.00    +0.147 HD
BRANCH  26  29
ATOM     28  N   UNL     1      36.019 -20.006 -20.246  0.00  0.00    -0.228 NA
ATOM     29  C   UNL     1      34.392 -21.464 -19.146  0.00  0.00    +0.077 C 
ATOM     30  C   UNL     1      35.691 -20.982 -19.370  0.00  0.00    +0.139 C 
ATOM     31  C   UNL     1      33.378 -20.861 -19.913  0.00  0.00    +0.019 C 
ATOM     32  C   UNL     1      33.677 -19.854 -20.825  0.00  0.00    +0.022 C 
ATOM     33  C   UNL     1      35.001 -19.467 -20.952  0.00  0.00    +0.100 C 
ATOM     34  N   UNL     1      36.737 -21.568 -18.613  0.00  0.00    -0.342 N 
ATOM     35  H   UNL     1      37.665 -21.261 -18.737  0.00  0.00    +0.144 HD
ATOM     36  H   UNL     1      36.537 -22.281 -17.965  0.00  0.00    +0.144 HD
ENDBRANCH  26  29
ENDBRANCH  25  26
ENDBRANCH   2  25
TORSDOF 7
ENDMDL
MODEL 8
REMARK VINA RESULT:     -10.8      1.998      5.336
REMARK  Name = 11633167
REMARK  7 active torsions:
REMARK  status: ('A' for Active; 'I' for Inactive)
REMARK    1  A    between atoms: C_1  and  C_8
REMARK    2  A    between atoms: C_2  and  C_25
REMARK    3  A    between atoms: C_4  and  O_17
REMARK    4  A    between atoms: O_17  and  C_18
REMARK    5  A    between atoms: C_18  and  C_20
REMARK    6  A    between atoms: C_25  and  N_26
REMARK    7  A    between atoms: N_26  and  C_29
REMARK                            x       y       z     vdW  Elec       q    Type
REMARK                         _______ _______ _______ _____ _____    ______ ____
ROOT
ATOM      1  C   UNL     1      34.374 -21.476 -18.643  0.00  0.00    -0.000 C 
ATOM      2  C   UNL     1      34.835 -22.772 -16.658  0.00  0.00    +0.031 C 
ATOM      3  C   UNL     1      35.285 -21.979 -17.715  0.00  0.00    +0.000 C 
ATOM      4  C   UNL     1      33.477 -23.061 -16.532  0.00  0.00    +0.137 C 
ATOM      5  C   UNL     1      33.016 -21.764 -18.518  0.00  0.00    +0.003 C 
ATOM      6  C   UNL     1      32.567 -22.556 -17.461  0.00  0.00    +0.037 C 
ENDROOT
BRANCH   1   8
ATOM      7  N   UNL     1      37.846 -19.017 -21.206  0.00  0.00    -0.312 N 
ATOM      8  C   UNL     1      34.840 -20.654 -19.740  0.00  0.00    +0.001 C 
ATOM      9  C   UNL     1      36.600 -19.507 -20.885  0.00  0.00    +0.048 C 
ATOM     10  C   UNL     1      35.717 -19.062 -21.872  0.00  0.00    +0.015 C 
ATOM     11  C   UNL     1      36.192 -20.303 -19.809  0.00  0.00    +0.015 C 
ATOM     12  C   UNL     1      33.937 -20.225 -20.710  0.00  0.00    +0.000 C 
ATOM     13  C   UNL     1      34.359 -19.428 -21.781  0.00  0.00    +0.001 C 
ATOM     14  C   UNL     1      36.476 -18.290 -22.795  0.00  0.00    +0.017 C 
ATOM     15  C   UNL     1      37.781 -18.279 -22.358  0.00  0.00    +0.062 C 
ATOM     16  H   UNL     1      38.665 -19.173 -20.683  0.00  0.00    +0.152 HD
ENDBRANCH   1   8
BRANCH   4  17
ATOM     17  O   UNL     1      33.021 -23.833 -15.507  0.00  0.00    -0.469 OA
BRANCH  17  18
ATOM     18  C   UNL     1      32.190 -23.199 -14.537  0.00  0.00    +0.251 C 
BRANCH  18  20
ATOM     19  N   UNL     1      30.011 -22.191 -14.853  0.00  0.00    -0.244 NA
ATOM     20  C   UNL     1      30.758 -23.307 -14.973  0.00  0.00    +0.103 C 
ATOM     21  C   UNL     1      30.294 -24.512 -15.462  0.00  0.00    +0.018 C 
ATOM     22  C   UNL     1      28.963 -24.579 -15.857  0.00  0.00    +0.003 C 
ATOM     23  C   UNL     1      28.722 -22.293 -15.246  0.00  0.00    +0.099 C 
ATOM     24  C   UNL     1      28.155 -23.452 -15.751  0.00  0.00    +0.021 C 
ENDBRANCH  18  20
ENDBRANCH  17  18
ENDBRANCH   4  17
BRANCH   2  25
ATOM     25  C   UNL     1      35.822 -23.303 -15.673  0.00  0.00    +0.117 C 
BRANCH  25  26
ATOM     26  N   UNL     1      35.620 -22.753 -14.332  0.00  0.00    -0.327 N 
ATOM     27  H   UNL     1      35.069 -21.943 -14.234  0.00  0.00    +0.147 HD
BRANCH  26  29
ATOM     28  N   UNL     1      36.019 -24.869 -11.318  0.00  0.00    -0.228 NA
ATOM     29  C   UNL     1      36.165 -23.313 -13.200  0.00  0.00    +0.077 C 
ATOM     30  C   UNL     1      35.517 -24.295 -12.435  0.00  0.00    +0.139 C 
ATOM     31  C   UNL     1      37.434 -22.920 -12.738  0.00  0.00    +0.019 C 
ATOM     32  C   UNL     1      37.984 -23.488 -11.593  0.00  0.00    +0.022 C 
ATOM     33  C   UNL     1      37.242 -24.449 -10.926  0.00  0.00    +0.100 C 
ATOM     34  N   UNL     1      34.235 -24.714 -12.872  0.00  0.00    -0.342 N 
ATOM     35  H   UNL     1      33.744 -25.401 -12.366  0.00  0.00    +0.144 HD
ATOM     36  H   UNL     1      33.836 -24.319 -13.681  0.00  0.00    +0.144 HD
ENDBRANCH  26  29
ENDBRANCH  25  26
ENDBRANCH   2  25
TORSDOF 7
ENDMDL
MODEL 9
REMARK VINA RESULT:     -10.4      2.403      8.592
REMARK  Name = 11633167
REMARK  7 active torsions:
REMARK  status: ('A' for Active; 'I' for Inactive)
REMARK    1  A    between atoms: C_1  and  C_8
REMARK    2  A    between atoms: C_2  and  C_25
REMARK    3  A    between atoms: C_4  and  O_17
REMARK    4  A    between atoms: O_17  and  C_18
REMARK    5  A    between atoms: C_18  and  C_20
REMARK    6  A    between atoms: C_25  and  N_26
REMARK    7  A    between atoms: N_26  and  C_29
REMARK                            x       y       z     vdW  Elec       q    Type
REMARK                         _______ _______ _______ _____ _____    ______ ____
ROOT
ATOM      1  C   UNL     1      35.564 -24.140 -14.151  0.00  0.00    -0.000 C 
ATOM      2  C   UNL     1      33.755 -23.131 -15.393  0.00  0.00    +0.031 C 
ATOM      3  C   UNL     1      35.041 -23.671 -15.356  0.00  0.00    +0.000 C 
ATOM      4  C   UNL     1      32.994 -23.060 -14.227  0.00  0.00    +0.137 C 
ATOM      5  C   UNL     1      34.804 -24.069 -12.984  0.00  0.00    +0.003 C 
ATOM      6  C   UNL     1      33.518 -23.529 -13.022  0.00  0.00    +0.037 C 
ENDROOT
BRANCH   1   8
ATOM      7  N   UNL     1      39.170 -27.174 -15.718  0.00  0.00    -0.312 N 
ATOM      8  C   UNL     1      36.898 -24.700 -14.111  0.00  0.00    +0.001 C 
ATOM      9  C   UNL     1      38.552 -26.207 -14.957  0.00  0.00    +0.048 C 
ATOM     10  C   UNL     1      39.486 -25.768 -14.015  0.00  0.00    +0.015 C 
ATOM     11  C   UNL     1      37.253 -25.693 -15.030  0.00  0.00    +0.015 C 
ATOM     12  C   UNL     1      37.808 -24.243 -13.161  0.00  0.00    +0.000 C 
ATOM     13  C   UNL     1      39.105 -24.767 -13.099  0.00  0.00    +0.001 C 
ATOM     14  C   UNL     1      40.683 -26.503 -14.239  0.00  0.00    +0.017 C 
ATOM     15  C   UNL     1      40.458 -27.361 -15.291  0.00  0.00    +0.062 C 
ATOM     16  H   UNL     1      38.747 -27.661 -16.462  0.00  0.00    +0.152 HD
ENDBRANCH   1   8
BRANCH   4  17
ATOM     17  O   UNL     1      31.737 -22.535 -14.245  0.00  0.00    -0.469 OA
BRANCH  17  18
ATOM     18  C   UNL     1      30.662 -23.417 -13.928  0.00  0.00    +0.251 C 
BRANCH  18  20
ATOM     19  N   UNL     1      28.982 -22.150 -15.125  0.00  0.00    -0.244 NA
ATOM     20  C   UNL     1      29.623 -23.330 -15.007  0.00  0.00    +0.103 C 
ATOM     21  C   UNL     1      29.386 -24.434 -15.802  0.00  0.00    +0.018 C 
ATOM     22  C   UNL     1      28.417 -24.321 -16.791  0.00  0.00    +0.003 C 
ATOM     23  C   UNL     1      28.047 -22.076 -16.098  0.00  0.00    +0.099 C 
ATOM     24  C   UNL     1      27.730 -23.122 -16.950  0.00  0.00    +0.021 C 
ENDBRANCH  18  20
ENDBRANCH  17  18
ENDBRANCH   4  17
BRANCH   2  25
ATOM     25  C   UNL     1      33.210 -22.634 -16.690  0.00  0.00    +0.117 C 
BRANCH  25  26
ATOM     26  N   UNL     1      34.174 -22.760 -17.784  0.00  0.00    -0.327 N 
ATOM     27  H   UNL     1      34.708 -23.585 -17.846  0.00  0.00    +0.147 HD
BRANCH  26  29
ATOM     28  N   UNL     1      35.857 -20.262 -19.938  0.00  0.00    -0.228 NA
ATOM     29  C   UNL     1      34.370 -21.781 -18.729  0.00  0.00    +0.077 C 
ATOM     30  C   UNL     1      35.625 -21.225 -19.018  0.00  0.00    +0.139 C 
ATOM     31  C   UNL     1      33.292 -21.272 -19.476  0.00  0.00    +0.019 C 
ATOM     32  C   UNL     1      33.490 -20.282 -20.433  0.00  0.00    +0.022 C 
ATOM     33  C   UNL     1      34.781 -19.815 -20.623  0.00  0.00    +0.100 C 
ATOM     34  N   UNL     1      36.734 -21.714 -18.283  0.00  0.00    -0.342 N 
ATOM     35  H   UNL     1      37.634 -21.353 -18.452  0.00  0.00    +0.144 HD
ATOM     36  H   UNL     1      36.604 -22.415 -17.603  0.00  0.00    +0.144 HD
ENDBRANCH  26  29
ENDBRANCH  25  26
ENDBRANCH   2  25
TORSDOF 7
ENDMDL
