MODEL 1
REMARK VINA RESULT:     -11.8      0.000      0.000
REMARK  Name = 44472635
REMARK  7 active torsions:
REMARK  status: ('A' for Active; 'I' for Inactive)
REMARK    1  A    between atoms: C_1  and  C_21
REMARK    2  A    between atoms: C_4  and  N_8
REMARK    3  A    between atoms: C_9  and  C_14
REMARK    4  A    between atoms: C_21  and  C_24
REMARK    5  A    between atoms: C_23  and  C_29
REMARK    6  A    between atoms: C_29  and  C_30
REMARK    7  A    between atoms: C_29  and  O_36
REMARK                            x       y       z     vdW  Elec       q    Type
REMARK                         _______ _______ _______ _____ _____    ______ ____
ROOT
ATOM      1  C   UNL     1      35.616 -19.948 -20.580  0.00  0.00    -0.024 C 
ATOM      2  C   UNL     1      34.252 -20.173 -20.393  0.00  0.00    -0.003 C 
ATOM      3  C   UNL     1      36.549 -20.663 -19.828  0.00  0.00    -0.003 C 
ATOM      4  C   UNL     1      34.755 -21.826 -18.704  0.00  0.00    +0.050 C 
ATOM      5  C   UNL     1      33.821 -21.111 -19.455  0.00  0.00    +0.014 C 
ATOM      6  C   UNL     1      36.119 -21.602 -18.891  0.00  0.00    +0.014 C 
ENDROOT
BRANCH   4   8
ATOM      7  O   UNL     1      35.422 -22.119 -15.783  0.00  0.00    -0.273 OA
ATOM      8  N   UNL     1      34.319 -22.779 -17.753  0.00  0.00    -0.283 N 
ATOM      9  C   UNL     1      34.670 -22.857 -16.413  0.00  0.00    +0.245 C 
ATOM     10  H   UNL     1      33.694 -23.466 -18.081  0.00  0.00    +0.155 HD
BRANCH   9  14
ATOM     11  O   UNL     1      36.503 -25.525 -15.303  0.00  0.00    -0.269 OA
ATOM     12  N   UNL     1      34.708 -24.273 -14.512  0.00  0.00    -0.237 N 
ATOM     13  N   UNL     1      34.453 -23.806 -12.188  0.00  0.00    -0.233 NA
ATOM     14  C   UNL     1      33.992 -24.013 -15.742  0.00  0.00    +0.158 C 
ATOM     15  C   UNL     1      32.591 -23.649 -15.271  0.00  0.00    +0.037 C 
ATOM     16  C   UNL     1      32.797 -23.050 -13.877  0.00  0.00    +0.064 C 
ATOM     17  C   UNL     1      34.046 -23.734 -13.412  0.00  0.00    +0.115 C 
ATOM     18  C   UNL     1      35.879 -24.994 -14.392  0.00  0.00    +0.256 C 
ATOM     19  C   UNL     1      36.354 -25.078 -12.986  0.00  0.00    +0.079 C 
ATOM     20  C   UNL     1      35.631 -24.495 -12.019  0.00  0.00    +0.105 C 
ENDBRANCH   9  14
ENDBRANCH   4   8
BRANCH   1  21
ATOM     21  C   UNL     1      36.077 -18.943 -21.580  0.00  0.00    +0.005 C 
BRANCH  21  24
ATOM     22  N   UNL     1      35.145 -17.013 -22.825  0.00  0.00    +0.388 N 
ATOM     23  C   UNL     1      34.197 -16.792 -23.928  0.00  0.00    -0.030 C 
ATOM     24  C   UNL     1      34.937 -18.414 -22.435  0.00  0.00    -0.057 C 
ATOM     25  C   UNL     1      34.149 -18.117 -24.691  0.00  0.00    -0.021 C 
ATOM     26  C   UNL     1      34.809 -19.135 -23.769  0.00  0.00    -0.023 C 
ATOM     27  H   UNL     1      34.942 -16.388 -22.046  0.00  0.00    -0.084 HD
ATOM     28  H   UNL     1      36.109 -16.825 -23.100  0.00  0.00    -0.084 HD
BRANCH  23  29
ATOM     29  C   UNL     1      34.612 -15.618 -24.803  0.00  0.00    +0.113 C 
BRANCH  29  30
ATOM     30  C   UNL     1      34.228 -14.289 -24.194  0.00  0.00    +0.002 C 
ATOM     31  C   UNL     1      33.886 -14.212 -22.844  0.00  0.00    -0.002 C 
ATOM     32  C   UNL     1      34.215 -13.138 -24.983  0.00  0.00    -0.002 C 
ATOM     33  C   UNL     1      33.532 -12.985 -22.283  0.00  0.00    -0.000 C 
ATOM     34  C   UNL     1      33.860 -11.911 -24.423  0.00  0.00    -0.000 C 
ATOM     35  C   UNL     1      33.519 -11.835 -23.072  0.00  0.00    -0.000 C 
ENDBRANCH  29  30
BRANCH  29  36
ATOM     36  O   UNL     1      36.024 -15.646 -25.009  0.00  0.00    -0.382 OA
ATOM     37  H   UNL     1      36.384 -14.752 -24.898  0.00  0.00    +0.211 HD
ENDBRANCH  29  36
ENDBRANCH  23  29
ENDBRANCH  21  24
ENDBRANCH   1  21
TORSDOF 7
ENDMDL
MODEL 2
REMARK VINA RESULT:     -11.8      4.068     12.058
REMARK  Name = 44472635
REMARK  7 active torsions:
REMARK  status: ('A' for Active; 'I' for Inactive)
REMARK    1  A    between atoms: C_1  and  C_21
REMARK    2  A    between atoms: C_4  and  N_8
REMARK    3  A    between atoms: C_9  and  C_14
REMARK    4  A    between atoms: C_21  and  C_24
REMARK    5  A    between atoms: C_23  and  C_29
REMARK    6  A    between atoms: C_29  and  C_30
REMARK    7  A    between atoms: C_29  and  O_36
REMARK                            x       y       z     vdW  Elec       q    Type
REMARK                         _______ _______ _______ _____ _____    ______ ____
ROOT
ATOM      1  C   UNL     1      34.861 -15.352 -23.629  0.00  0.00    -0.024 C 
ATOM      2  C   UNL     1      34.955 -14.640 -22.433  0.00  0.00    -0.003 C 
ATOM      3  C   UNL     1      34.147 -14.819 -24.703  0.00  0.00    -0.003 C 
ATOM      4  C   UNL     1      33.623 -12.863 -23.386  0.00  0.00    +0.050 C 
ATOM      5  C   UNL     1      34.336 -13.396 -22.311  0.00  0.00    +0.014 C 
ATOM      6  C   UNL     1      33.529 -13.576 -24.582  0.00  0.00    +0.014 C 
ENDROOT
BRANCH   4   8
ATOM      7  O   UNL     1      34.705 -10.090 -23.835  0.00  0.00    -0.273 OA
ATOM      8  N   UNL     1      32.995 -11.601 -23.263  0.00  0.00    -0.283 N 
ATOM      9  C   UNL     1      33.558 -10.352 -23.485  0.00  0.00    +0.245 C 
ATOM     10  H   UNL     1      32.050 -11.611 -22.987  0.00  0.00    +0.155 HD
BRANCH   9  14
ATOM     11  O   UNL     1      30.813 -10.920 -21.521  0.00  0.00    -0.269 OA
ATOM     12  N   UNL     1      32.339  -9.187 -21.819  0.00  0.00    -0.237 N 
ATOM     13  N   UNL     1      33.057  -7.841 -19.986  0.00  0.00    -0.233 NA
ATOM     14  C   UNL     1      32.561  -9.259 -23.247  0.00  0.00    +0.158 C 
ATOM     15  C   UNL     1      33.132  -7.891 -23.590  0.00  0.00    +0.037 C 
ATOM     16  C   UNL     1      33.835  -7.434 -22.309  0.00  0.00    +0.064 C 
ATOM     17  C   UNL     1      33.057  -8.143 -21.242  0.00  0.00    +0.115 C 
ATOM     18  C   UNL     1      31.500 -10.003 -21.086  0.00  0.00    +0.256 C 
ATOM     19  C   UNL     1      31.498  -9.664 -19.639  0.00  0.00    +0.079 C 
ATOM     20  C   UNL     1      32.254  -8.642 -19.209  0.00  0.00    +0.105 C 
ENDBRANCH   9  14
ENDBRANCH   4   8
BRANCH   1  21
ATOM     21  C   UNL     1      35.520 -16.683 -23.759  0.00  0.00    +0.005 C 
BRANCH  21  24
ATOM     22  N   UNL     1      34.730 -18.264 -22.020  0.00  0.00    +0.388 N 
ATOM     23  C   UNL     1      35.322 -19.061 -20.935  0.00  0.00    -0.030 C 
ATOM     24  C   UNL     1      35.794 -17.327 -22.410  0.00  0.00    -0.057 C 
ATOM     25  C   UNL     1      36.798 -19.216 -21.303  0.00  0.00    -0.021 C 
ATOM     26  C   UNL     1      37.044 -18.194 -22.407  0.00  0.00    -0.023 C 
ATOM     27  H   UNL     1      33.909 -17.759 -21.689  0.00  0.00    -0.084 HD
ATOM     28  H   UNL     1      34.418 -18.842 -22.800  0.00  0.00    -0.084 HD
BRANCH  23  29
ATOM     29  C   UNL     1      34.610 -20.396 -20.763  0.00  0.00    +0.113 C 
BRANCH  29  30
ATOM     30  C   UNL     1      34.987 -21.081 -19.469  0.00  0.00    +0.002 C 
ATOM     31  C   UNL     1      36.295 -21.001 -18.991  0.00  0.00    -0.002 C 
ATOM     32  C   UNL     1      34.026 -21.796 -18.753  0.00  0.00    -0.002 C 
ATOM     33  C   UNL     1      36.642 -21.634 -17.798  0.00  0.00    -0.000 C 
ATOM     34  C   UNL     1      34.373 -22.430 -17.560  0.00  0.00    -0.000 C 
ATOM     35  C   UNL     1      35.682 -22.348 -17.083  0.00  0.00    -0.000 C 
ENDBRANCH  29  30
BRANCH  29  36
ATOM     36  O   UNL     1      33.197 -20.195 -20.789  0.00  0.00    -0.382 OA
ATOM     37  H   UNL     1      32.748 -21.048 -20.678  0.00  0.00    +0.211 HD
ENDBRANCH  29  36
ENDBRANCH  23  29
ENDBRANCH  21  24
ENDBRANCH   1  21
TORSDOF 7
ENDMDL
MODEL 3
REMARK VINA RESULT:     -11.7      1.285      1.890
REMARK  Name = 44472635
REMARK  7 active torsions:
REMARK  status: ('A' for Active; 'I' for Inactive)
REMARK    1  A    between atoms: C_1  and  C_21
REMARK    2  A    between atoms: C_4  and  N_8
REMARK    3  A    between atoms: C_9  and  C_14
REMARK    4  A    between atoms: C_21  and  C_24
REMARK    5  A    between atoms: C_23  and  C_29
REMARK    6  A    between atoms: C_29  and  C_30
REMARK    7  A    between atoms: C_29  and  O_36
REMARK                            x       y       z     vdW  Elec       q    Type
REMARK                         _______ _______ _______ _____ _____    ______ ____
ROOT
ATOM      1  C   UNL     1      35.525 -20.333 -20.203  0.00  0.00    -0.024 C 
ATOM      2  C   UNL     1      36.310 -21.056 -19.305  0.00  0.00    -0.003 C 
ATOM      3  C   UNL     1      34.140 -20.503 -20.212  0.00  0.00    -0.003 C 
ATOM      4  C   UNL     1      34.326 -22.117 -18.424  0.00  0.00    +0.050 C 
ATOM      5  C   UNL     1      35.711 -21.949 -18.416  0.00  0.00    +0.014 C 
ATOM      6  C   UNL     1      33.540 -21.393 -19.322  0.00  0.00    +0.014 C 
ENDROOT
BRANCH   4   8
ATOM      7  O   UNL     1      31.631 -22.025 -17.083  0.00  0.00    -0.273 OA
ATOM      8  N   UNL     1      33.717 -23.021 -17.522  0.00  0.00    -0.283 N 
ATOM      9  C   UNL     1      32.463 -22.915 -16.936  0.00  0.00    +0.245 C 
ATOM     10  H   UNL     1      34.245 -23.818 -17.282  0.00  0.00    +0.155 HD
BRANCH   9  14
ATOM     11  O   UNL     1      35.038 -24.843 -15.768  0.00  0.00    -0.269 OA
ATOM     12  N   UNL     1      33.068 -23.962 -14.897  0.00  0.00    -0.237 N 
ATOM     13  N   UNL     1      32.940 -23.212 -12.637  0.00  0.00    -0.233 NA
ATOM     14  C   UNL     1      32.186 -24.083 -16.037  0.00  0.00    +0.158 C 
ATOM     15  C   UNL     1      30.795 -24.003 -15.424  0.00  0.00    +0.037 C 
ATOM     16  C   UNL     1      30.979 -23.161 -14.159  0.00  0.00    +0.064 C 
ATOM     17  C   UNL     1      32.405 -23.436 -13.791  0.00  0.00    +0.115 C 
ATOM     18  C   UNL     1      34.394 -24.345 -14.852  0.00  0.00    +0.256 C 
ATOM     19  C   UNL     1      35.016 -24.087 -13.527  0.00  0.00    +0.079 C 
ATOM     20  C   UNL     1      34.268 -23.555 -12.549  0.00  0.00    +0.105 C 
ENDBRANCH   9  14
ENDBRANCH   4   8
BRANCH   1  21
ATOM     21  C   UNL     1      36.165 -19.381 -21.156  0.00  0.00    +0.005 C 
BRANCH  21  24
ATOM     22  N   UNL     1      35.176 -17.349 -22.174  0.00  0.00    +0.388 N 
ATOM     23  C   UNL     1      34.492 -16.989 -23.425  0.00  0.00    -0.030 C 
ATOM     24  C   UNL     1      35.176 -18.819 -22.163  0.00  0.00    -0.057 C 
ATOM     25  C   UNL     1      34.902 -18.063 -24.434  0.00  0.00    -0.021 C 
ATOM     26  C   UNL     1      35.521 -19.180 -23.601  0.00  0.00    -0.023 C 
ATOM     27  H   UNL     1      34.668 -16.983 -21.369  0.00  0.00    -0.084 HD
ATOM     28  H   UNL     1      36.117 -16.960 -22.121  0.00  0.00    -0.084 HD
BRANCH  23  29
ATOM     29  C   UNL     1      34.850 -15.581 -23.880  0.00  0.00    +0.113 C 
BRANCH  29  30
ATOM     30  C   UNL     1      34.196 -14.521 -23.022  0.00  0.00    +0.002 C 
ATOM     31  C   UNL     1      33.339 -13.585 -23.602  0.00  0.00    -0.002 C 
ATOM     32  C   UNL     1      34.450 -14.479 -21.651  0.00  0.00    -0.002 C 
ATOM     33  C   UNL     1      32.737 -12.608 -22.811  0.00  0.00    -0.000 C 
ATOM     34  C   UNL     1      33.848 -13.501 -20.860  0.00  0.00    -0.000 C 
ATOM     35  C   UNL     1      32.991 -12.565 -21.440  0.00  0.00    -0.000 C 
ENDBRANCH  29  30
BRANCH  29  36
ATOM     36  O   UNL     1      36.266 -15.406 -23.837  0.00  0.00    -0.382 OA
ATOM     37  H   UNL     1      36.695 -16.270 -23.735  0.00  0.00    +0.211 HD
ENDBRANCH  29  36
ENDBRANCH  23  29
ENDBRANCH  21  24
ENDBRANCH   1  21
TORSDOF 7
ENDMDL
MODEL 4
REMARK VINA RESULT:     -11.5      6.323     14.405
REMARK  Name = 44472635
REMARK  7 active torsions:
REMARK  status: ('A' for Active; 'I' for Inactive)
REMARK    1  A    between atoms: C_1  and  C_21
REMARK    2  A    between atoms: C_4  and  N_8
REMARK    3  A    between atoms: C_9  and  C_14
REMARK    4  A    between atoms: C_21  and  C_24
REMARK    5  A    between atoms: C_23  and  C_29
REMARK    6  A    between atoms: C_29  and  C_30
REMARK    7  A    between atoms: C_29  and  O_36
REMARK                            x       y       z     vdW  Elec       q    Type
REMARK                         _______ _______ _______ _____ _____    ______ ____
ROOT
ATOM      1  C   UNL     1      34.078 -11.675 -24.712  0.00  0.00    -0.024 C 
ATOM      2  C   UNL     1      33.143 -11.422 -23.708  0.00  0.00    -0.003 C 
ATOM      3  C   UNL     1      34.937 -10.660 -25.136  0.00  0.00    -0.003 C 
ATOM      4  C   UNL     1      33.927  -9.142 -23.552  0.00  0.00    +0.050 C 
ATOM      5  C   UNL     1      33.067 -10.156 -23.128  0.00  0.00    +0.014 C 
ATOM      6  C   UNL     1      34.862  -9.394 -24.556  0.00  0.00    +0.014 C 
ENDROOT
BRANCH   4   8
ATOM      7  O   UNL     1      31.673  -7.800 -22.074  0.00  0.00    -0.273 OA
ATOM      8  N   UNL     1      33.850  -7.857 -22.963  0.00  0.00    -0.283 N 
ATOM      9  C   UNL     1      32.771  -7.297 -22.294  0.00  0.00    +0.245 C 
ATOM     10  H   UNL     1      34.656  -7.296 -23.038  0.00  0.00    +0.155 HD
BRANCH   9  14
ATOM     11  O   UNL     1      34.622  -5.184 -24.248  0.00  0.00    -0.269 OA
ATOM     12  N   UNL     1      32.743  -5.002 -22.887  0.00  0.00    -0.237 N 
ATOM     13  N   UNL     1      30.947  -3.536 -23.446  0.00  0.00    -0.233 NA
ATOM     14  C   UNL     1      33.090  -5.912 -21.817  0.00  0.00    +0.158 C 
ATOM     15  C   UNL     1      32.179  -5.486 -20.675  0.00  0.00    +0.037 C 
ATOM     16  C   UNL     1      30.948  -4.891 -21.365  0.00  0.00    +0.064 C 
ATOM     17  C   UNL     1      31.513  -4.391 -22.660  0.00  0.00    +0.115 C 
ATOM     18  C   UNL     1      33.519  -4.715 -23.992  0.00  0.00    +0.256 C 
ATOM     19  C   UNL     1      32.873  -3.735 -24.903  0.00  0.00    +0.079 C 
ATOM     20  C   UNL     1      31.672  -3.235 -24.575  0.00  0.00    +0.105 C 
ENDBRANCH   9  14
ENDBRANCH   4   8
BRANCH   1  21
ATOM     21  C   UNL     1      34.158 -13.027 -25.335  0.00  0.00    +0.005 C 
BRANCH  21  24
ATOM     22  N   UNL     1      34.368 -15.452 -24.863  0.00  0.00    +0.388 N 
ATOM     23  C   UNL     1      34.517 -16.315 -23.681  0.00  0.00    -0.030 C 
ATOM     24  C   UNL     1      33.984 -14.143 -24.317  0.00  0.00    -0.057 C 
ATOM     25  C   UNL     1      35.081 -15.409 -22.586  0.00  0.00    -0.021 C 
ATOM     26  C   UNL     1      34.892 -13.988 -23.105  0.00  0.00    -0.023 C 
ATOM     27  H   UNL     1      33.641 -15.811 -25.481  0.00  0.00    -0.084 HD
ATOM     28  H   UNL     1      35.221 -15.406 -25.419  0.00  0.00    -0.084 HD
BRANCH  23  29
ATOM     29  C   UNL     1      35.402 -17.520 -23.969  0.00  0.00    +0.113 C 
BRANCH  29  30
ATOM     30  C   UNL     1      35.703 -18.318 -22.722  0.00  0.00    +0.002 C 
ATOM     31  C   UNL     1      36.975 -18.268 -22.151  0.00  0.00    -0.002 C 
ATOM     32  C   UNL     1      34.710 -19.107 -22.142  0.00  0.00    -0.002 C 
ATOM     33  C   UNL     1      37.253 -19.005 -21.000  0.00  0.00    -0.000 C 
ATOM     34  C   UNL     1      34.987 -19.846 -20.992  0.00  0.00    -0.000 C 
ATOM     35  C   UNL     1      36.259 -19.794 -20.420  0.00  0.00    -0.000 C 
ENDBRANCH  29  30
BRANCH  29  36
ATOM     36  O   UNL     1      34.764 -18.369 -24.923  0.00  0.00    -0.382 OA
ATOM     37  H   UNL     1      35.274 -18.369 -25.748  0.00  0.00    +0.211 HD
ENDBRANCH  29  36
ENDBRANCH  23  29
ENDBRANCH  21  24
ENDBRANCH   1  21
TORSDOF 7
ENDMDL
MODEL 5
REMARK VINA RESULT:     -11.3      4.882      9.220
REMARK  Name = 44472635
REMARK  7 active torsions:
REMARK  status: ('A' for Active; 'I' for Inactive)
REMARK    1  A    between atoms: C_1  and  C_21
REMARK    2  A    between atoms: C_4  and  N_8
REMARK    3  A    between atoms: C_9  and  C_14
REMARK    4  A    between atoms: C_21  and  C_24
REMARK    5  A    between atoms: C_23  and  C_29
REMARK    6  A    between atoms: C_29  and  C_30
REMARK    7  A    between atoms: C_29  and  O_36
REMARK                            x       y       z     vdW  Elec       q    Type
REMARK                         _______ _______ _______ _____ _____    ______ ____
ROOT
ATOM      1  C   UNL     1      32.536 -11.902 -21.619  0.00  0.00    -0.024 C 
ATOM      2  C   UNL     1      32.671 -12.933 -20.689  0.00  0.00    -0.003 C 
ATOM      3  C   UNL     1      33.156 -12.002 -22.865  0.00  0.00    -0.003 C 
ATOM      4  C   UNL     1      34.043 -14.163 -22.251  0.00  0.00    +0.050 C 
ATOM      5  C   UNL     1      33.424 -14.064 -21.005  0.00  0.00    +0.014 C 
ATOM      6  C   UNL     1      33.908 -13.132 -23.181  0.00  0.00    +0.014 C 
ENDROOT
BRANCH   4   8
ATOM      7  O   UNL     1      35.266 -16.259 -20.469  0.00  0.00    -0.273 OA
ATOM      8  N   UNL     1      34.807 -15.310 -22.572  0.00  0.00    -0.283 N 
ATOM      9  C   UNL     1      35.345 -16.240 -21.694  0.00  0.00    +0.245 C 
ATOM     10  H   UNL     1      34.976 -15.466 -23.530  0.00  0.00    +0.155 HD
BRANCH   9  14
ATOM     11  O   UNL     1      37.861 -17.969 -20.145  0.00  0.00    -0.269 OA
ATOM     12  N   UNL     1      36.103 -18.484 -21.581  0.00  0.00    -0.237 N 
ATOM     13  N   UNL     1      34.918 -20.545 -21.398  0.00  0.00    -0.233 NA
ATOM     14  C   UNL     1      36.090 -17.312 -22.430  0.00  0.00    +0.158 C 
ATOM     15  C   UNL     1      35.335 -17.775 -23.668  0.00  0.00    +0.037 C 
ATOM     16  C   UNL     1      34.397 -18.872 -23.159  0.00  0.00    +0.064 C 
ATOM     17  C   UNL     1      35.140 -19.409 -21.973  0.00  0.00    +0.115 C 
ATOM     18  C   UNL     1      36.969 -18.715 -20.531  0.00  0.00    +0.256 C 
ATOM     19  C   UNL     1      36.717 -20.018 -19.863  0.00  0.00    +0.079 C 
ATOM     20  C   UNL     1      35.740 -20.811 -20.329  0.00  0.00    +0.105 C 
ENDBRANCH   9  14
ENDBRANCH   4   8
BRANCH   1  21
ATOM     21  C   UNL     1      31.732 -10.692 -21.281  0.00  0.00    +0.005 C 
BRANCH  21  24
ATOM     22  N   UNL     1      32.477  -8.456 -22.049  0.00  0.00    +0.388 N 
ATOM     23  C   UNL     1      33.047  -7.240 -21.448  0.00  0.00    -0.030 C 
ATOM     24  C   UNL     1      32.604  -9.479 -21.002  0.00  0.00    -0.057 C 
ATOM     25  C   UNL     1      32.670  -7.305 -19.968  0.00  0.00    -0.021 C 
ATOM     26  C   UNL     1      32.203  -8.737 -19.735  0.00  0.00    -0.023 C 
ATOM     27  H   UNL     1      33.000  -8.725 -22.881  0.00  0.00    -0.084 HD
ATOM     28  H   UNL     1      31.511  -8.324 -22.347  0.00  0.00    -0.084 HD
BRANCH  23  29
ATOM     29  C   UNL     1      32.542  -5.980 -22.136  0.00  0.00    +0.113 C 
BRANCH  29  30
ATOM     30  C   UNL     1      33.373  -5.617 -23.346  0.00  0.00    +0.002 C 
ATOM     31  C   UNL     1      32.955  -4.595 -24.199  0.00  0.00    -0.002 C 
ATOM     32  C   UNL     1      34.557  -6.305 -23.610  0.00  0.00    -0.002 C 
ATOM     33  C   UNL     1      33.721  -4.262 -25.315  0.00  0.00    -0.000 C 
ATOM     34  C   UNL     1      35.324  -5.972 -24.726  0.00  0.00    -0.000 C 
ATOM     35  C   UNL     1      34.906  -4.949 -25.579  0.00  0.00    -0.000 C 
ENDBRANCH  29  30
BRANCH  29  36
ATOM     36  O   UNL     1      31.185  -6.163 -22.540  0.00  0.00    -0.382 OA
ATOM     37  H   UNL     1      30.984  -7.111 -22.578  0.00  0.00    +0.211 HD
ENDBRANCH  29  36
ENDBRANCH  23  29
ENDBRANCH  21  24
ENDBRANCH   1  21
TORSDOF 7
ENDMDL
MODEL 6
REMARK VINA RESULT:     -11.0      5.776     10.495
REMARK  Name = 44472635
REMARK  7 active torsions:
REMARK  status: ('A' for Active; 'I' for Inactive)
REMARK    1  A    between atoms: C_1  and  C_21
REMARK    2  A    between atoms: C_4  and  N_8
REMARK    3  A    between atoms: C_9  and  C_14
REMARK    4  A    between atoms: C_21  and  C_24
REMARK    5  A    between atoms: C_23  and  C_29
REMARK    6  A    between atoms: C_29  and  C_30
REMARK    7  A    between atoms: C_29  and  O_36
REMARK                            x       y       z     vdW  Elec       q    Type
REMARK                         _______ _______ _______ _____ _____    ______ ____
ROOT
ATOM      1  C   UNL     1      32.401 -10.671 -22.166  0.00  0.00    -0.024 C 
ATOM      2  C   UNL     1      33.306 -10.621 -23.227  0.00  0.00    -0.003 C 
ATOM      3  C   UNL     1      32.223 -11.860 -21.458  0.00  0.00    -0.003 C 
ATOM      4  C   UNL     1      33.853 -12.947 -22.870  0.00  0.00    +0.050 C 
ATOM      5  C   UNL     1      34.032 -11.759 -23.579  0.00  0.00    +0.014 C 
ATOM      6  C   UNL     1      32.949 -12.997 -21.809  0.00  0.00    +0.014 C 
ENDROOT
BRANCH   4   8
ATOM      7  O   UNL     1      34.902 -15.200 -21.169  0.00  0.00    -0.273 OA
ATOM      8  N   UNL     1      34.590 -14.101 -23.226  0.00  0.00    -0.283 N 
ATOM      9  C   UNL     1      35.046 -15.106 -22.385  0.00  0.00    +0.245 C 
ATOM     10  H   UNL     1      34.803 -14.203 -24.183  0.00  0.00    +0.155 HD
BRANCH   9  14
ATOM     11  O   UNL     1      36.690 -17.610 -20.729  0.00  0.00    -0.269 OA
ATOM     12  N   UNL     1      35.364 -17.442 -22.635  0.00  0.00    -0.237 N 
ATOM     13  N   UNL     1      33.859 -19.185 -23.253  0.00  0.00    -0.233 NA
ATOM     14  C   UNL     1      35.788 -16.159 -23.151  0.00  0.00    +0.158 C 
ATOM     15  C   UNL     1      35.358 -16.201 -24.611  0.00  0.00    +0.037 C 
ATOM     16  C   UNL     1      34.148 -17.138 -24.630  0.00  0.00    +0.064 C 
ATOM     17  C   UNL     1      34.419 -18.040 -23.463  0.00  0.00    +0.115 C 
ATOM     18  C   UNL     1      35.839 -18.054 -21.491  0.00  0.00    +0.256 C 
ATOM     19  C   UNL     1      35.197 -19.370 -21.241  0.00  0.00    +0.079 C 
ATOM     20  C   UNL     1      34.282 -19.824 -22.111  0.00  0.00    +0.105 C 
ENDBRANCH   9  14
ENDBRANCH   4   8
BRANCH   1  21
ATOM     21  C   UNL     1      31.623  -9.456 -21.791  0.00  0.00    +0.005 C 
BRANCH  21  24
ATOM     22  N   UNL     1      32.424  -7.266 -22.633  0.00  0.00    +0.388 N 
ATOM     23  C   UNL     1      33.012  -6.040 -22.071  0.00  0.00    -0.030 C 
ATOM     24  C   UNL     1      32.516  -8.250 -21.545  0.00  0.00    -0.057 C 
ATOM     25  C   UNL     1      32.613  -6.040 -20.595  0.00  0.00    -0.021 C 
ATOM     26  C   UNL     1      32.113  -7.452 -20.314  0.00  0.00    -0.023 C 
ATOM     27  H   UNL     1      32.953  -7.578 -23.447  0.00  0.00    -0.084 HD
ATOM     28  H   UNL     1      31.465  -7.126 -22.950  0.00  0.00    -0.084 HD
BRANCH  23  29
ATOM     29  C   UNL     1      32.542  -4.797 -22.813  0.00  0.00    +0.113 C 
BRANCH  29  30
ATOM     30  C   UNL     1      33.296  -4.584 -24.106  0.00  0.00    +0.002 C 
ATOM     31  C   UNL     1      32.855  -3.630 -25.023  0.00  0.00    -0.002 C 
ATOM     32  C   UNL     1      34.434  -5.343 -24.382  0.00  0.00    -0.002 C 
ATOM     33  C   UNL     1      33.550  -3.435 -26.215  0.00  0.00    -0.000 C 
ATOM     34  C   UNL     1      35.130  -5.148 -25.575  0.00  0.00    -0.000 C 
ATOM     35  C   UNL     1      34.688  -4.194 -26.491  0.00  0.00    -0.000 C 
ENDBRANCH  29  30
BRANCH  29  36
ATOM     36  O   UNL     1      31.148  -4.905 -23.100  0.00  0.00    -0.382 OA
ATOM     37  H   UNL     1      30.936  -4.370 -23.880  0.00  0.00    +0.211 HD
ENDBRANCH  29  36
ENDBRANCH  23  29
ENDBRANCH  21  24
ENDBRANCH   1  21
TORSDOF 7
ENDMDL
MODEL 7
REMARK VINA RESULT:     -11.0      3.150     12.008
REMARK  Name = 44472635
REMARK  7 active torsions:
REMARK  status: ('A' for Active; 'I' for Inactive)
REMARK    1  A    between atoms: C_1  and  C_21
REMARK    2  A    between atoms: C_4  and  N_8
REMARK    3  A    between atoms: C_9  and  C_14
REMARK    4  A    between atoms: C_21  and  C_24
REMARK    5  A    between atoms: C_23  and  C_29
REMARK    6  A    between atoms: C_29  and  C_30
REMARK    7  A    between atoms: C_29  and  O_36
REMARK                            x       y       z     vdW  Elec       q    Type
REMARK                         _______ _______ _______ _____ _____    ______ ____
ROOT
ATOM      1  C   UNL     1      35.695 -17.820 -22.778  0.00  0.00    -0.024 C 
ATOM      2  C   UNL     1      35.629 -16.718 -21.925  0.00  0.00    -0.003 C 
ATOM      3  C   UNL     1      35.189 -17.729 -24.075  0.00  0.00    -0.003 C 
ATOM      4  C   UNL     1      34.553 -15.435 -23.667  0.00  0.00    +0.050 C 
ATOM      5  C   UNL     1      35.057 -15.526 -22.369  0.00  0.00    +0.014 C 
ATOM      6  C   UNL     1      34.620 -16.537 -24.520  0.00  0.00    +0.014 C 
ENDROOT
BRANCH   4   8
ATOM      7  O   UNL     1      34.735 -12.644 -22.551  0.00  0.00    -0.273 OA
ATOM      8  N   UNL     1      33.974 -14.225 -24.119  0.00  0.00    -0.283 N 
ATOM      9  C   UNL     1      34.099 -12.965 -23.551  0.00  0.00    +0.245 C 
ATOM     10  H   UNL     1      33.419 -14.285 -24.930  0.00  0.00    +0.155 HD
BRANCH   9  14
ATOM     11  O   UNL     1      31.591 -11.181 -22.055  0.00  0.00    -0.269 OA
ATOM     12  N   UNL     1      33.320 -10.726 -23.546  0.00  0.00    -0.237 N 
ATOM     13  N   UNL     1      34.486  -8.647 -23.494  0.00  0.00    -0.233 NA
ATOM     14  C   UNL     1      33.331 -11.942 -24.331  0.00  0.00    +0.158 C 
ATOM     15  C   UNL     1      34.061 -11.539 -25.605  0.00  0.00    +0.037 C 
ATOM     16  C   UNL     1      34.996 -10.406 -25.171  0.00  0.00    +0.064 C 
ATOM     17  C   UNL     1      34.266  -9.814 -24.004  0.00  0.00    +0.115 C 
ATOM     18  C   UNL     1      32.469 -10.447 -22.495  0.00  0.00    +0.256 C 
ATOM     19  C   UNL     1      32.718  -9.107 -21.902  0.00  0.00    +0.079 C 
ATOM     20  C   UNL     1      33.678  -8.331 -22.427  0.00  0.00    +0.105 C 
ENDBRANCH   9  14
ENDBRANCH   4   8
BRANCH   1  21
ATOM     21  C   UNL     1      36.303 -19.096 -22.302  0.00  0.00    +0.005 C 
BRANCH  21  24
ATOM     22  N   UNL     1      34.749 -20.277 -20.774  0.00  0.00    +0.388 N 
ATOM     23  C   UNL     1      34.769 -20.789 -19.395  0.00  0.00    -0.030 C 
ATOM     24  C   UNL     1      35.933 -19.411 -20.862  0.00  0.00    -0.057 C 
ATOM     25  C   UNL     1      36.248 -20.965 -19.049  0.00  0.00    -0.021 C 
ATOM     26  C   UNL     1      37.006 -20.207 -20.132  0.00  0.00    -0.023 C 
ATOM     27  H   UNL     1      33.898 -19.743 -20.947  0.00  0.00    -0.084 HD
ATOM     28  H   UNL     1      34.764 -21.027 -21.465  0.00  0.00    -0.084 HD
BRANCH  23  29
ATOM     29  C   UNL     1      33.970 -22.078 -19.259  0.00  0.00    +0.113 C 
BRANCH  29  30
ATOM     30  C   UNL     1      33.654 -22.404 -17.817  0.00  0.00    +0.002 C 
ATOM     31  C   UNL     1      34.685 -22.696 -16.924  0.00  0.00    -0.002 C 
ATOM     32  C   UNL     1      32.329 -22.414 -17.379  0.00  0.00    -0.002 C 
ATOM     33  C   UNL     1      34.392 -22.998 -15.595  0.00  0.00    -0.000 C 
ATOM     34  C   UNL     1      32.036 -22.717 -16.050  0.00  0.00    -0.000 C 
ATOM     35  C   UNL     1      33.068 -23.008 -15.157  0.00  0.00    -0.000 C 
ENDBRANCH  29  30
BRANCH  29  36
ATOM     36  O   UNL     1      32.749 -21.967 -19.990  0.00  0.00    -0.382 OA
ATOM     37  H   UNL     1      32.839 -22.427 -20.839  0.00  0.00    +0.211 HD
ENDBRANCH  29  36
ENDBRANCH  23  29
ENDBRANCH  21  24
ENDBRANCH   1  21
TORSDOF 7
ENDMDL
MODEL 8
REMARK VINA RESULT:     -10.8      1.897      3.420
REMARK  Name = 44472635
REMARK  7 active torsions:
REMARK  status: ('A' for Active; 'I' for Inactive)
REMARK    1  A    between atoms: C_1  and  C_21
REMARK    2  A    between atoms: C_4  and  N_8
REMARK    3  A    between atoms: C_9  and  C_14
REMARK    4  A    between atoms: C_21  and  C_24
REMARK    5  A    between atoms: C_23  and  C_29
REMARK    6  A    between atoms: C_29  and  C_30
REMARK    7  A    between atoms: C_29  and  O_36
REMARK                            x       y       z     vdW  Elec       q    Type
REMARK                         _______ _______ _______ _____ _____    ______ ____
ROOT
ATOM      1  C   UNL     1      33.555 -21.504 -18.885  0.00  0.00    -0.024 C 
ATOM      2  C   UNL     1      34.905 -21.765 -18.649  0.00  0.00    -0.003 C 
ATOM      3  C   UNL     1      32.585 -22.023 -18.026  0.00  0.00    -0.003 C 
ATOM      4  C   UNL     1      34.314 -23.061 -16.697  0.00  0.00    +0.050 C 
ATOM      5  C   UNL     1      35.285 -22.544 -17.556  0.00  0.00    +0.014 C 
ATOM      6  C   UNL     1      32.964 -22.800 -16.933  0.00  0.00    +0.014 C 
ENDROOT
BRANCH   4   8
ATOM      7  O   UNL     1      36.011 -22.377 -14.306  0.00  0.00    -0.273 OA
ATOM      8  N   UNL     1      34.699 -23.850 -15.588  0.00  0.00    -0.283 N 
ATOM      9  C   UNL     1      35.490 -23.469 -14.513  0.00  0.00    +0.245 C 
ATOM     10  H   UNL     1      34.366 -24.777 -15.577  0.00  0.00    +0.155 HD
BRANCH   9  14
ATOM     11  O   UNL     1      36.393 -26.577 -15.627  0.00  0.00    -0.269 OA
ATOM     12  N   UNL     1      36.946 -25.210 -13.827  0.00  0.00    -0.237 N 
ATOM     13  N   UNL     1      39.161 -25.162 -12.943  0.00  0.00    -0.233 NA
ATOM     14  C   UNL     1      35.666 -24.598 -13.543  0.00  0.00    +0.158 C 
ATOM     15  C   UNL     1      35.818 -24.095 -12.115  0.00  0.00    +0.037 C 
ATOM     16  C   UNL     1      37.316 -23.820 -11.960  0.00  0.00    +0.064 C 
ATOM     17  C   UNL     1      37.924 -24.787 -12.931  0.00  0.00    +0.115 C 
ATOM     18  C   UNL     1      37.203 -26.131 -14.822  0.00  0.00    +0.256 C 
ATOM     19  C   UNL     1      38.624 -26.565 -14.845  0.00  0.00    +0.079 C 
ATOM     20  C   UNL     1      39.472 -26.063 -13.934  0.00  0.00    +0.105 C 
ENDBRANCH   9  14
ENDBRANCH   4   8
BRANCH   1  21
ATOM     21  C   UNL     1      33.148 -20.674 -20.055  0.00  0.00    +0.005 C 
BRANCH  21  24
ATOM     22  N   UNL     1      34.244 -18.866 -21.349  0.00  0.00    +0.388 N 
ATOM     23  C   UNL     1      35.601 -18.535 -21.810  0.00  0.00    -0.030 C 
ATOM     24  C   UNL     1      34.334 -20.267 -20.914  0.00  0.00    -0.057 C 
ATOM     25  C   UNL     1      36.542 -19.306 -20.884  0.00  0.00    -0.021 C 
ATOM     26  C   UNL     1      35.657 -20.317 -20.164  0.00  0.00    -0.023 C 
ATOM     27  H   UNL     1      33.572 -18.768 -22.110  0.00  0.00    -0.084 HD
ATOM     28  H   UNL     1      33.926 -18.247 -20.604  0.00  0.00    -0.084 HD
BRANCH  23  29
ATOM     29  C   UNL     1      35.852 -17.034 -21.795  0.00  0.00    +0.113 C 
BRANCH  29  30
ATOM     30  C   UNL     1      35.127 -16.323 -22.915  0.00  0.00    +0.002 C 
ATOM     31  C   UNL     1      34.740 -17.028 -24.055  0.00  0.00    -0.002 C 
ATOM     32  C   UNL     1      34.848 -14.960 -22.810  0.00  0.00    -0.002 C 
ATOM     33  C   UNL     1      34.072 -16.371 -25.088  0.00  0.00    -0.000 C 
ATOM     34  C   UNL     1      34.180 -14.303 -23.843  0.00  0.00    -0.000 C 
ATOM     35  C   UNL     1      33.792 -15.009 -24.982  0.00  0.00    -0.000 C 
ENDBRANCH  29  30
BRANCH  29  36
ATOM     36  O   UNL     1      35.429 -16.487 -20.546  0.00  0.00    -0.382 OA
ATOM     37  H   UNL     1      34.638 -16.957 -20.239  0.00  0.00    +0.211 HD
ENDBRANCH  29  36
ENDBRANCH  23  29
ENDBRANCH  21  24
ENDBRANCH   1  21
TORSDOF 7
ENDMDL
MODEL 9
REMARK VINA RESULT:     -10.8      5.187     13.080
REMARK  Name = 44472635
REMARK  7 active torsions:
REMARK  status: ('A' for Active; 'I' for Inactive)
REMARK    1  A    between atoms: C_1  and  C_21
REMARK    2  A    between atoms: C_4  and  N_8
REMARK    3  A    between atoms: C_9  and  C_14
REMARK    4  A    between atoms: C_21  and  C_24
REMARK    5  A    between atoms: C_23  and  C_29
REMARK    6  A    between atoms: C_29  and  C_30
REMARK    7  A    between atoms: C_29  and  O_36
REMARK                            x       y       z     vdW  Elec       q    Type
REMARK                         _______ _______ _______ _____ _____    ______ ____
ROOT
ATOM      1  C   UNL     1      33.710 -14.633 -24.641  0.00  0.00    -0.024 C 
ATOM      2  C   UNL     1      33.458 -13.932 -25.821  0.00  0.00    -0.003 C 
ATOM      3  C   UNL     1      34.090 -13.943 -23.489  0.00  0.00    -0.003 C 
ATOM      4  C   UNL     1      33.966 -11.855 -24.696  0.00  0.00    +0.050 C 
ATOM      5  C   UNL     1      33.587 -12.544 -25.849  0.00  0.00    +0.014 C 
ATOM      6  C   UNL     1      34.217 -12.555 -23.516  0.00  0.00    +0.014 C 
ENDROOT
BRANCH   4   8
ATOM      7  O   UNL     1      32.746  -9.744 -22.929  0.00  0.00    -0.273 OA
ATOM      8  N   UNL     1      34.096 -10.446 -24.724  0.00  0.00    -0.283 N 
ATOM      9  C   UNL     1      33.499  -9.526 -23.874  0.00  0.00    +0.245 C 
ATOM     10  H   UNL     1      34.676 -10.077 -25.429  0.00  0.00    +0.155 HD
BRANCH   9  14
ATOM     11  O   UNL     1      31.112  -7.250 -24.788  0.00  0.00    -0.269 OA
ATOM     12  N   UNL     1      33.035  -7.235 -23.477  0.00  0.00    -0.237 N 
ATOM     13  N   UNL     1      33.173  -5.913 -21.497  0.00  0.00    -0.233 NA
ATOM     14  C   UNL     1      33.890  -8.124 -24.234  0.00  0.00    +0.158 C 
ATOM     15  C   UNL     1      35.288  -7.784 -23.739  0.00  0.00    +0.037 C 
ATOM     16  C   UNL     1      35.079  -7.284 -22.307  0.00  0.00    +0.064 C 
ATOM     17  C   UNL     1      33.689  -6.727 -22.358  0.00  0.00    +0.115 C 
ATOM     18  C   UNL     1      31.744  -6.874 -23.807  0.00  0.00    +0.256 C 
ATOM     19  C   UNL     1      31.143  -5.941 -22.819  0.00  0.00    +0.079 C 
ATOM     20  C   UNL     1      31.877  -5.543 -21.769  0.00  0.00    +0.105 C 
ENDBRANCH   9  14
ENDBRANCH   4   8
BRANCH   1  21
ATOM     21  C   UNL     1      33.575 -16.117 -24.611  0.00  0.00    +0.005 C 
BRANCH  21  24
ATOM     22  N   UNL     1      35.371 -16.627 -22.979  0.00  0.00    +0.388 N 
ATOM     23  C   UNL     1      36.413 -17.650 -22.802  0.00  0.00    -0.030 C 
ATOM     24  C   UNL     1      34.903 -16.813 -24.360  0.00  0.00    -0.057 C 
ATOM     25  C   UNL     1      35.939 -18.855 -23.615  0.00  0.00    -0.021 C 
ATOM     26  C   UNL     1      34.818 -18.326 -24.501  0.00  0.00    -0.023 C 
ATOM     27  H   UNL     1      35.759 -15.693 -22.853  0.00  0.00    -0.084 HD
ATOM     28  H   UNL     1      34.617 -16.719 -22.298  0.00  0.00    -0.084 HD
BRANCH  23  29
ATOM     29  C   UNL     1      36.639 -17.977 -21.333  0.00  0.00    +0.113 C 
BRANCH  29  30
ATOM     30  C   UNL     1      35.746 -19.098 -20.853  0.00  0.00    +0.002 C 
ATOM     31  C   UNL     1      36.305 -20.234 -20.268  0.00  0.00    -0.002 C 
ATOM     32  C   UNL     1      34.362 -18.997 -20.996  0.00  0.00    -0.002 C 
ATOM     33  C   UNL     1      35.481 -21.269 -19.826  0.00  0.00    -0.000 C 
ATOM     34  C   UNL     1      33.538 -20.032 -20.554  0.00  0.00    -0.000 C 
ATOM     35  C   UNL     1      34.097 -21.168 -19.969  0.00  0.00    -0.000 C 
ENDBRANCH  29  30
BRANCH  29  36
ATOM     36  O   UNL     1      38.002 -18.346 -21.126  0.00  0.00    -0.382 OA
ATOM     37  H   UNL     1      38.043 -19.116 -20.537  0.00  0.00    +0.211 HD
ENDBRANCH  29  36
ENDBRANCH  23  29
ENDBRANCH  21  24
ENDBRANCH   1  21
TORSDOF 7
ENDMDL
