MODEL 1
REMARK VINA RESULT:     -12.4      0.000      0.000
REMARK  Name = 24996872
REMARK  6 active torsions:
REMARK  status: ('A' for Active; 'I' for Inactive)
REMARK    1  A    between atoms: O_1  and  C_3
REMARK    2  A    between atoms: O_1  and  C_18
REMARK    3  A    between atoms: C_7  and  C_8
REMARK    4  A    between atoms: C_11  and  S_14
REMARK    5  A    between atoms: C_18  and  C_23
REMARK    6  A    between atoms: C_29  and  C_30
REMARK                            x       y       z     vdW  Elec       q    Type
REMARK                         _______ _______ _______ _____ _____    ______ ____
ROOT
ATOM      1  O   UNL     1      35.279 -15.744 -24.737  0.00  0.00    -0.474 OA
ENDROOT
BRANCH   1   3
ATOM      2  N   UNL     1      35.229 -17.562 -21.560  0.00  0.00    -0.241 NA
ATOM      3  C   UNL     1      35.080 -16.762 -23.836  0.00  0.00    +0.158 C 
ATOM      4  C   UNL     1      34.553 -17.983 -24.239  0.00  0.00    +0.040 C 
ATOM      5  C   UNL     1      35.399 -16.603 -22.497  0.00  0.00    +0.136 C 
ATOM      6  C   UNL     1      34.364 -18.995 -23.304  0.00  0.00    +0.022 C 
ATOM      7  C   UNL     1      34.714 -18.736 -21.989  0.00  0.00    +0.082 C 
BRANCH   7   8
ATOM      8  C   UNL     1      34.545 -19.739 -20.964  0.00  0.00    +0.018 C 
ATOM      9  C   UNL     1      35.663 -20.328 -20.374  0.00  0.00    +0.003 C 
ATOM     10  C   UNL     1      33.264 -20.117 -20.564  0.00  0.00    +0.003 C 
ATOM     11  C   UNL     1      34.217 -21.676 -18.983  0.00  0.00    +0.106 C 
ATOM     12  C   UNL     1      35.498 -21.297 -19.384  0.00  0.00    +0.018 C 
ATOM     13  C   UNL     1      33.099 -21.086 -19.574  0.00  0.00    +0.018 C 
BRANCH  11  14
ATOM     14  S   UNL     1      34.012 -22.888 -17.744  0.00  0.00    +0.010 S 
ATOM     15  O   UNL     1      33.776 -24.166 -18.402  0.00  0.00    -0.169 OA
ATOM     16  O   UNL     1      35.093 -22.762 -16.776  0.00  0.00    -0.169 OA
ATOM     17  C   UNL     1      32.513 -22.418 -16.910  0.00  0.00    +0.182 C 
ENDBRANCH  11  14
ENDBRANCH   7   8
ENDBRANCH   1   3
BRANCH   1  18
ATOM     18  C   UNL     1      34.158 -14.942 -25.059  0.00  0.00    +0.205 C 
BRANCH  18  23
ATOM     19  O   UNL     1      32.855  -8.747 -24.086  0.00  0.00    -0.296 OA
ATOM     20  N   UNL     1      33.349 -10.979 -23.577  0.00  0.00    -0.251 N 
ATOM     21  N   UNL     1      32.588  -9.321 -21.938  0.00  0.00    -0.300 NA
ATOM     22  N   UNL     1      32.417  -7.592 -23.425  0.00  0.00    -0.010 NA
ATOM     23  C   UNL     1      34.322 -13.585 -24.378  0.00  0.00    +0.047 C 
ATOM     24  C   UNL     1      33.307 -13.419 -23.242  0.00  0.00    +0.025 C 
ATOM     25  C   UNL     1      34.152 -12.444 -25.386  0.00  0.00    +0.025 C 
ATOM     26  C   UNL     1      33.434 -12.050 -22.575  0.00  0.00    +0.096 C 
ATOM     27  C   UNL     1      34.271 -11.076 -24.714  0.00  0.00    +0.096 C 
ATOM     28  C   UNL     1      32.928  -9.717 -23.138  0.00  0.00    +0.379 C 
ATOM     29  C   UNL     1      32.282  -8.011 -22.163  0.00  0.00    +0.104 C 
BRANCH  29  30
ATOM     30  C   UNL     1      31.832  -7.117 -21.092  0.00  0.00    +0.101 C 
ATOM     31  C   UNL     1      32.884  -6.927 -19.969  0.00  0.00    +0.017 C 
ATOM     32  C   UNL     1      31.388  -5.723 -21.601  0.00  0.00    +0.017 C 
ENDBRANCH  29  30
ENDBRANCH  18  23
ENDBRANCH   1  18
TORSDOF 6
ENDMDL
MODEL 2
REMARK VINA RESULT:     -11.9      3.854     11.645
REMARK  Name = 24996872
REMARK  6 active torsions:
REMARK  status: ('A' for Active; 'I' for Inactive)
REMARK    1  A    between atoms: O_1  and  C_3
REMARK    2  A    between atoms: O_1  and  C_18
REMARK    3  A    between atoms: C_7  and  C_8
REMARK    4  A    between atoms: C_11  and  S_14
REMARK    5  A    between atoms: C_18  and  C_23
REMARK    6  A    between atoms: C_29  and  C_30
REMARK                            x       y       z     vdW  Elec       q    Type
REMARK                         _______ _______ _______ _____ _____    ______ ____
ROOT
ATOM      1  O   UNL     1      34.138 -16.611 -24.961  0.00  0.00    -0.474 OA
ENDROOT
BRANCH   1   3
ATOM      2  N   UNL     1      33.650 -13.001 -25.325  0.00  0.00    -0.241 NA
ATOM      3  C   UNL     1      34.130 -15.273 -24.652  0.00  0.00    +0.158 C 
ATOM      4  C   UNL     1      34.571 -14.821 -23.414  0.00  0.00    +0.040 C 
ATOM      5  C   UNL     1      33.683 -14.331 -25.565  0.00  0.00    +0.136 C 
ATOM      6  C   UNL     1      34.553 -13.460 -23.130  0.00  0.00    +0.022 C 
ATOM      7  C   UNL     1      34.086 -12.599 -24.110  0.00  0.00    +0.082 C 
BRANCH   7   8
ATOM      8  C   UNL     1      34.037 -11.174 -23.886  0.00  0.00    +0.018 C 
ATOM      9  C   UNL     1      33.024 -10.626 -23.099  0.00  0.00    +0.003 C 
ATOM     10  C   UNL     1      35.004 -10.345 -24.454  0.00  0.00    +0.003 C 
ATOM     11  C   UNL     1      33.945  -8.420 -23.451  0.00  0.00    +0.106 C 
ATOM     12  C   UNL     1      32.978  -9.249 -22.882  0.00  0.00    +0.018 C 
ATOM     13  C   UNL     1      34.958  -8.968 -24.237  0.00  0.00    +0.018 C 
BRANCH  11  14
ATOM     14  S   UNL     1      33.887  -6.697 -23.179  0.00  0.00    +0.010 S 
ATOM     15  O   UNL     1      33.751  -6.472 -21.746  0.00  0.00    -0.169 OA
ATOM     16  O   UNL     1      34.979  -6.066 -23.908  0.00  0.00    -0.169 OA
ATOM     17  C   UNL     1      32.375  -6.176 -23.959  0.00  0.00    +0.182 C 
ENDBRANCH  11  14
ENDBRANCH   7   8
ENDBRANCH   1   3
BRANCH   1  18
ATOM     18  C   UNL     1      35.307 -17.340 -24.636  0.00  0.00    +0.205 C 
BRANCH  18  23
ATOM     19  O   UNL     1      34.931 -21.569 -19.840  0.00  0.00    -0.296 OA
ATOM     20  N   UNL     1      35.612 -19.665 -21.022  0.00  0.00    -0.251 N 
ATOM     21  N   UNL     1      36.698 -20.492 -18.985  0.00  0.00    -0.300 NA
ATOM     22  N   UNL     1      35.309 -22.286 -18.697  0.00  0.00    -0.010 NA
ATOM     23  C   UNL     1      35.221 -17.766 -23.172  0.00  0.00    +0.047 C 
ATOM     24  C   UNL     1      36.613 -18.070 -22.609  0.00  0.00    +0.025 C 
ATOM     25  C   UNL     1      34.326 -19.000 -23.014  0.00  0.00    +0.025 C 
ATOM     26  C   UNL     1      36.540 -18.534 -21.155  0.00  0.00    +0.096 C 
ATOM     27  C   UNL     1      34.262 -19.467 -21.560  0.00  0.00    +0.096 C 
ATOM     28  C   UNL     1      35.800 -20.530 -19.936  0.00  0.00    +0.379 C 
ATOM     29  C   UNL     1      36.358 -21.589 -18.249  0.00  0.00    +0.104 C 
BRANCH  29  30
ATOM     30  C   UNL     1      37.093 -21.981 -17.043  0.00  0.00    +0.101 C 
ATOM     31  C   UNL     1      37.993 -20.851 -16.478  0.00  0.00    +0.017 C 
ATOM     32  C   UNL     1      36.178 -22.506 -15.908  0.00  0.00    +0.017 C 
ENDBRANCH  29  30
ENDBRANCH  18  23
ENDBRANCH   1  18
TORSDOF 6
ENDMDL
MODEL 3
REMARK VINA RESULT:     -11.8      3.607     11.602
REMARK  Name = 24996872
REMARK  6 active torsions:
REMARK  status: ('A' for Active; 'I' for Inactive)
REMARK    1  A    between atoms: O_1  and  C_3
REMARK    2  A    between atoms: O_1  and  C_18
REMARK    3  A    between atoms: C_7  and  C_8
REMARK    4  A    between atoms: C_11  and  S_14
REMARK    5  A    between atoms: C_18  and  C_23
REMARK    6  A    between atoms: C_29  and  C_30
REMARK                            x       y       z     vdW  Elec       q    Type
REMARK                         _______ _______ _______ _____ _____    ______ ____
ROOT
ATOM      1  O   UNL     1      35.601 -18.129 -23.072  0.00  0.00    -0.474 OA
ENDROOT
BRANCH   1   3
ATOM      2  N   UNL     1      34.804 -14.736 -21.951  0.00  0.00    -0.241 NA
ATOM      3  C   UNL     1      35.147 -16.834 -23.105  0.00  0.00    +0.158 C 
ATOM      4  C   UNL     1      34.588 -16.299 -24.259  0.00  0.00    +0.040 C 
ATOM      5  C   UNL     1      35.232 -16.019 -21.987  0.00  0.00    +0.136 C 
ATOM      6  C   UNL     1      34.136 -14.984 -24.262  0.00  0.00    +0.022 C 
ATOM      7  C   UNL     1      34.266 -14.251 -23.093  0.00  0.00    +0.082 C 
BRANCH   7   8
ATOM      8  C   UNL     1      33.820 -12.880 -23.022  0.00  0.00    +0.018 C 
ATOM      9  C   UNL     1      34.298 -11.942 -23.938  0.00  0.00    +0.003 C 
ATOM     10  C   UNL     1      32.910 -12.493 -22.039  0.00  0.00    +0.003 C 
ATOM     11  C   UNL     1      32.956 -10.231 -22.885  0.00  0.00    +0.106 C 
ATOM     12  C   UNL     1      33.866 -10.618 -23.868  0.00  0.00    +0.018 C 
ATOM     13  C   UNL     1      32.478 -11.169 -21.969  0.00  0.00    +0.018 C 
BRANCH  11  14
ATOM     14  S   UNL     1      32.415  -8.574 -22.798  0.00  0.00    +0.010 S 
ATOM     15  O   UNL     1      33.303  -7.768 -23.626  0.00  0.00    -0.169 OA
ATOM     16  O   UNL     1      30.978  -8.532 -23.030  0.00  0.00    -0.169 OA
ATOM     17  C   UNL     1      32.680  -8.109 -21.102  0.00  0.00    +0.182 C 
ENDBRANCH  11  14
ENDBRANCH   7   8
ENDBRANCH   1   3
BRANCH   1  18
ATOM     18  C   UNL     1      36.310 -18.534 -21.916  0.00  0.00    +0.205 C 
BRANCH  18  23
ATOM     19  O   UNL     1      34.681 -22.602 -17.244  0.00  0.00    -0.296 OA
ATOM     20  N   UNL     1      34.448 -21.265 -19.153  0.00  0.00    -0.251 N 
ATOM     21  N   UNL     1      32.575 -22.276 -17.935  0.00  0.00    -0.300 NA
ATOM     22  N   UNL     1      33.864 -23.300 -16.346  0.00  0.00    -0.010 NA
ATOM     23  C   UNL     1      35.625 -19.768 -21.334  0.00  0.00    +0.047 C 
ATOM     24  C   UNL     1      34.250 -19.409 -20.761  0.00  0.00    +0.025 C 
ATOM     25  C   UNL     1      36.485 -20.405 -20.238  0.00  0.00    +0.025 C 
ATOM     26  C   UNL     1      33.567 -20.627 -20.141  0.00  0.00    +0.096 C 
ATOM     27  C   UNL     1      35.795 -21.618 -19.614  0.00  0.00    +0.096 C 
ATOM     28  C   UNL     1      33.843 -22.027 -18.146  0.00  0.00    +0.379 C 
ATOM     29  C   UNL     1      32.638 -23.060 -16.820  0.00  0.00    +0.104 C 
BRANCH  29  30
ATOM     30  C   UNL     1      31.437 -23.605 -16.179  0.00  0.00    +0.101 C 
ATOM     31  C   UNL     1      31.660 -24.007 -14.699  0.00  0.00    +0.017 C 
ATOM     32  C   UNL     1      30.213 -22.657 -16.260  0.00  0.00    +0.017 C 
ENDBRANCH  29  30
ENDBRANCH  18  23
ENDBRANCH   1  18
TORSDOF 6
ENDMDL
MODEL 4
REMARK VINA RESULT:     -11.8      2.809      4.828
REMARK  Name = 24996872
REMARK  6 active torsions:
REMARK  status: ('A' for Active; 'I' for Inactive)
REMARK    1  A    between atoms: O_1  and  C_3
REMARK    2  A    between atoms: O_1  and  C_18
REMARK    3  A    between atoms: C_7  and  C_8
REMARK    4  A    between atoms: C_11  and  S_14
REMARK    5  A    between atoms: C_18  and  C_23
REMARK    6  A    between atoms: C_29  and  C_30
REMARK                            x       y       z     vdW  Elec       q    Type
REMARK                         _______ _______ _______ _____ _____    ______ ____
ROOT
ATOM      1  O   UNL     1      35.779 -19.722 -21.587  0.00  0.00    -0.474 OA
ENDROOT
BRANCH   1   3
ATOM      2  N   UNL     1      35.346 -21.823 -18.621  0.00  0.00    -0.241 NA
ATOM      3  C   UNL     1      35.163 -20.372 -20.546  0.00  0.00    +0.158 C 
ATOM      4  C   UNL     1      33.792 -20.265 -20.345  0.00  0.00    +0.040 C 
ATOM      5  C   UNL     1      35.889 -21.157 -19.664  0.00  0.00    +0.136 C 
ATOM      6  C   UNL     1      33.196 -20.936 -19.282  0.00  0.00    +0.022 C 
ATOM      7  C   UNL     1      34.010 -21.694 -18.457  0.00  0.00    +0.082 C 
BRANCH   7   8
ATOM      8  C   UNL     1      33.461 -22.418 -17.334  0.00  0.00    +0.018 C 
ATOM      9  C   UNL     1      34.309 -23.105 -16.465  0.00  0.00    +0.003 C 
ATOM     10  C   UNL     1      32.083 -22.429 -17.118  0.00  0.00    +0.003 C 
ATOM     11  C   UNL     1      32.400 -23.815 -15.165  0.00  0.00    +0.106 C 
ATOM     12  C   UNL     1      33.778 -23.803 -15.381  0.00  0.00    +0.018 C 
ATOM     13  C   UNL     1      31.552 -23.128 -16.035  0.00  0.00    +0.018 C 
BRANCH  11  14
ATOM     14  S   UNL     1      31.735 -24.689 -13.808  0.00  0.00    +0.010 S 
ATOM     15  O   UNL     1      30.901 -25.763 -14.331  0.00  0.00    -0.169 OA
ATOM     16  O   UNL     1      32.809 -24.999 -12.873  0.00  0.00    -0.169 OA
ATOM     17  C   UNL     1      30.671 -23.513 -13.003  0.00  0.00    +0.182 C 
ENDBRANCH  11  14
ENDBRANCH   7   8
ENDBRANCH   1   3
BRANCH   1  18
ATOM     18  C   UNL     1      34.970 -19.366 -22.693  0.00  0.00    +0.205 C 
BRANCH  18  23
ATOM     19  O   UNL     1      33.847 -13.586 -25.213  0.00  0.00    -0.296 OA
ATOM     20  N   UNL     1      34.707 -15.198 -23.747  0.00  0.00    -0.251 N 
ATOM     21  N   UNL     1      34.748 -12.782 -23.326  0.00  0.00    -0.300 NA
ATOM     22  N   UNL     1      33.712 -12.193 -25.278  0.00  0.00    -0.010 NA
ATOM     23  C   UNL     1      35.346 -17.954 -23.135  0.00  0.00    +0.047 C 
ATOM     24  C   UNL     1      35.034 -16.936 -22.033  0.00  0.00    +0.025 C 
ATOM     25  C   UNL     1      34.600 -17.566 -24.415  0.00  0.00    +0.025 C 
ATOM     26  C   UNL     1      35.371 -15.513 -22.475  0.00  0.00    +0.096 C 
ATOM     27  C   UNL     1      34.933 -16.138 -24.850  0.00  0.00    +0.096 C 
ATOM     28  C   UNL     1      34.466 -13.848 -24.032  0.00  0.00    +0.379 C 
ATOM     29  C   UNL     1      34.266 -11.792 -24.130  0.00  0.00    +0.104 C 
BRANCH  29  30
ATOM     30  C   UNL     1      34.349 -10.375 -23.762  0.00  0.00    +0.101 C 
ATOM     31  C   UNL     1      35.375  -9.579 -24.610  0.00  0.00    +0.017 C 
ATOM     32  C   UNL     1      32.983  -9.645 -23.815  0.00  0.00    +0.017 C 
ENDBRANCH  29  30
ENDBRANCH  18  23
ENDBRANCH   1  18
TORSDOF 6
ENDMDL
MODEL 5
REMARK VINA RESULT:     -11.5      3.431      5.843
REMARK  Name = 24996872
REMARK  6 active torsions:
REMARK  status: ('A' for Active; 'I' for Inactive)
REMARK    1  A    between atoms: O_1  and  C_3
REMARK    2  A    between atoms: O_1  and  C_18
REMARK    3  A    between atoms: C_7  and  C_8
REMARK    4  A    between atoms: C_11  and  S_14
REMARK    5  A    between atoms: C_18  and  C_23
REMARK    6  A    between atoms: C_29  and  C_30
REMARK                            x       y       z     vdW  Elec       q    Type
REMARK                         _______ _______ _______ _____ _____    ______ ____
ROOT
ATOM      1  O   UNL     1      36.255 -19.945 -21.063  0.00  0.00    -0.474 OA
ENDROOT
BRANCH   1   3
ATOM      2  N   UNL     1      37.169 -21.144 -17.727  0.00  0.00    -0.241 NA
ATOM      3  C   UNL     1      36.168 -20.600 -19.860  0.00  0.00    +0.158 C 
ATOM      4  C   UNL     1      35.050 -21.361 -19.537  0.00  0.00    +0.040 C 
ATOM      5  C   UNL     1      37.191 -20.524 -18.928  0.00  0.00    +0.136 C 
ATOM      6  C   UNL     1      34.991 -22.015 -18.311  0.00  0.00    +0.022 C 
ATOM      7  C   UNL     1      36.066 -21.875 -17.449  0.00  0.00    +0.082 C 
BRANCH   7   8
ATOM      8  C   UNL     1      36.074 -22.524 -16.160  0.00  0.00    +0.018 C 
ATOM      9  C   UNL     1      34.917 -23.140 -15.682  0.00  0.00    +0.003 C 
ATOM     10  C   UNL     1      37.238 -22.536 -15.392  0.00  0.00    +0.003 C 
ATOM     11  C   UNL     1      36.090 -23.779 -13.668  0.00  0.00    +0.106 C 
ATOM     12  C   UNL     1      34.926 -23.767 -14.436  0.00  0.00    +0.018 C 
ATOM     13  C   UNL     1      37.247 -23.162 -14.146  0.00  0.00    +0.018 C 
BRANCH  11  14
ATOM     14  S   UNL     1      36.100 -24.563 -12.109  0.00  0.00    +0.010 S 
ATOM     15  O   UNL     1      34.727 -24.619 -11.626  0.00  0.00    -0.169 OA
ATOM     16  O   UNL     1      36.884 -25.788 -12.201  0.00  0.00    -0.169 OA
ATOM     17  C   UNL     1      37.003 -23.448 -11.058  0.00  0.00    +0.182 C 
ENDBRANCH  11  14
ENDBRANCH   7   8
ENDBRANCH   1   3
BRANCH   1  18
ATOM     18  C   UNL     1      35.050 -19.437 -21.608  0.00  0.00    +0.205 C 
BRANCH  18  23
ATOM     19  O   UNL     1      33.738 -14.591 -25.585  0.00  0.00    -0.296 OA
ATOM     20  N   UNL     1      34.611 -15.710 -23.721  0.00  0.00    -0.251 N 
ATOM     21  N   UNL     1      34.498 -13.270 -23.944  0.00  0.00    -0.300 NA
ATOM     22  N   UNL     1      33.530 -13.274 -26.016  0.00  0.00    -0.010 NA
ATOM     23  C   UNL     1      35.370 -18.166 -22.390  0.00  0.00    +0.047 C 
ATOM     24  C   UNL     1      34.947 -16.921 -21.603  0.00  0.00    +0.025 C 
ATOM     25  C   UNL     1      34.669 -18.171 -23.752  0.00  0.00    +0.025 C 
ATOM     26  C   UNL     1      35.227 -15.641 -22.389  0.00  0.00    +0.096 C 
ATOM     27  C   UNL     1      34.943 -16.886 -24.533  0.00  0.00    +0.096 C 
ATOM     28  C   UNL     1      34.310 -14.498 -24.356  0.00  0.00    +0.379 C 
ATOM     29  C   UNL     1      34.003 -12.555 -24.995  0.00  0.00    +0.104 C 
BRANCH  29  30
ATOM     30  C   UNL     1      33.989 -11.089 -25.006  0.00  0.00    +0.101 C 
ATOM     31  C   UNL     1      33.628 -10.468 -23.631  0.00  0.00    +0.017 C 
ATOM     32  C   UNL     1      35.319 -10.465 -25.500  0.00  0.00    +0.017 C 
ENDBRANCH  29  30
ENDBRANCH  18  23
ENDBRANCH   1  18
TORSDOF 6
ENDMDL
MODEL 6
REMARK VINA RESULT:     -11.1      3.591     11.513
REMARK  Name = 24996872
REMARK  6 active torsions:
REMARK  status: ('A' for Active; 'I' for Inactive)
REMARK    1  A    between atoms: O_1  and  C_3
REMARK    2  A    between atoms: O_1  and  C_18
REMARK    3  A    between atoms: C_7  and  C_8
REMARK    4  A    between atoms: C_11  and  S_14
REMARK    5  A    between atoms: C_18  and  C_23
REMARK    6  A    between atoms: C_29  and  C_30
REMARK                            x       y       z     vdW  Elec       q    Type
REMARK                         _______ _______ _______ _____ _____    ______ ____
ROOT
ATOM      1  O   UNL     1      35.279 -17.856 -24.032  0.00  0.00    -0.474 OA
ENDROOT
BRANCH   1   3
ATOM      2  N   UNL     1      33.817 -14.546 -24.591  0.00  0.00    -0.241 NA
ATOM      3  C   UNL     1      34.927 -16.548 -23.810  0.00  0.00    +0.158 C 
ATOM      4  C   UNL     1      35.294 -15.896 -22.639  0.00  0.00    +0.040 C 
ATOM      5  C   UNL     1      34.195 -15.835 -24.747  0.00  0.00    +0.136 C 
ATOM      6  C   UNL     1      34.924 -14.570 -22.442  0.00  0.00    +0.022 C 
ATOM      7  C   UNL     1      34.192 -13.946 -23.439  0.00  0.00    +0.082 C 
BRANCH   7   8
ATOM      8  C   UNL     1      33.772 -12.572 -23.303  0.00  0.00    +0.018 C 
ATOM      9  C   UNL     1      32.896 -12.207 -22.281  0.00  0.00    +0.003 C 
ATOM     10  C   UNL     1      34.244 -11.607 -24.194  0.00  0.00    +0.003 C 
ATOM     11  C   UNL     1      32.963  -9.914 -23.041  0.00  0.00    +0.106 C 
ATOM     12  C   UNL     1      32.492 -10.878 -22.151  0.00  0.00    +0.018 C 
ATOM     13  C   UNL     1      33.840 -10.279 -24.064  0.00  0.00    +0.018 C 
BRANCH  11  14
ATOM     14  S   UNL     1      32.457  -8.252 -22.878  0.00  0.00    +0.010 S 
ATOM     15  O   UNL     1      33.386  -7.423 -23.635  0.00  0.00    -0.169 OA
ATOM     16  O   UNL     1      31.028  -8.164 -23.145  0.00  0.00    -0.169 OA
ATOM     17  C   UNL     1      32.685  -7.888 -21.151  0.00  0.00    +0.182 C 
ENDBRANCH  11  14
ENDBRANCH   7   8
ENDBRANCH   1   3
BRANCH   1  18
ATOM     18  C   UNL     1      36.329 -18.383 -23.242  0.00  0.00    +0.205 C 
BRANCH  18  23
ATOM     19  O   UNL     1      33.043 -22.075 -19.169  0.00  0.00    -0.296 OA
ATOM     20  N   UNL     1      34.766 -20.706 -19.968  0.00  0.00    -0.251 N 
ATOM     21  N   UNL     1      34.900 -22.044 -17.918  0.00  0.00    -0.300 NA
ATOM     22  N   UNL     1      32.799 -22.933 -18.088  0.00  0.00    -0.010 NA
ATOM     23  C   UNL     1      35.761 -18.772 -21.879  0.00  0.00    +0.047 C 
ATOM     24  C   UNL     1      36.699 -19.745 -21.156  0.00  0.00    +0.025 C 
ATOM     25  C   UNL     1      34.377 -19.411 -22.026  0.00  0.00    +0.025 C 
ATOM     26  C   UNL     1      36.126 -20.174 -19.806  0.00  0.00    +0.096 C 
ATOM     27  C   UNL     1      33.811 -19.847 -20.675  0.00  0.00    +0.096 C 
ATOM     28  C   UNL     1      34.301 -21.596 -18.992  0.00  0.00    +0.379 C 
ATOM     29  C   UNL     1      33.940 -22.861 -17.396  0.00  0.00    +0.104 C 
BRANCH  29  30
ATOM     30  C   UNL     1      34.145 -23.615 -16.156  0.00  0.00    +0.101 C 
ATOM     31  C   UNL     1      35.423 -23.194 -15.385  0.00  0.00    +0.017 C 
ATOM     32  C   UNL     1      32.934 -23.549 -15.190  0.00  0.00    +0.017 C 
ENDBRANCH  29  30
ENDBRANCH  18  23
ENDBRANCH   1  18
TORSDOF 6
ENDMDL
MODEL 7
REMARK VINA RESULT:     -11.0      3.799      6.200
REMARK  Name = 24996872
REMARK  6 active torsions:
REMARK  status: ('A' for Active; 'I' for Inactive)
REMARK    1  A    between atoms: O_1  and  C_3
REMARK    2  A    between atoms: O_1  and  C_18
REMARK    3  A    between atoms: C_7  and  C_8
REMARK    4  A    between atoms: C_11  and  S_14
REMARK    5  A    between atoms: C_18  and  C_23
REMARK    6  A    between atoms: C_29  and  C_30
REMARK                            x       y       z     vdW  Elec       q    Type
REMARK                         _______ _______ _______ _____ _____    ______ ____
ROOT
ATOM      1  O   UNL     1      35.778 -20.409 -21.117  0.00  0.00    -0.474 OA
ENDROOT
BRANCH   1   3
ATOM      2  N   UNL     1      35.056 -22.242 -18.030  0.00  0.00    -0.241 NA
ATOM      3  C   UNL     1      35.066 -20.950 -20.074  0.00  0.00    +0.158 C 
ATOM      4  C   UNL     1      33.690 -20.779 -19.982  0.00  0.00    +0.040 C 
ATOM      5  C   UNL     1      35.697 -21.683 -19.082  0.00  0.00    +0.136 C 
ATOM      6  C   UNL     1      32.995 -21.339 -18.915  0.00  0.00    +0.022 C 
ATOM      7  C   UNL     1      33.718 -22.054 -17.974  0.00  0.00    +0.082 C 
BRANCH   7   8
ATOM      8  C   UNL     1      33.064 -22.662 -16.840  0.00  0.00    +0.018 C 
ATOM      9  C   UNL     1      31.673 -22.640 -16.742  0.00  0.00    +0.003 C 
ATOM     10  C   UNL     1      33.823 -23.274 -15.843  0.00  0.00    +0.003 C 
ATOM     11  C   UNL     1      31.801 -23.840 -14.649  0.00  0.00    +0.106 C 
ATOM     12  C   UNL     1      31.042 -23.228 -15.646  0.00  0.00    +0.018 C 
ATOM     13  C   UNL     1      33.192 -23.862 -14.747  0.00  0.00    +0.018 C 
BRANCH  11  14
ATOM     14  S   UNL     1      31.011 -24.576 -13.278  0.00  0.00    +0.010 S 
ATOM     15  O   UNL     1      31.863 -25.654 -12.794  0.00  0.00    -0.169 OA
ATOM     16  O   UNL     1      30.580 -23.529 -12.361  0.00  0.00    -0.169 OA
ATOM     17  C   UNL     1      29.538 -25.308 -13.956  0.00  0.00    +0.182 C 
ENDBRANCH  11  14
ENDBRANCH   7   8
ENDBRANCH   1   3
BRANCH   1  18
ATOM     18  C   UNL     1      36.661 -19.346 -20.809  0.00  0.00    +0.205 C 
BRANCH  18  23
ATOM     19  O   UNL     1      33.703 -16.187 -25.531  0.00  0.00    -0.296 OA
ATOM     20  N   UNL     1      35.022 -16.529 -23.626  0.00  0.00    -0.251 N 
ATOM     21  N   UNL     1      34.227 -14.336 -24.384  0.00  0.00    -0.300 NA
ATOM     22  N   UNL     1      33.103 -15.121 -26.215  0.00  0.00    -0.010 NA
ATOM     23  C   UNL     1      36.546 -18.289 -21.905  0.00  0.00    +0.047 C 
ATOM     24  C   UNL     1      35.877 -17.018 -21.368  0.00  0.00    +0.025 C 
ATOM     25  C   UNL     1      35.745 -18.823 -23.097  0.00  0.00    +0.025 C 
ATOM     26  C   UNL     1      35.721 -15.964 -22.463  0.00  0.00    +0.096 C 
ATOM     27  C   UNL     1      35.583 -17.763 -24.187  0.00  0.00    +0.096 C 
ATOM     28  C   UNL     1      34.343 -15.637 -24.466  0.00  0.00    +0.379 C 
ATOM     29  C   UNL     1      33.458 -14.065 -25.477  0.00  0.00    +0.104 C 
BRANCH  29  30
ATOM     30  C   UNL     1      33.044 -12.701 -25.823  0.00  0.00    +0.101 C 
ATOM     31  C   UNL     1      34.014 -11.613 -25.295  0.00  0.00    +0.017 C 
ATOM     32  C   UNL     1      32.838 -12.490 -27.345  0.00  0.00    +0.017 C 
ENDBRANCH  29  30
ENDBRANCH  18  23
ENDBRANCH   1  18
TORSDOF 6
ENDMDL
MODEL 8
REMARK VINA RESULT:     -10.9      3.894     11.801
REMARK  Name = 24996872
REMARK  6 active torsions:
REMARK  status: ('A' for Active; 'I' for Inactive)
REMARK    1  A    between atoms: O_1  and  C_3
REMARK    2  A    between atoms: O_1  and  C_18
REMARK    3  A    between atoms: C_7  and  C_8
REMARK    4  A    between atoms: C_11  and  S_14
REMARK    5  A    between atoms: C_18  and  C_23
REMARK    6  A    between atoms: C_29  and  C_30
REMARK                            x       y       z     vdW  Elec       q    Type
REMARK                         _______ _______ _______ _____ _____    ______ ____
ROOT
ATOM      1  O   UNL     1      35.544 -17.532 -23.113  0.00  0.00    -0.474 OA
ENDROOT
BRANCH   1   3
ATOM      2  N   UNL     1      34.612 -14.169 -22.004  0.00  0.00    -0.241 NA
ATOM      3  C   UNL     1      35.089 -16.237 -23.163  0.00  0.00    +0.158 C 
ATOM      4  C   UNL     1      34.655 -15.676 -24.359  0.00  0.00    +0.040 C 
ATOM      5  C   UNL     1      35.047 -15.449 -22.024  0.00  0.00    +0.136 C 
ATOM      6  C   UNL     1      34.199 -14.362 -24.379  0.00  0.00    +0.022 C 
ATOM      7  C   UNL     1      34.198 -13.658 -23.186  0.00  0.00    +0.082 C 
BRANCH   7   8
ATOM      8  C   UNL     1      33.739 -12.290 -23.131  0.00  0.00    +0.018 C 
ATOM      9  C   UNL     1      32.810 -11.904 -22.165  0.00  0.00    +0.003 C 
ATOM     10  C   UNL     1      34.226 -11.354 -24.043  0.00  0.00    +0.003 C 
ATOM     11  C   UNL     1      32.854  -9.647 -23.025  0.00  0.00    +0.106 C 
ATOM     12  C   UNL     1      32.367 -10.583 -22.113  0.00  0.00    +0.018 C 
ATOM     13  C   UNL     1      33.783 -10.033 -23.991  0.00  0.00    +0.018 C 
BRANCH  11  14
ATOM     14  S   UNL     1      32.299  -7.993 -22.959  0.00  0.00    +0.010 S 
ATOM     15  O   UNL     1      33.246  -7.172 -23.703  0.00  0.00    -0.169 OA
ATOM     16  O   UNL     1      30.885  -7.954 -23.303  0.00  0.00    -0.169 OA
ATOM     17  C   UNL     1      32.427  -7.551 -21.240  0.00  0.00    +0.182 C 
ENDBRANCH  11  14
ENDBRANCH   7   8
ENDBRANCH   1   3
BRANCH   1  18
ATOM     18  C   UNL     1      34.588 -18.539 -22.838  0.00  0.00    +0.205 C 
BRANCH  18  23
ATOM     19  O   UNL     1      37.532 -20.546 -17.516  0.00  0.00    -0.296 OA
ATOM     20  N   UNL     1      36.039 -20.558 -19.320  0.00  0.00    -0.251 N 
ATOM     21  N   UNL     1      35.891 -22.066 -17.391  0.00  0.00    -0.300 NA
ATOM     22  N   UNL     1      37.728 -21.235 -16.311  0.00  0.00    -0.010 NA
ATOM     23  C   UNL     1      35.229 -19.578 -21.921  0.00  0.00    +0.047 C 
ATOM     24  C   UNL     1      34.210 -20.117 -20.911  0.00  0.00    +0.025 C 
ATOM     25  C   UNL     1      36.425 -18.981 -21.172  0.00  0.00    +0.025 C 
ATOM     26  C   UNL     1      34.847 -21.130 -19.961  0.00  0.00    +0.096 C 
ATOM     27  C   UNL     1      37.054 -19.995 -20.216  0.00  0.00    +0.096 C 
ATOM     28  C   UNL     1      36.430 -21.097 -18.088  0.00  0.00    +0.379 C 
ATOM     29  C   UNL     1      36.721 -22.113 -16.310  0.00  0.00    +0.104 C 
BRANCH  29  30
ATOM     30  C   UNL     1      36.524 -23.066 -15.213  0.00  0.00    +0.101 C 
ATOM     31  C   UNL     1      35.249 -23.933 -15.377  0.00  0.00    +0.017 C 
ATOM     32  C   UNL     1      37.738 -24.001 -14.986  0.00  0.00    +0.017 C 
ENDBRANCH  29  30
ENDBRANCH  18  23
ENDBRANCH   1  18
TORSDOF 6
ENDMDL
MODEL 9
REMARK VINA RESULT:     -10.8      3.613      6.348
REMARK  Name = 24996872
REMARK  6 active torsions:
REMARK  status: ('A' for Active; 'I' for Inactive)
REMARK    1  A    between atoms: O_1  and  C_3
REMARK    2  A    between atoms: O_1  and  C_18
REMARK    3  A    between atoms: C_7  and  C_8
REMARK    4  A    between atoms: C_11  and  S_14
REMARK    5  A    between atoms: C_18  and  C_23
REMARK    6  A    between atoms: C_29  and  C_30
REMARK                            x       y       z     vdW  Elec       q    Type
REMARK                         _______ _______ _______ _____ _____    ______ ____
ROOT
ATOM      1  O   UNL     1      35.427 -20.713 -20.973  0.00  0.00    -0.474 OA
ENDROOT
BRANCH   1   3
ATOM      2  N   UNL     1      36.802 -21.612 -17.701  0.00  0.00    -0.241 NA
ATOM      3  C   UNL     1      35.498 -21.223 -19.700  0.00  0.00    +0.158 C 
ATOM      4  C   UNL     1      34.403 -21.847 -19.116  0.00  0.00    +0.040 C 
ATOM      5  C   UNL     1      36.665 -21.131 -18.957  0.00  0.00    +0.136 C 
ATOM      6  C   UNL     1      34.504 -22.355 -17.825  0.00  0.00    +0.022 C 
ATOM      7  C   UNL     1      35.715 -22.212 -17.166  0.00  0.00    +0.082 C 
BRANCH   7   8
ATOM      8  C   UNL     1      35.894 -22.714 -15.824  0.00  0.00    +0.018 C 
ATOM      9  C   UNL     1      34.787 -23.116 -15.076  0.00  0.00    +0.003 C 
ATOM     10  C   UNL     1      37.173 -22.798 -15.276  0.00  0.00    +0.003 C 
ATOM     11  C   UNL     1      36.240 -23.685 -13.232  0.00  0.00    +0.106 C 
ATOM     12  C   UNL     1      34.961 -23.601 -13.780  0.00  0.00    +0.018 C 
ATOM     13  C   UNL     1      37.347 -23.282 -13.980  0.00  0.00    +0.018 C 
BRANCH  11  14
ATOM     14  S   UNL     1      36.457 -24.292 -11.610  0.00  0.00    +0.010 S 
ATOM     15  O   UNL     1      37.194 -23.290 -10.851  0.00  0.00    -0.169 OA
ATOM     16  O   UNL     1      35.178 -24.778 -11.111  0.00  0.00    -0.169 OA
ATOM     17  C   UNL     1      37.511 -25.712 -11.806  0.00  0.00    +0.182 C 
ENDBRANCH  11  14
ENDBRANCH   7   8
ENDBRANCH   1   3
BRANCH   1  18
ATOM     18  C   UNL     1      36.253 -19.602 -21.268  0.00  0.00    +0.205 C 
BRANCH  18  23
ATOM     19  O   UNL     1      34.895 -13.452 -22.430  0.00  0.00    -0.296 OA
ATOM     20  N   UNL     1      34.958 -15.771 -22.751  0.00  0.00    -0.251 N 
ATOM     21  N   UNL     1      34.282 -14.154 -24.467  0.00  0.00    -0.300 NA
ATOM     22  N   UNL     1      34.575 -12.299 -23.160  0.00  0.00    -0.010 NA
ATOM     23  C   UNL     1      35.365 -18.443 -21.715  0.00  0.00    +0.047 C 
ATOM     24  C   UNL     1      35.611 -18.105 -23.189  0.00  0.00    +0.025 C 
ATOM     25  C   UNL     1      35.618 -17.199 -20.857  0.00  0.00    +0.025 C 
ATOM     26  C   UNL     1      34.756 -16.922 -23.641  0.00  0.00    +0.096 C 
ATOM     27  C   UNL     1      34.768 -16.014 -21.317  0.00  0.00    +0.096 C 
ATOM     28  C   UNL     1      34.696 -14.498 -23.273  0.00  0.00    +0.379 C 
ATOM     29  C   UNL     1      34.224 -12.796 -24.350  0.00  0.00    +0.104 C 
BRANCH  29  30
ATOM     30  C   UNL     1      33.803 -11.933 -25.458  0.00  0.00    +0.101 C 
ATOM     31  C   UNL     1      34.720 -10.698 -25.657  0.00  0.00    +0.017 C 
ATOM     32  C   UNL     1      33.678 -12.684 -26.808  0.00  0.00    +0.017 C 
ENDBRANCH  29  30
ENDBRANCH  18  23
ENDBRANCH   1  18
TORSDOF 6
ENDMDL
