MODEL 1
REMARK VINA RESULT:     -11.6      0.000      0.000
REMARK  Name = 11476460
REMARK  8 active torsions:
REMARK  status: ('A' for Active; 'I' for Inactive)
REMARK    1  A    between atoms: C_2  and  N_10
REMARK    2  A    between atoms: C_5  and  C_23
REMARK    3  A    between atoms: C_11  and  C_14
REMARK    4  A    between atoms: C_14  and  O_15
REMARK    5  A    between atoms: O_15  and  P_16
REMARK    6  A    between atoms: P_16  and  O_18
REMARK    7  A    between atoms: P_16  and  O_20
REMARK    8  A    between atoms: C_27  and  C_32
REMARK                            x       y       z     vdW  Elec       q    Type
REMARK                         _______ _______ _______ _____ _____    ______ ____
ROOT
ATOM      1  F   UNL     1      33.434 -22.335 -18.249  0.00  0.00    -0.204 F 
ATOM      2  C   UNL     1      36.140 -23.074 -15.930  0.00  0.00    +0.059 C 
ATOM      3  C   UNL     1      34.880 -23.077 -16.537  0.00  0.00    +0.045 C 
ATOM      4  C   UNL     1      37.169 -22.305 -16.484  0.00  0.00    +0.015 C 
ATOM      5  C   UNL     1      35.680 -21.553 -18.232  0.00  0.00    +0.029 C 
ATOM      6  C   UNL     1      34.650 -22.319 -17.684  0.00  0.00    +0.141 C 
ATOM      7  C   UNL     1      36.939 -21.546 -17.631  0.00  0.00    +0.004 C 
ENDROOT
BRANCH   2  10
ATOM      8  O   UNL     1      36.583 -25.581 -13.328  0.00  0.00    -0.434 OA
ATOM      9  O   UNL     1      35.971 -26.073 -15.455  0.00  0.00    -0.226 OA
ATOM     10  N   UNL     1      36.375 -23.847 -14.759  0.00  0.00    -0.221 N 
ATOM     11  C   UNL     1      37.106 -24.435 -12.643  0.00  0.00    +0.221 C 
ATOM     12  C   UNL     1      36.645 -23.258 -13.476  0.00  0.00    +0.148 C 
ATOM     13  C   UNL     1      36.284 -25.231 -14.625  0.00  0.00    +0.409 C 
BRANCH  11  14
ATOM     14  C   UNL     1      38.622 -24.557 -12.566  0.00  0.00    +0.199 C 
BRANCH  14  15
ATOM     15  O   UNL     1      39.004 -25.805 -13.118  0.00  0.00    -0.269 OA
BRANCH  15  16
ATOM     16  P   UNL     1      39.942 -25.811 -14.438  0.00  0.00    +0.473 P 
ATOM     17  O   UNL     1      41.373 -26.196 -14.198  0.00  0.00    -0.227 OA
BRANCH  16  18
ATOM     18  O   UNL     1      39.720 -24.341 -15.074  0.00  0.00    -0.303 OA
ATOM     19  H   UNL     1      38.864 -23.988 -14.782  0.00  0.00    +0.222 HD
ENDBRANCH  16  18
BRANCH  16  20
ATOM     20  O   UNL     1      39.135 -26.780 -15.451  0.00  0.00    -0.303 OA
ATOM     21  H   UNL     1      39.766 -27.275 -15.995  0.00  0.00    +0.222 HD
ENDBRANCH  16  20
ENDBRANCH  15  16
ENDBRANCH  14  15
ENDBRANCH  11  14
ENDBRANCH   2  10
BRANCH   5  23
ATOM     22  N   UNL     1      36.348 -19.414 -21.210  0.00  0.00    -0.234 NA
ATOM     23  C   UNL     1      35.446 -20.764 -19.422  0.00  0.00    +0.021 C 
ATOM     24  C   UNL     1      34.162 -20.583 -19.919  0.00  0.00    +0.004 C 
ATOM     25  C   UNL     1      36.495 -20.165 -20.096  0.00  0.00    +0.100 C 
ATOM     26  C   UNL     1      33.969 -19.818 -21.063  0.00  0.00    +0.029 C 
ATOM     27  C   UNL     1      35.084 -19.260 -21.667  0.00  0.00    +0.146 C 
BRANCH  27  32
ATOM     28  N   UNL     1      35.124 -17.138 -22.867  0.00  0.00    -0.105 NA
ATOM     29  N   UNL     1      34.879 -16.905 -24.164  0.00  0.00    -0.113 N 
ATOM     30  N   UNL     1      34.610 -18.994 -24.057  0.00  0.00    -0.085 NA
ATOM     31  N   UNL     1      34.570 -17.976 -24.908  0.00  0.00    -0.018 NA
ATOM     32  C   UNL     1      34.943 -18.460 -22.849  0.00  0.00    +0.092 C 
ATOM     33  C   UNL     1      34.942 -15.581 -24.727  0.00  0.00    +0.163 C 
ENDBRANCH  27  32
ENDBRANCH   5  23
TORSDOF 8
ENDMDL
MODEL 2
REMARK VINA RESULT:     -10.4      1.701      2.370
REMARK  Name = 11476460
REMARK  8 active torsions:
REMARK  status: ('A' for Active; 'I' for Inactive)
REMARK    1  A    between atoms: C_2  and  N_10
REMARK    2  A    between atoms: C_5  and  C_23
REMARK    3  A    between atoms: C_11  and  C_14
REMARK    4  A    between atoms: C_14  and  O_15
REMARK    5  A    between atoms: O_15  and  P_16
REMARK    6  A    between atoms: P_16  and  O_18
REMARK    7  A    between atoms: P_16  and  O_20
REMARK    8  A    between atoms: C_27  and  C_32
REMARK                            x       y       z     vdW  Elec       q    Type
REMARK                         _______ _______ _______ _____ _____    ______ ____
ROOT
ATOM      1  F   UNL     1      37.339 -20.799 -17.909  0.00  0.00    -0.204 F 
ATOM      2  C   UNL     1      35.187 -23.103 -16.090  0.00  0.00    +0.059 C 
ATOM      3  C   UNL     1      36.293 -22.320 -16.437  0.00  0.00    +0.045 C 
ATOM      4  C   UNL     1      34.054 -23.097 -16.910  0.00  0.00    +0.015 C 
ATOM      5  C   UNL     1      35.134 -21.539 -18.408  0.00  0.00    +0.029 C 
ATOM      6  C   UNL     1      36.267 -21.541 -17.594  0.00  0.00    +0.141 C 
ATOM      7  C   UNL     1      34.028 -22.317 -18.067  0.00  0.00    +0.004 C 
ENDROOT
BRANCH   2  10
ATOM      8  O   UNL     1      35.751 -25.475 -13.386  0.00  0.00    -0.434 OA
ATOM      9  O   UNL     1      36.921 -25.482 -15.329  0.00  0.00    -0.226 OA
ATOM     10  N   UNL     1      35.213 -23.898 -14.910  0.00  0.00    -0.221 N 
ATOM     11  C   UNL     1      34.852 -24.573 -12.726  0.00  0.00    +0.221 C 
ATOM     12  C   UNL     1      34.257 -23.749 -13.847  0.00  0.00    +0.148 C 
ATOM     13  C   UNL     1      36.053 -24.975 -14.633  0.00  0.00    +0.409 C 
BRANCH  11  14
ATOM     14  C   UNL     1      35.641 -23.740 -11.724  0.00  0.00    +0.199 C 
BRANCH  14  15
ATOM     15  O   UNL     1      36.782 -23.210 -12.374  0.00  0.00    -0.269 OA
BRANCH  15  16
ATOM     16  P   UNL     1      38.245 -23.729 -11.911  0.00  0.00    +0.473 P 
ATOM     17  O   UNL     1      39.127 -22.678 -11.303  0.00  0.00    -0.227 OA
BRANCH  16  18
ATOM     18  O   UNL     1      38.835 -24.445 -13.235  0.00  0.00    -0.303 OA
ATOM     19  H   UNL     1      39.645 -24.930 -13.007  0.00  0.00    +0.222 HD
ENDBRANCH  16  18
BRANCH  16  20
ATOM     20  O   UNL     1      37.896 -24.974 -10.939  0.00  0.00    -0.303 OA
ATOM     21  H   UNL     1      37.822 -24.659 -10.025  0.00  0.00    +0.222 HD
ENDBRANCH  16  20
ENDBRANCH  15  16
ENDBRANCH  14  15
ENDBRANCH  11  14
ENDBRANCH   2  10
BRANCH   5  23
ATOM     22  N   UNL     1      33.802 -19.632 -21.320  0.00  0.00    -0.234 NA
ATOM     23  C   UNL     1      35.103 -20.732 -19.610  0.00  0.00    +0.021 C 
ATOM     24  C   UNL     1      36.278 -20.293 -20.205  0.00  0.00    +0.004 C 
ATOM     25  C   UNL     1      33.902 -20.380 -20.199  0.00  0.00    +0.100 C 
ATOM     26  C   UNL     1      36.216 -19.521 -21.360  0.00  0.00    +0.029 C 
ATOM     27  C   UNL     1      34.964 -19.221 -21.873  0.00  0.00    +0.146 C 
BRANCH  27  32
ATOM     28  N   UNL     1      34.994 -17.103 -23.083  0.00  0.00    -0.105 NA
ATOM     29  N   UNL     1      34.782 -16.882 -24.388  0.00  0.00    -0.113 N 
ATOM     30  N   UNL     1      34.556 -18.976 -24.277  0.00  0.00    -0.085 NA
ATOM     31  N   UNL     1      34.519 -17.963 -25.135  0.00  0.00    -0.018 NA
ATOM     32  C   UNL     1      34.841 -18.429 -23.064  0.00  0.00    +0.092 C 
ATOM     33  C   UNL     1      34.833 -15.560 -24.956  0.00  0.00    +0.163 C 
ENDBRANCH  27  32
ENDBRANCH   5  23
TORSDOF 8
ENDMDL
MODEL 3
REMARK VINA RESULT:     -10.4      1.420      1.849
REMARK  Name = 11476460
REMARK  8 active torsions:
REMARK  status: ('A' for Active; 'I' for Inactive)
REMARK    1  A    between atoms: C_2  and  N_10
REMARK    2  A    between atoms: C_5  and  C_23
REMARK    3  A    between atoms: C_11  and  C_14
REMARK    4  A    between atoms: C_14  and  O_15
REMARK    5  A    between atoms: O_15  and  P_16
REMARK    6  A    between atoms: P_16  and  O_18
REMARK    7  A    between atoms: P_16  and  O_20
REMARK    8  A    between atoms: C_27  and  C_32
REMARK                            x       y       z     vdW  Elec       q    Type
REMARK                         _______ _______ _______ _____ _____    ______ ____
ROOT
ATOM      1  F   UNL     1      32.742 -22.386 -18.466  0.00  0.00    -0.204 F 
ATOM      2  C   UNL     1      35.196 -23.190 -15.902  0.00  0.00    +0.059 C 
ATOM      3  C   UNL     1      33.999 -23.162 -16.625  0.00  0.00    +0.045 C 
ATOM      4  C   UNL     1      36.292 -22.449 -16.355  0.00  0.00    +0.015 C 
ATOM      5  C   UNL     1      34.995 -21.662 -18.236  0.00  0.00    +0.029 C 
ATOM      6  C   UNL     1      33.899 -22.400 -17.789  0.00  0.00    +0.141 C 
ATOM      7  C   UNL     1      36.191 -21.686 -17.519  0.00  0.00    +0.004 C 
ENDROOT
BRANCH   2  10
ATOM      8  O   UNL     1      35.952 -25.505 -13.195  0.00  0.00    -0.434 OA
ATOM      9  O   UNL     1      37.036 -25.504 -15.187  0.00  0.00    -0.226 OA
ATOM     10  N   UNL     1      35.299 -23.968 -14.715  0.00  0.00    -0.221 N 
ATOM     11  C   UNL     1      35.055 -24.622 -12.508  0.00  0.00    +0.221 C 
ATOM     12  C   UNL     1      34.385 -23.833 -13.613  0.00  0.00    +0.148 C 
ATOM     13  C   UNL     1      36.183 -25.014 -14.461  0.00  0.00    +0.409 C 
BRANCH  11  14
ATOM     14  C   UNL     1      35.859 -23.750 -11.552  0.00  0.00    +0.199 C 
BRANCH  14  15
ATOM     15  O   UNL     1      36.975 -23.225 -12.249  0.00  0.00    -0.269 OA
BRANCH  15  16
ATOM     16  P   UNL     1      38.451 -23.770 -11.866  0.00  0.00    +0.473 P 
ATOM     17  O   UNL     1      39.368 -22.747 -11.261  0.00  0.00    -0.227 OA
BRANCH  16  18
ATOM     18  O   UNL     1      38.978 -24.447 -13.237  0.00  0.00    -0.303 OA
ATOM     19  H   UNL     1      39.130 -23.755 -13.901  0.00  0.00    +0.222 HD
ENDBRANCH  16  18
BRANCH  16  20
ATOM     20  O   UNL     1      38.132 -25.045 -10.922  0.00  0.00    -0.303 OA
ATOM     21  H   UNL     1      37.563 -24.767 -10.187  0.00  0.00    +0.222 HD
ENDBRANCH  16  20
ENDBRANCH  15  16
ENDBRANCH  14  15
ENDBRANCH  11  14
ENDBRANCH   2  10
BRANCH   5  23
ATOM     22  N   UNL     1      36.007 -19.652 -21.207  0.00  0.00    -0.234 NA
ATOM     23  C   UNL     1      34.895 -20.869 -19.442  0.00  0.00    +0.021 C 
ATOM     24  C   UNL     1      33.659 -20.556 -19.991  0.00  0.00    +0.004 C 
ATOM     25  C   UNL     1      36.029 -20.398 -20.080  0.00  0.00    +0.100 C 
ATOM     26  C   UNL     1      33.594 -19.791 -21.150  0.00  0.00    +0.029 C 
ATOM     27  C   UNL     1      34.787 -19.367 -21.714  0.00  0.00    +0.146 C 
BRANCH  27  32
ATOM     28  N   UNL     1      35.050 -17.266 -22.924  0.00  0.00    -0.105 NA
ATOM     29  N   UNL     1      34.909 -17.033 -24.237  0.00  0.00    -0.113 N 
ATOM     30  N   UNL     1      34.495 -19.098 -24.133  0.00  0.00    -0.085 NA
ATOM     31  N   UNL     1      34.581 -18.090 -24.992  0.00  0.00    -0.018 NA
ATOM     32  C   UNL     1      34.781 -18.573 -22.909  0.00  0.00    +0.092 C 
ATOM     33  C   UNL     1      35.099 -15.723 -24.804  0.00  0.00    +0.163 C 
ENDBRANCH  27  32
ENDBRANCH   5  23
TORSDOF 8
ENDMDL
MODEL 4
REMARK VINA RESULT:     -10.4      7.150     11.174
REMARK  Name = 11476460
REMARK  8 active torsions:
REMARK  status: ('A' for Active; 'I' for Inactive)
REMARK    1  A    between atoms: C_2  and  N_10
REMARK    2  A    between atoms: C_5  and  C_23
REMARK    3  A    between atoms: C_11  and  C_14
REMARK    4  A    between atoms: C_14  and  O_15
REMARK    5  A    between atoms: O_15  and  P_16
REMARK    6  A    between atoms: P_16  and  O_18
REMARK    7  A    between atoms: P_16  and  O_20
REMARK    8  A    between atoms: C_27  and  C_32
REMARK                            x       y       z     vdW  Elec       q    Type
REMARK                         _______ _______ _______ _____ _____    ______ ____
ROOT
ATOM      1  F   UNL     1      37.887 -19.949 -19.861  0.00  0.00    -0.204 F 
ATOM      2  C   UNL     1      35.267 -18.788 -22.104  0.00  0.00    +0.059 C 
ATOM      3  C   UNL     1      36.528 -18.982 -21.532  0.00  0.00    +0.045 C 
ATOM      4  C   UNL     1      34.147 -19.397 -21.528  0.00  0.00    +0.015 C 
ATOM      5  C   UNL     1      35.549 -20.382 -19.824  0.00  0.00    +0.029 C 
ATOM      6  C   UNL     1      36.669 -19.777 -20.395  0.00  0.00    +0.141 C 
ATOM      7  C   UNL     1      34.288 -20.192 -20.390  0.00  0.00    +0.004 C 
ENDROOT
BRANCH   2  10
ATOM      8  O   UNL     1      34.613 -17.263 -25.345  0.00  0.00    -0.434 OA
ATOM      9  O   UNL     1      34.071 -19.405 -24.832  0.00  0.00    -0.226 OA
ATOM     10  N   UNL     1      35.123 -17.976 -23.265  0.00  0.00    -0.221 N 
ATOM     11  C   UNL     1      35.026 -16.099 -24.616  0.00  0.00    +0.221 C 
ATOM     12  C   UNL     1      35.674 -16.652 -23.364  0.00  0.00    +0.148 C 
ATOM     13  C   UNL     1      34.550 -18.334 -24.483  0.00  0.00    +0.409 C 
BRANCH  11  14
ATOM     14  C   UNL     1      33.803 -15.240 -24.328  0.00  0.00    +0.199 C 
BRANCH  14  15
ATOM     15  O   UNL     1      34.153 -13.879 -24.505  0.00  0.00    -0.269 OA
BRANCH  15  16
ATOM     16  P   UNL     1      34.026 -12.877 -23.239  0.00  0.00    +0.473 P 
ATOM     17  O   UNL     1      32.661 -12.810 -22.618  0.00  0.00    -0.227 OA
BRANCH  16  18
ATOM     18  O   UNL     1      34.600 -11.474 -23.801  0.00  0.00    -0.303 OA
ATOM     19  H   UNL     1      34.628 -10.824 -23.080  0.00  0.00    +0.222 HD
ENDBRANCH  16  18
BRANCH  16  20
ATOM     20  O   UNL     1      35.201 -13.391 -22.253  0.00  0.00    -0.303 OA
ATOM     21  H   UNL     1      34.864 -14.111 -21.698  0.00  0.00    +0.222 HD
ENDBRANCH  16  20
ENDBRANCH  15  16
ENDBRANCH  14  15
ENDBRANCH  11  14
ENDBRANCH   2  10
BRANCH   5  23
ATOM     22  N   UNL     1      34.729 -22.832 -17.137  0.00  0.00    -0.234 NA
ATOM     23  C   UNL     1      35.690 -21.207 -18.643  0.00  0.00    +0.021 C 
ATOM     24  C   UNL     1      36.857 -21.184 -17.891  0.00  0.00    +0.004 C 
ATOM     25  C   UNL     1      34.664 -22.038 -18.229  0.00  0.00    +0.100 C 
ATOM     26  C   UNL     1      36.962 -21.987 -16.761  0.00  0.00    +0.029 C 
ATOM     27  C   UNL     1      35.879 -22.785 -16.429  0.00  0.00    +0.146 C 
BRANCH  27  32
ATOM     28  N   UNL     1      35.514 -23.251 -14.063  0.00  0.00    -0.105 NA
ATOM     29  N   UNL     1      35.779 -24.374 -13.381  0.00  0.00    -0.113 N 
ATOM     30  N   UNL     1      36.419 -24.903 -15.319  0.00  0.00    -0.085 NA
ATOM     31  N   UNL     1      36.317 -25.380 -14.085  0.00  0.00    -0.018 NA
ATOM     32  C   UNL     1      35.932 -23.632 -15.272  0.00  0.00    +0.092 C 
ATOM     33  C   UNL     1      35.504 -24.493 -11.972  0.00  0.00    +0.163 C 
ENDBRANCH  27  32
ENDBRANCH   5  23
TORSDOF 8
ENDMDL
MODEL 5
REMARK VINA RESULT:      -9.6     12.585     16.061
REMARK  Name = 11476460
REMARK  8 active torsions:
REMARK  status: ('A' for Active; 'I' for Inactive)
REMARK    1  A    between atoms: C_2  and  N_10
REMARK    2  A    between atoms: C_5  and  C_23
REMARK    3  A    between atoms: C_11  and  C_14
REMARK    4  A    between atoms: C_14  and  O_15
REMARK    5  A    between atoms: O_15  and  P_16
REMARK    6  A    between atoms: P_16  and  O_18
REMARK    7  A    between atoms: P_16  and  O_20
REMARK    8  A    between atoms: C_27  and  C_32
REMARK                            x       y       z     vdW  Elec       q    Type
REMARK                         _______ _______ _______ _____ _____    ______ ____
ROOT
ATOM      1  F   UNL     1      31.868 -12.558 -20.973  0.00  0.00    -0.204 F 
ATOM      2  C   UNL     1      32.415  -9.207 -22.282  0.00  0.00    +0.059 C 
ATOM      3  C   UNL     1      31.923 -10.258 -21.502  0.00  0.00    +0.045 C 
ATOM      4  C   UNL     1      33.344  -9.475 -23.293  0.00  0.00    +0.015 C 
ATOM      5  C   UNL     1      33.280 -11.827 -22.741  0.00  0.00    +0.029 C 
ATOM      6  C   UNL     1      32.354 -11.565 -21.731  0.00  0.00    +0.141 C 
ATOM      7  C   UNL     1      33.775 -10.782 -23.522  0.00  0.00    +0.004 C 
ENDROOT
BRANCH   2  10
ATOM      8  O   UNL     1      31.642  -5.847 -21.110  0.00  0.00    -0.434 OA
ATOM      9  O   UNL     1      32.937  -7.312 -19.961  0.00  0.00    -0.226 OA
ATOM     10  N   UNL     1      31.975  -7.874 -22.049  0.00  0.00    -0.221 N 
ATOM     11  C   UNL     1      31.110  -5.762 -22.439  0.00  0.00    +0.221 C 
ATOM     12  C   UNL     1      31.038  -7.200 -22.907  0.00  0.00    +0.148 C 
ATOM     13  C   UNL     1      32.269  -7.063 -20.954  0.00  0.00    +0.409 C 
BRANCH  11  14
ATOM     14  C   UNL     1      32.039  -4.903 -23.286  0.00  0.00    +0.199 C 
BRANCH  14  15
ATOM     15  O   UNL     1      31.255  -3.995 -24.040  0.00  0.00    -0.269 OA
BRANCH  15  16
ATOM     16  P   UNL     1      31.463  -2.408 -23.797  0.00  0.00    +0.473 P 
ATOM     17  O   UNL     1      32.651  -1.809 -24.491  0.00  0.00    -0.227 OA
BRANCH  16  18
ATOM     18  O   UNL     1      31.457  -2.262 -22.186  0.00  0.00    -0.303 OA
ATOM     19  H   UNL     1      31.005  -1.440 -21.938  0.00  0.00    +0.222 HD
ENDBRANCH  16  18
BRANCH  16  20
ATOM     20  O   UNL     1      30.034  -1.786 -24.231  0.00  0.00    -0.303 OA
ATOM     21  H   UNL     1      29.630  -1.342 -23.468  0.00  0.00    +0.222 HD
ENDBRANCH  16  20
ENDBRANCH  15  16
ENDBRANCH  14  15
ENDBRANCH  11  14
ENDBRANCH   2  10
BRANCH   5  23
ATOM     22  N   UNL     1      34.912 -15.132 -22.193  0.00  0.00    -0.234 NA
ATOM     23  C   UNL     1      33.730 -13.181 -22.983  0.00  0.00    +0.021 C 
ATOM     24  C   UNL     1      33.443 -13.825 -24.179  0.00  0.00    +0.004 C 
ATOM     25  C   UNL     1      34.460 -13.869 -22.031  0.00  0.00    +0.100 C 
ATOM     26  C   UNL     1      33.890 -15.126 -24.383  0.00  0.00    +0.029 C 
ATOM     27  C   UNL     1      34.614 -15.730 -23.368  0.00  0.00    +0.146 C 
BRANCH  27  32
ATOM     28  N   UNL     1      34.587 -17.941 -24.396  0.00  0.00    -0.105 NA
ATOM     29  N   UNL     1      35.378 -18.993 -24.140  0.00  0.00    -0.113 N 
ATOM     30  N   UNL     1      36.137 -17.562 -22.789  0.00  0.00    -0.085 NA
ATOM     31  N   UNL     1      36.311 -18.813 -23.195  0.00  0.00    -0.018 NA
ATOM     32  C   UNL     1      35.101 -17.071 -23.525  0.00  0.00    +0.092 C 
ATOM     33  C   UNL     1      35.235 -20.244 -24.839  0.00  0.00    +0.163 C 
ENDBRANCH  27  32
ENDBRANCH   5  23
TORSDOF 8
ENDMDL
MODEL 6
REMARK VINA RESULT:      -9.6      2.388      3.606
REMARK  Name = 11476460
REMARK  8 active torsions:
REMARK  status: ('A' for Active; 'I' for Inactive)
REMARK    1  A    between atoms: C_2  and  N_10
REMARK    2  A    between atoms: C_5  and  C_23
REMARK    3  A    between atoms: C_11  and  C_14
REMARK    4  A    between atoms: C_14  and  O_15
REMARK    5  A    between atoms: O_15  and  P_16
REMARK    6  A    between atoms: P_16  and  O_18
REMARK    7  A    between atoms: P_16  and  O_20
REMARK    8  A    between atoms: C_27  and  C_32
REMARK                            x       y       z     vdW  Elec       q    Type
REMARK                         _______ _______ _______ _____ _____    ______ ____
ROOT
ATOM      1  F   UNL     1      33.512 -21.954 -18.745  0.00  0.00    -0.204 F 
ATOM      2  C   UNL     1      36.070 -22.776 -16.290  0.00  0.00    +0.059 C 
ATOM      3  C   UNL     1      34.847 -22.749 -16.968  0.00  0.00    +0.045 C 
ATOM      4  C   UNL     1      37.139 -22.012 -16.770  0.00  0.00    +0.015 C 
ATOM      5  C   UNL     1      35.764 -21.207 -18.586  0.00  0.00    +0.029 C 
ATOM      6  C   UNL     1      34.694 -21.966 -18.112  0.00  0.00    +0.141 C 
ATOM      7  C   UNL     1      36.986 -21.230 -17.914  0.00  0.00    +0.004 C 
ENDROOT
BRANCH   2  10
ATOM      8  O   UNL     1      36.955 -24.374 -13.141  0.00  0.00    -0.434 OA
ATOM      9  O   UNL     1      37.965 -22.501 -13.928  0.00  0.00    -0.226 OA
ATOM     10  N   UNL     1      36.226 -23.574 -15.122  0.00  0.00    -0.221 N 
ATOM     11  C   UNL     1      35.775 -25.123 -13.463  0.00  0.00    +0.221 C 
ATOM     12  C   UNL     1      35.518 -24.809 -14.921  0.00  0.00    +0.148 C 
ATOM     13  C   UNL     1      37.120 -23.373 -14.072  0.00  0.00    +0.409 C 
BRANCH  11  14
ATOM     14  C   UNL     1      34.645 -24.677 -12.545  0.00  0.00    +0.199 C 
BRANCH  14  15
ATOM     15  O   UNL     1      33.891 -23.677 -13.207  0.00  0.00    -0.269 OA
BRANCH  15  16
ATOM     16  P   UNL     1      32.315 -23.942 -13.466  0.00  0.00    +0.473 P 
ATOM     17  O   UNL     1      31.398 -23.384 -12.417  0.00  0.00    -0.227 OA
BRANCH  16  18
ATOM     18  O   UNL     1      32.225 -25.541 -13.684  0.00  0.00    -0.303 OA
ATOM     19  H   UNL     1      32.729 -25.992 -12.987  0.00  0.00    +0.222 HD
ENDBRANCH  16  18
BRANCH  16  20
ATOM     20  O   UNL     1      32.089 -23.351 -14.955  0.00  0.00    -0.303 OA
ATOM     21  H   UNL     1      31.583 -22.525 -14.901  0.00  0.00    +0.222 HD
ENDBRANCH  16  20
ENDBRANCH  15  16
ENDBRANCH  14  15
ENDBRANCH  11  14
ENDBRANCH   2  10
BRANCH   5  23
ATOM     22  N   UNL     1      34.157 -19.477 -21.470  0.00  0.00    -0.234 NA
ATOM     23  C   UNL     1      35.610 -20.393 -19.772  0.00  0.00    +0.021 C 
ATOM     24  C   UNL     1      36.703 -19.763 -20.353  0.00  0.00    +0.004 C 
ATOM     25  C   UNL     1      34.370 -20.221 -20.362  0.00  0.00    +0.100 C 
ATOM     26  C   UNL     1      36.524 -18.988 -21.493  0.00  0.00    +0.029 C 
ATOM     27  C   UNL     1      35.242 -18.878 -22.008  0.00  0.00    +0.146 C 
BRANCH  27  32
ATOM     28  N   UNL     1      34.951 -16.759 -23.180  0.00  0.00    -0.105 NA
ATOM     29  N   UNL     1      34.706 -16.549 -24.481  0.00  0.00    -0.113 N 
ATOM     30  N   UNL     1      34.797 -18.655 -24.408  0.00  0.00    -0.085 NA
ATOM     31  N   UNL     1      34.607 -17.644 -25.247  0.00  0.00    -0.018 NA
ATOM     32  C   UNL     1      35.000 -18.093 -23.185  0.00  0.00    +0.092 C 
ATOM     33  C   UNL     1      34.558 -15.225 -25.026  0.00  0.00    +0.163 C 
ENDBRANCH  27  32
ENDBRANCH   5  23
TORSDOF 8
ENDMDL
MODEL 7
REMARK VINA RESULT:      -9.5     12.505     16.157
REMARK  Name = 11476460
REMARK  8 active torsions:
REMARK  status: ('A' for Active; 'I' for Inactive)
REMARK    1  A    between atoms: C_2  and  N_10
REMARK    2  A    between atoms: C_5  and  C_23
REMARK    3  A    between atoms: C_11  and  C_14
REMARK    4  A    between atoms: C_14  and  O_15
REMARK    5  A    between atoms: O_15  and  P_16
REMARK    6  A    between atoms: P_16  and  O_18
REMARK    7  A    between atoms: P_16  and  O_20
REMARK    8  A    between atoms: C_27  and  C_32
REMARK                            x       y       z     vdW  Elec       q    Type
REMARK                         _______ _______ _______ _____ _____    ______ ____
ROOT
ATOM      1  F   UNL     1      31.915 -12.253 -21.031  0.00  0.00    -0.204 F 
ATOM      2  C   UNL     1      32.424  -9.202 -22.949  0.00  0.00    +0.059 C 
ATOM      3  C   UNL     1      31.911 -10.106 -22.013  0.00  0.00    +0.045 C 
ATOM      4  C   UNL     1      33.453  -9.606 -23.805  0.00  0.00    +0.015 C 
ATOM      5  C   UNL     1      33.448 -11.800 -22.791  0.00  0.00    +0.029 C 
ATOM      6  C   UNL     1      32.422 -11.402 -21.935  0.00  0.00    +0.141 C 
ATOM      7  C   UNL     1      33.963 -10.902 -23.727  0.00  0.00    +0.004 C 
ENDROOT
BRANCH   2  10
ATOM      8  O   UNL     1      31.183  -5.811 -22.483  0.00  0.00    -0.434 OA
ATOM      9  O   UNL     1      31.932  -7.119 -20.788  0.00  0.00    -0.226 OA
ATOM     10  N   UNL     1      31.903  -7.880 -23.029  0.00  0.00    -0.221 N 
ATOM     11  C   UNL     1      31.230  -5.851 -23.916  0.00  0.00    +0.221 C 
ATOM     12  C   UNL     1      31.378  -7.321 -24.245  0.00  0.00    +0.148 C 
ATOM     13  C   UNL     1      31.716  -6.978 -21.984  0.00  0.00    +0.409 C 
BRANCH  11  14
ATOM     14  C   UNL     1      32.406  -5.008 -24.393  0.00  0.00    +0.199 C 
BRANCH  14  15
ATOM     15  O   UNL     1      32.677  -4.016 -23.419  0.00  0.00    -0.269 OA
BRANCH  15  16
ATOM     16  P   UNL     1      32.160  -2.506 -23.689  0.00  0.00    +0.473 P 
ATOM     17  O   UNL     1      32.832  -1.800 -24.831  0.00  0.00    -0.227 OA
BRANCH  16  18
ATOM     18  O   UNL     1      32.306  -1.786 -22.249  0.00  0.00    -0.303 OA
ATOM     19  H   UNL     1      31.997  -0.868 -22.313  0.00  0.00    +0.222 HD
ENDBRANCH  16  18
BRANCH  16  20
ATOM     20  O   UNL     1      30.561  -2.694 -23.849  0.00  0.00    -0.303 OA
ATOM     21  H   UNL     1      30.229  -2.080 -24.522  0.00  0.00    +0.222 HD
ENDBRANCH  16  20
ENDBRANCH  15  16
ENDBRANCH  14  15
ENDBRANCH  11  14
ENDBRANCH   2  10
BRANCH   5  23
ATOM     22  N   UNL     1      34.901 -14.922 -21.366  0.00  0.00    -0.234 NA
ATOM     23  C   UNL     1      33.981 -13.143 -22.715  0.00  0.00    +0.021 C 
ATOM     24  C   UNL     1      34.094 -13.932 -23.852  0.00  0.00    +0.004 C 
ATOM     25  C   UNL     1      34.394 -13.677 -21.507  0.00  0.00    +0.100 C 
ATOM     26  C   UNL     1      34.611 -15.219 -23.747  0.00  0.00    +0.029 C 
ATOM     27  C   UNL     1      34.997 -15.663 -22.492  0.00  0.00    +0.146 C 
BRANCH  27  32
ATOM     28  N   UNL     1      35.678 -17.573 -21.138  0.00  0.00    -0.105 NA
ATOM     29  N   UNL     1      36.208 -18.737 -21.540  0.00  0.00    -0.113 N 
ATOM     30  N   UNL     1      35.956 -17.736 -23.379  0.00  0.00    -0.085 NA
ATOM     31  N   UNL     1      36.391 -18.878 -22.860  0.00  0.00    -0.018 NA
ATOM     32  C   UNL     1      35.538 -16.981 -22.326  0.00  0.00    +0.092 C 
ATOM     33  C   UNL     1      36.561 -19.776 -20.608  0.00  0.00    +0.163 C 
ENDBRANCH  27  32
ENDBRANCH   5  23
TORSDOF 8
ENDMDL
MODEL 8
REMARK VINA RESULT:      -9.5      6.257      9.450
REMARK  Name = 11476460
REMARK  8 active torsions:
REMARK  status: ('A' for Active; 'I' for Inactive)
REMARK    1  A    between atoms: C_2  and  N_10
REMARK    2  A    between atoms: C_5  and  C_23
REMARK    3  A    between atoms: C_11  and  C_14
REMARK    4  A    between atoms: C_14  and  O_15
REMARK    5  A    between atoms: O_15  and  P_16
REMARK    6  A    between atoms: P_16  and  O_18
REMARK    7  A    between atoms: P_16  and  O_20
REMARK    8  A    between atoms: C_27  and  C_32
REMARK                            x       y       z     vdW  Elec       q    Type
REMARK                         _______ _______ _______ _____ _____    ______ ____
ROOT
ATOM      1  F   UNL     1      34.362 -14.476 -24.847  0.00  0.00    -0.204 F 
ATOM      2  C   UNL     1      35.214 -16.660 -22.062  0.00  0.00    +0.059 C 
ATOM      3  C   UNL     1      34.992 -16.204 -23.365  0.00  0.00    +0.045 C 
ATOM      4  C   UNL     1      35.011 -15.792 -20.985  0.00  0.00    +0.015 C 
ATOM      5  C   UNL     1      34.370 -14.031 -22.511  0.00  0.00    +0.029 C 
ATOM      6  C   UNL     1      34.571 -14.893 -23.589  0.00  0.00    +0.141 C 
ATOM      7  C   UNL     1      34.590 -14.481 -21.209  0.00  0.00    +0.004 C 
ENDROOT
BRANCH   2  10
ATOM      8  O   UNL     1      36.933 -19.813 -21.462  0.00  0.00    -0.434 OA
ATOM      9  O   UNL     1      37.996 -17.818 -21.653  0.00  0.00    -0.226 OA
ATOM     10  N   UNL     1      35.643 -17.998 -21.834  0.00  0.00    -0.221 N 
ATOM     11  C   UNL     1      35.577 -20.248 -21.296  0.00  0.00    +0.221 C 
ATOM     12  C   UNL     1      34.748 -19.122 -21.877  0.00  0.00    +0.148 C 
ATOM     13  C   UNL     1      36.948 -18.448 -21.645  0.00  0.00    +0.409 C 
BRANCH  11  14
ATOM     14  C   UNL     1      35.314 -20.483 -19.815  0.00  0.00    +0.199 C 
BRANCH  14  15
ATOM     15  O   UNL     1      34.089 -21.179 -19.676  0.00  0.00    -0.269 OA
BRANCH  15  16
ATOM     16  P   UNL     1      34.000 -22.380 -18.593  0.00  0.00    +0.473 P 
ATOM     17  O   UNL     1      35.062 -22.357 -17.533  0.00  0.00    -0.227 OA
BRANCH  16  18
ATOM     18  O   UNL     1      33.961 -23.716 -19.503  0.00  0.00    -0.303 OA
ATOM     19  H   UNL     1      34.830 -24.148 -19.482  0.00  0.00    +0.222 HD
ENDBRANCH  16  18
BRANCH  16  20
ATOM     20  O   UNL     1      32.483 -22.260 -18.044  0.00  0.00    -0.303 OA
ATOM     21  H   UNL     1      31.878 -22.681 -18.675  0.00  0.00    +0.222 HD
ENDBRANCH  16  20
ENDBRANCH  15  16
ENDBRANCH  14  15
ENDBRANCH  11  14
ENDBRANCH   2  10
BRANCH   5  23
ATOM     22  N   UNL     1      32.427 -10.869 -22.174  0.00  0.00    -0.234 NA
ATOM     23  C   UNL     1      33.933 -12.671 -22.737  0.00  0.00    +0.021 C 
ATOM     24  C   UNL     1      34.549 -11.872 -23.692  0.00  0.00    +0.004 C 
ATOM     25  C   UNL     1      32.887 -12.129 -22.012  0.00  0.00    +0.100 C 
ATOM     26  C   UNL     1      34.105 -10.569 -23.888  0.00  0.00    +0.029 C 
ATOM     27  C   UNL     1      33.050 -10.119 -23.111  0.00  0.00    +0.146 C 
BRANCH  27  32
ATOM     28  N   UNL     1      33.251  -7.802 -23.843  0.00  0.00    -0.105 NA
ATOM     29  N   UNL     1      32.354  -6.811 -23.739  0.00  0.00    -0.113 N 
ATOM     30  N   UNL     1      31.310  -8.413 -22.850  0.00  0.00    -0.085 NA
ATOM     31  N   UNL     1      31.188  -7.127 -23.158  0.00  0.00    -0.018 NA
ATOM     32  C   UNL     1      32.550  -8.784 -23.272  0.00  0.00    +0.092 C 
ATOM     33  C   UNL     1      32.625  -5.482 -24.224  0.00  0.00    +0.163 C 
ENDBRANCH  27  32
ENDBRANCH   5  23
TORSDOF 8
ENDMDL
MODEL 9
REMARK VINA RESULT:      -9.4      1.459      1.985
REMARK  Name = 11476460
REMARK  8 active torsions:
REMARK  status: ('A' for Active; 'I' for Inactive)
REMARK    1  A    between atoms: C_2  and  N_10
REMARK    2  A    between atoms: C_5  and  C_23
REMARK    3  A    between atoms: C_11  and  C_14
REMARK    4  A    between atoms: C_14  and  O_15
REMARK    5  A    between atoms: O_15  and  P_16
REMARK    6  A    between atoms: P_16  and  O_18
REMARK    7  A    between atoms: P_16  and  O_20
REMARK    8  A    between atoms: C_27  and  C_32
REMARK                            x       y       z     vdW  Elec       q    Type
REMARK                         _______ _______ _______ _____ _____    ______ ____
ROOT
ATOM      1  F   UNL     1      38.122 -20.527 -17.445  0.00  0.00    -0.204 F 
ATOM      2  C   UNL     1      36.347 -23.015 -15.468  0.00  0.00    +0.059 C 
ATOM      3  C   UNL     1      37.329 -22.110 -15.882  0.00  0.00    +0.045 C 
ATOM      4  C   UNL     1      35.201 -23.194 -16.251  0.00  0.00    +0.015 C 
ATOM      5  C   UNL     1      36.023 -21.572 -17.842  0.00  0.00    +0.029 C 
ATOM      6  C   UNL     1      37.168 -21.390 -17.066  0.00  0.00    +0.141 C 
ATOM      7  C   UNL     1      35.040 -22.474 -17.434  0.00  0.00    +0.004 C 
ENDROOT
BRANCH   2  10
ATOM      8  O   UNL     1      36.109 -25.035 -12.449  0.00  0.00    -0.434 OA
ATOM      9  O   UNL     1      34.358 -24.635 -13.834  0.00  0.00    -0.226 OA
ATOM     10  N   UNL     1      36.512 -23.750 -14.261  0.00  0.00    -0.221 N 
ATOM     11  C   UNL     1      37.532 -24.865 -12.507  0.00  0.00    +0.221 C 
ATOM     12  C   UNL     1      37.734 -23.743 -13.504  0.00  0.00    +0.148 C 
ATOM     13  C   UNL     1      35.544 -24.480 -13.574  0.00  0.00    +0.409 C 
BRANCH  11  14
ATOM     14  C   UNL     1      38.167 -26.178 -12.946  0.00  0.00    +0.199 C 
BRANCH  14  15
ATOM     15  O   UNL     1      39.574 -26.016 -12.969  0.00  0.00    -0.269 OA
BRANCH  15  16
ATOM     16  P   UNL     1      40.322 -25.968 -14.404  0.00  0.00    +0.473 P 
ATOM     17  O   UNL     1      41.122 -24.724 -14.662  0.00  0.00    -0.227 OA
BRANCH  16  18
ATOM     18  O   UNL     1      39.138 -26.261 -15.465  0.00  0.00    -0.303 OA
ATOM     19  H   UNL     1      39.116 -25.553 -16.129  0.00  0.00    +0.222 HD
ENDBRANCH  16  18
BRANCH  16  20
ATOM     20  O   UNL     1      41.176 -27.343 -14.412  0.00  0.00    -0.303 OA
ATOM     21  H   UNL     1      41.102 -27.763 -15.283  0.00  0.00    +0.222 HD
ENDBRANCH  16  20
ENDBRANCH  15  16
ENDBRANCH  14  15
ENDBRANCH  11  14
ENDBRANCH   2  10
BRANCH   5  23
ATOM     22  N   UNL     1      34.378 -20.036 -20.813  0.00  0.00    -0.234 NA
ATOM     23  C   UNL     1      35.852 -20.828 -19.072  0.00  0.00    +0.021 C 
ATOM     24  C   UNL     1      36.932 -20.212 -19.690  0.00  0.00    +0.004 C 
ATOM     25  C   UNL     1      34.608 -20.713 -19.666  0.00  0.00    +0.100 C 
ATOM     26  C   UNL     1      36.736 -19.506 -20.872  0.00  0.00    +0.029 C 
ATOM     27  C   UNL     1      35.451 -19.448 -21.388  0.00  0.00    +0.146 C 
BRANCH  27  32
ATOM     28  N   UNL     1      34.008 -18.738 -23.220  0.00  0.00    -0.105 NA
ATOM     29  N   UNL     1      34.305 -17.949 -24.262  0.00  0.00    -0.113 N 
ATOM     30  N   UNL     1      36.146 -17.992 -23.233  0.00  0.00    -0.085 NA
ATOM     31  N   UNL     1      35.561 -17.483 -24.311  0.00  0.00    -0.018 NA
ATOM     32  C   UNL     1      35.192 -18.734 -22.605  0.00  0.00    +0.092 C 
ATOM     33  C   UNL     1      33.333 -17.620 -25.272  0.00  0.00    +0.163 C 
ENDBRANCH  27  32
ENDBRANCH   5  23
TORSDOF 8
ENDMDL
