MODEL 1
REMARK VINA RESULT:     -11.7      0.000      0.000
REMARK  Name = 9924495
REMARK  4 active torsions:
REMARK  status: ('A' for Active; 'I' for Inactive)
REMARK    1  A    between atoms: N_2  and  C_22
REMARK    2  A    between atoms: C_3  and  C_14
REMARK    3  A    between atoms: C_4  and  C_9
REMARK    4  A    between atoms: C_15  and  C_21
REMARK                            x       y       z     vdW  Elec       q    Type
REMARK                         _______ _______ _______ _____ _____    ______ ____
ROOT
ATOM      1  O   UNL     1      36.837 -22.769 -16.310  0.00  0.00    -0.269 OA
ATOM      2  N   UNL     1      34.596 -22.522 -16.996  0.00  0.00    -0.233 N 
ATOM      3  C   UNL     1      35.204 -23.626 -14.852  0.00  0.00    +0.055 C 
ATOM      4  C   UNL     1      32.897 -23.560 -15.637  0.00  0.00    +0.033 C 
ATOM      5  C   UNL     1      35.629 -22.914 -16.111  0.00  0.00    +0.257 C 
ATOM      6  C   UNL     1      33.908 -23.921 -14.670  0.00  0.00    +0.007 C 
ATOM      7  C   UNL     1      33.273 -22.877 -16.731  0.00  0.00    +0.074 C 
ENDROOT
BRANCH   4   9
ATOM      8  N   UNL     1      30.601 -23.114 -16.162  0.00  0.00    -0.244 NA
ATOM      9  C   UNL     1      31.466 -23.869 -15.450  0.00  0.00    +0.083 C 
ATOM     10  C   UNL     1      31.085 -24.879 -14.583  0.00  0.00    +0.019 C 
ATOM     11  C   UNL     1      29.725 -25.132 -14.438  0.00  0.00    +0.003 C 
ATOM     12  C   UNL     1      29.288 -23.388 -15.995  0.00  0.00    +0.099 C 
ATOM     13  C   UNL     1      28.804 -24.378 -15.154  0.00  0.00    +0.021 C 
ENDBRANCH   4   9
BRANCH   3  14
ATOM     14  C   UNL     1      36.189 -23.997 -13.821  0.00  0.00    +0.014 C 
ATOM     15  C   UNL     1      36.902 -25.194 -13.878  0.00  0.00    +0.069 C 
ATOM     16  C   UNL     1      36.399 -23.111 -12.764  0.00  0.00    +0.001 C 
ATOM     17  C   UNL     1      37.824 -25.506 -12.879  0.00  0.00    +0.010 C 
ATOM     18  C   UNL     1      37.322 -23.422 -11.766  0.00  0.00    +0.000 C 
ATOM     19  C   UNL     1      38.035 -24.619 -11.823  0.00  0.00    +0.001 C 
BRANCH  15  21
ATOM     20  N   UNL     1      36.558 -26.886 -15.810  0.00  0.00    -0.191 NA
ATOM     21  C   UNL     1      36.712 -26.129 -14.947  0.00  0.00    +0.100 C 
ENDBRANCH  15  21
ENDBRANCH   3  14
BRANCH   2  22
ATOM     22  C   UNL     1      34.925 -21.775 -18.195  0.00  0.00    +0.058 C 
ATOM     23  C   UNL     1      36.256 -21.527 -18.508  0.00  0.00    +0.015 C 
ATOM     24  C   UNL     1      33.905 -21.315 -19.020  0.00  0.00    +0.015 C 
ATOM     25  C   UNL     1      36.572 -20.810 -19.661  0.00  0.00    +0.001 C 
ATOM     26  C   UNL     1      34.221 -20.597 -20.174  0.00  0.00    +0.001 C 
ATOM     27  C   UNL     1      35.555 -20.344 -20.494  0.00  0.00    +0.000 C 
ENDBRANCH   2  22
TORSDOF 4
ENDMDL
MODEL 2
REMARK VINA RESULT:     -11.6      1.240      5.196
REMARK  Name = 9924495
REMARK  4 active torsions:
REMARK  status: ('A' for Active; 'I' for Inactive)
REMARK    1  A    between atoms: N_2  and  C_22
REMARK    2  A    between atoms: C_3  and  C_14
REMARK    3  A    between atoms: C_4  and  C_9
REMARK    4  A    between atoms: C_15  and  C_21
REMARK                            x       y       z     vdW  Elec       q    Type
REMARK                         _______ _______ _______ _____ _____    ______ ____
ROOT
ATOM      1  O   UNL     1      33.353 -24.399 -13.155  0.00  0.00    -0.269 OA
ATOM      2  N   UNL     1      32.776 -23.594 -15.294  0.00  0.00    -0.233 N 
ATOM      3  C   UNL     1      35.135 -23.680 -14.509  0.00  0.00    +0.055 C 
ATOM      4  C   UNL     1      34.543 -22.658 -16.641  0.00  0.00    +0.033 C 
ATOM      5  C   UNL     1      33.673 -23.947 -14.256  0.00  0.00    +0.257 C 
ATOM      6  C   UNL     1      35.504 -23.062 -15.642  0.00  0.00    +0.007 C 
ATOM      7  C   UNL     1      33.247 -22.947 -16.436  0.00  0.00    +0.074 C 
ENDROOT
BRANCH   4   9
ATOM      8  N   UNL     1      36.257 -21.812 -18.087  0.00  0.00    -0.244 NA
ATOM      9  C   UNL     1      34.931 -21.985 -17.896  0.00  0.00    +0.083 C 
ATOM     10  C   UNL     1      33.956 -21.573 -18.789  0.00  0.00    +0.019 C 
ATOM     11  C   UNL     1      34.370 -20.942 -19.957  0.00  0.00    +0.003 C 
ATOM     12  C   UNL     1      36.622 -21.195 -19.234  0.00  0.00    +0.099 C 
ATOM     13  C   UNL     1      35.726 -20.746 -20.191  0.00  0.00    +0.021 C 
ENDBRANCH   4   9
BRANCH   3  14
ATOM     14  C   UNL     1      36.161 -24.091 -13.534  0.00  0.00    +0.014 C 
ATOM     15  C   UNL     1      36.909 -25.256 -13.695  0.00  0.00    +0.069 C 
ATOM     16  C   UNL     1      36.374 -23.274 -12.423  0.00  0.00    +0.001 C 
ATOM     17  C   UNL     1      37.869 -25.607 -12.747  0.00  0.00    +0.010 C 
ATOM     18  C   UNL     1      37.335 -23.624 -11.474  0.00  0.00    +0.000 C 
ATOM     19  C   UNL     1      38.083 -24.790 -11.636  0.00  0.00    +0.001 C 
BRANCH  15  21
ATOM     20  N   UNL     1      36.563 -26.819 -15.733  0.00  0.00    -0.191 NA
ATOM     21  C   UNL     1      36.718 -26.120 -14.823  0.00  0.00    +0.100 C 
ENDBRANCH  15  21
ENDBRANCH   3  14
BRANCH   2  22
ATOM     22  C   UNL     1      31.362 -23.881 -15.147  0.00  0.00    +0.058 C 
ATOM     23  C   UNL     1      30.958 -25.132 -14.696  0.00  0.00    +0.015 C 
ATOM     24  C   UNL     1      30.426 -22.902 -15.457  0.00  0.00    +0.015 C 
ATOM     25  C   UNL     1      29.598 -25.408 -14.555  0.00  0.00    +0.001 C 
ATOM     26  C   UNL     1      29.066 -23.178 -15.315  0.00  0.00    +0.001 C 
ATOM     27  C   UNL     1      28.652 -24.431 -14.864  0.00  0.00    +0.000 C 
ENDBRANCH   2  22
TORSDOF 4
ENDMDL
MODEL 3
REMARK VINA RESULT:      -9.8      1.554      1.909
REMARK  Name = 9924495
REMARK  4 active torsions:
REMARK  status: ('A' for Active; 'I' for Inactive)
REMARK    1  A    between atoms: N_2  and  C_22
REMARK    2  A    between atoms: C_3  and  C_14
REMARK    3  A    between atoms: C_4  and  C_9
REMARK    4  A    between atoms: C_15  and  C_21
REMARK                            x       y       z     vdW  Elec       q    Type
REMARK                         _______ _______ _______ _____ _____    ______ ____
ROOT
ATOM      1  O   UNL     1      36.278 -22.364 -17.350  0.00  0.00    -0.269 OA
ATOM      2  N   UNL     1      34.014 -21.984 -17.884  0.00  0.00    -0.233 N 
ATOM      3  C   UNL     1      34.696 -23.218 -15.835  0.00  0.00    +0.055 C 
ATOM      4  C   UNL     1      32.353 -23.011 -16.472  0.00  0.00    +0.033 C 
ATOM      5  C   UNL     1      35.079 -22.465 -17.084  0.00  0.00    +0.257 C 
ATOM      6  C   UNL     1      33.401 -23.463 -15.587  0.00  0.00    +0.007 C 
ATOM      7  C   UNL     1      32.695 -22.292 -17.555  0.00  0.00    +0.074 C 
ENDROOT
BRANCH   4   9
ATOM      8  N   UNL     1      30.056 -22.402 -16.787  0.00  0.00    -0.244 NA
ATOM      9  C   UNL     1      30.922 -23.264 -16.211  0.00  0.00    +0.083 C 
ATOM     10  C   UNL     1      30.544 -24.331 -15.414  0.00  0.00    +0.019 C 
ATOM     11  C   UNL     1      29.184 -24.528 -15.195  0.00  0.00    +0.003 C 
ATOM     12  C   UNL     1      28.743 -22.625 -16.552  0.00  0.00    +0.099 C 
ATOM     13  C   UNL     1      28.261 -23.664 -15.771  0.00  0.00    +0.021 C 
ENDBRANCH   4   9
BRANCH   3  14
ATOM     14  C   UNL     1      35.723 -23.683 -14.885  0.00  0.00    +0.014 C 
ATOM     15  C   UNL     1      35.406 -24.054 -13.579  0.00  0.00    +0.069 C 
ATOM     16  C   UNL     1      37.044 -23.748 -15.328  0.00  0.00    +0.001 C 
ATOM     17  C   UNL     1      36.410 -24.488 -12.714  0.00  0.00    +0.010 C 
ATOM     18  C   UNL     1      38.049 -24.183 -14.463  0.00  0.00    +0.000 C 
ATOM     19  C   UNL     1      37.732 -24.553 -13.156  0.00  0.00    +0.001 C 
BRANCH  15  21
ATOM     20  N   UNL     1      32.974 -23.956 -12.692  0.00  0.00    -0.191 NA
ATOM     21  C   UNL     1      34.061 -24.000 -13.090  0.00  0.00    +0.100 C 
ENDBRANCH  15  21
ENDBRANCH   3  14
BRANCH   2  22
ATOM     22  C   UNL     1      34.307 -21.194 -19.066  0.00  0.00    +0.058 C 
ATOM     23  C   UNL     1      35.626 -21.008 -19.460  0.00  0.00    +0.015 C 
ATOM     24  C   UNL     1      33.263 -20.632 -19.793  0.00  0.00    +0.015 C 
ATOM     25  C   UNL     1      35.906 -20.250 -20.596  0.00  0.00    +0.001 C 
ATOM     26  C   UNL     1      33.543 -19.874 -20.929  0.00  0.00    +0.001 C 
ATOM     27  C   UNL     1      34.865 -19.682 -21.331  0.00  0.00    +0.000 C 
ENDBRANCH   2  22
TORSDOF 4
ENDMDL
MODEL 4
REMARK VINA RESULT:      -9.6      1.524      6.389
REMARK  Name = 9924495
REMARK  4 active torsions:
REMARK  status: ('A' for Active; 'I' for Inactive)
REMARK    1  A    between atoms: N_2  and  C_22
REMARK    2  A    between atoms: C_3  and  C_14
REMARK    3  A    between atoms: C_4  and  C_9
REMARK    4  A    between atoms: C_15  and  C_21
REMARK                            x       y       z     vdW  Elec       q    Type
REMARK                         _______ _______ _______ _____ _____    ______ ____
ROOT
ATOM      1  O   UNL     1      32.254 -22.251 -18.009  0.00  0.00    -0.269 OA
ATOM      2  N   UNL     1      32.460 -23.329 -15.923  0.00  0.00    -0.233 N 
ATOM      3  C   UNL     1      34.439 -22.485 -17.172  0.00  0.00    +0.055 C 
ATOM      4  C   UNL     1      34.687 -23.773 -15.118  0.00  0.00    +0.033 C 
ATOM      5  C   UNL     1      32.944 -22.656 -17.072  0.00  0.00    +0.257 C 
ATOM      6  C   UNL     1      35.227 -23.034 -16.235  0.00  0.00    +0.007 C 
ATOM      7  C   UNL     1      33.353 -23.876 -15.002  0.00  0.00    +0.074 C 
ENDROOT
BRANCH   4   9
ATOM      8  N   UNL     1      36.490 -25.232 -14.510  0.00  0.00    -0.244 NA
ATOM      9  C   UNL     1      35.539 -24.377 -14.074  0.00  0.00    +0.083 C 
ATOM     10  C   UNL     1      35.333 -24.056 -12.743  0.00  0.00    +0.019 C 
ATOM     11  C   UNL     1      36.159 -24.650 -11.796  0.00  0.00    +0.003 C 
ATOM     12  C   UNL     1      37.274 -25.791 -13.560  0.00  0.00    +0.099 C 
ATOM     13  C   UNL     1      37.150 -25.535 -12.204  0.00  0.00    +0.021 C 
ENDBRANCH   4   9
BRANCH   3  14
ATOM     14  C   UNL     1      35.042 -21.722 -18.279  0.00  0.00    +0.014 C 
ATOM     15  C   UNL     1      36.396 -21.391 -18.296  0.00  0.00    +0.069 C 
ATOM     16  C   UNL     1      34.216 -21.329 -19.332  0.00  0.00    +0.001 C 
ATOM     17  C   UNL     1      36.925 -20.667 -19.364  0.00  0.00    +0.010 C 
ATOM     18  C   UNL     1      34.744 -20.606 -20.401  0.00  0.00    +0.000 C 
ATOM     19  C   UNL     1      36.099 -20.275 -20.417  0.00  0.00    +0.001 C 
BRANCH  15  21
ATOM     20  N   UNL     1      37.988 -22.089 -16.373  0.00  0.00    -0.191 NA
ATOM     21  C   UNL     1      37.276 -21.777 -17.232  0.00  0.00    +0.100 C 
ENDBRANCH  15  21
ENDBRANCH   3  14
BRANCH   2  22
ATOM     22  C   UNL     1      31.029 -23.472 -15.727  0.00  0.00    +0.058 C 
ATOM     23  C   UNL     1      30.175 -22.449 -16.121  0.00  0.00    +0.015 C 
ATOM     24  C   UNL     1      30.528 -24.633 -15.149  0.00  0.00    +0.015 C 
ATOM     25  C   UNL     1      28.800 -22.588 -15.932  0.00  0.00    +0.001 C 
ATOM     26  C   UNL     1      29.153 -24.771 -14.961  0.00  0.00    +0.001 C 
ATOM     27  C   UNL     1      28.289 -23.749 -15.353  0.00  0.00    +0.000 C 
ENDBRANCH   2  22
TORSDOF 4
ENDMDL
MODEL 5
REMARK VINA RESULT:      -9.1      1.557      5.608
REMARK  Name = 9924495
REMARK  4 active torsions:
REMARK  status: ('A' for Active; 'I' for Inactive)
REMARK    1  A    between atoms: N_2  and  C_22
REMARK    2  A    between atoms: C_3  and  C_14
REMARK    3  A    between atoms: C_4  and  C_9
REMARK    4  A    between atoms: C_15  and  C_21
REMARK                            x       y       z     vdW  Elec       q    Type
REMARK                         _______ _______ _______ _____ _____    ______ ____
ROOT
ATOM      1  O   UNL     1      31.982 -21.928 -17.807  0.00  0.00    -0.269 OA
ATOM      2  N   UNL     1      34.305 -22.224 -17.541  0.00  0.00    -0.233 N 
ATOM      3  C   UNL     1      32.656 -23.319 -16.035  0.00  0.00    +0.055 C 
ATOM      4  C   UNL     1      35.052 -23.474 -15.621  0.00  0.00    +0.033 C 
ATOM      5  C   UNL     1      32.941 -22.438 -17.226  0.00  0.00    +0.257 C 
ATOM      6  C   UNL     1      33.678 -23.779 -15.299  0.00  0.00    +0.007 C 
ATOM      7  C   UNL     1      35.305 -22.736 -16.715  0.00  0.00    +0.074 C 
ENDROOT
BRANCH   4   9
ATOM      8  N   UNL     1      36.691 -25.175 -15.209  0.00  0.00    -0.244 NA
ATOM      9  C   UNL     1      36.190 -23.980 -14.828  0.00  0.00    +0.083 C 
ATOM     10  C   UNL     1      36.674 -23.237 -13.764  0.00  0.00    +0.019 C 
ATOM     11  C   UNL     1      37.747 -23.755 -13.045  0.00  0.00    +0.003 C 
ATOM     12  C   UNL     1      37.732 -25.647 -14.487  0.00  0.00    +0.099 C 
ATOM     13  C   UNL     1      38.291 -24.981 -13.407  0.00  0.00    +0.021 C 
ENDBRANCH   4   9
BRANCH   3  14
ATOM     14  C   UNL     1      31.273 -23.680 -15.674  0.00  0.00    +0.014 C 
ATOM     15  C   UNL     1      30.964 -24.292 -14.460  0.00  0.00    +0.069 C 
ATOM     16  C   UNL     1      30.259 -23.392 -16.588  0.00  0.00    +0.001 C 
ATOM     17  C   UNL     1      29.642 -24.618 -14.159  0.00  0.00    +0.010 C 
ATOM     18  C   UNL     1      28.937 -23.717 -16.287  0.00  0.00    +0.000 C 
ATOM     19  C   UNL     1      28.628 -24.329 -15.073  0.00  0.00    +0.001 C 
BRANCH  15  21
ATOM     20  N   UNL     1      32.797 -24.856 -12.718  0.00  0.00    -0.191 NA
ATOM     21  C   UNL     1      31.979 -24.603 -13.497  0.00  0.00    +0.100 C 
ENDBRANCH  15  21
ENDBRANCH   3  14
BRANCH   2  22
ATOM     22  C   UNL     1      34.655 -21.442 -18.712  0.00  0.00    +0.058 C 
ATOM     23  C   UNL     1      33.649 -20.888 -19.495  0.00  0.00    +0.015 C 
ATOM     24  C   UNL     1      35.993 -21.253 -19.038  0.00  0.00    +0.015 C 
ATOM     25  C   UNL     1      33.986 -20.136 -20.620  0.00  0.00    +0.001 C 
ATOM     26  C   UNL     1      36.330 -20.501 -20.163  0.00  0.00    +0.001 C 
ATOM     27  C   UNL     1      35.326 -19.942 -20.955  0.00  0.00    +0.000 C 
ENDBRANCH   2  22
TORSDOF 4
ENDMDL
MODEL 6
REMARK VINA RESULT:      -8.8      1.270      5.782
REMARK  Name = 9924495
REMARK  4 active torsions:
REMARK  status: ('A' for Active; 'I' for Inactive)
REMARK    1  A    between atoms: N_2  and  C_22
REMARK    2  A    between atoms: C_3  and  C_14
REMARK    3  A    between atoms: C_4  and  C_9
REMARK    4  A    between atoms: C_15  and  C_21
REMARK                            x       y       z     vdW  Elec       q    Type
REMARK                         _______ _______ _______ _____ _____    ______ ____
ROOT
ATOM      1  O   UNL     1      37.339 -22.313 -16.070  0.00  0.00    -0.269 OA
ATOM      2  N   UNL     1      35.838 -23.532 -14.722  0.00  0.00    -0.233 N 
ATOM      3  C   UNL     1      35.123 -22.449 -16.845  0.00  0.00    +0.055 C 
ATOM      4  C   UNL     1      33.515 -23.531 -15.367  0.00  0.00    +0.033 C 
ATOM      5  C   UNL     1      36.215 -22.771 -15.856  0.00  0.00    +0.257 C 
ATOM      6  C   UNL     1      33.862 -22.816 -16.574  0.00  0.00    +0.007 C 
ATOM      7  C   UNL     1      34.499 -23.865 -14.516  0.00  0.00    +0.074 C 
ENDROOT
BRANCH   4   9
ATOM      8  N   UNL     1      31.987 -24.734 -13.966  0.00  0.00    -0.244 NA
ATOM      9  C   UNL     1      32.135 -23.950 -15.057  0.00  0.00    +0.083 C 
ATOM     10  C   UNL     1      31.090 -23.541 -15.867  0.00  0.00    +0.019 C 
ATOM     11  C   UNL     1      29.806 -23.963 -15.535  0.00  0.00    +0.003 C 
ATOM     12  C   UNL     1      30.726 -25.125 -13.675  0.00  0.00    +0.099 C 
ATOM     13  C   UNL     1      29.613 -24.769 -14.420  0.00  0.00    +0.021 C 
ENDBRANCH   4   9
BRANCH   3  14
ATOM     14  C   UNL     1      35.424 -21.740 -18.102  0.00  0.00    +0.014 C 
ATOM     15  C   UNL     1      34.417 -21.302 -18.961  0.00  0.00    +0.069 C 
ATOM     16  C   UNL     1      36.762 -21.513 -18.423  0.00  0.00    +0.001 C 
ATOM     17  C   UNL     1      34.747 -20.636 -20.141  0.00  0.00    +0.010 C 
ATOM     18  C   UNL     1      37.093 -20.846 -19.603  0.00  0.00    +0.000 C 
ATOM     19  C   UNL     1      36.085 -20.408 -20.462  0.00  0.00    +0.001 C 
BRANCH  15  21
ATOM     20  N   UNL     1      31.912 -21.691 -18.425  0.00  0.00    -0.191 NA
ATOM     21  C   UNL     1      33.032 -21.518 -18.665  0.00  0.00    +0.100 C 
ENDBRANCH  15  21
ENDBRANCH   3  14
BRANCH   2  22
ATOM     22  C   UNL     1      36.848 -23.935 -13.762  0.00  0.00    +0.058 C 
ATOM     23  C   UNL     1      37.078 -23.154 -12.637  0.00  0.00    +0.015 C 
ATOM     24  C   UNL     1      37.574 -25.101 -13.978  0.00  0.00    +0.015 C 
ATOM     25  C   UNL     1      38.049 -23.543 -11.714  0.00  0.00    +0.001 C 
ATOM     26  C   UNL     1      38.545 -25.490 -13.056  0.00  0.00    +0.001 C 
ATOM     27  C   UNL     1      38.782 -24.711 -11.923  0.00  0.00    +0.000 C 
ENDBRANCH   2  22
TORSDOF 4
ENDMDL
