MODEL 1
REMARK VINA RESULT:     -11.4      0.000      0.000
REMARK  Name = 11998575
REMARK  7 active torsions:
REMARK  status: ('A' for Active; 'I' for Inactive)
REMARK    1  A    between atoms: C_6  and  C_18
REMARK    2  A    between atoms: C_14  and  O_22
REMARK    3  A    between atoms: C_15  and  O_16
REMARK    4  A    between atoms: C_18  and  O_20
REMARK    5  A    between atoms: O_22  and  C_23
REMARK    6  A    between atoms: C_23  and  C_24
REMARK    7  A    between atoms: C_29  and  O_30
REMARK                            x       y       z     vdW  Elec       q    Type
REMARK                         _______ _______ _______ _____ _____    ______ ____
ROOT
ATOM      1  O   UNL     1      32.808 -21.781 -18.822  0.00  0.00    -0.421 OA
ATOM      2  O   UNL     1      32.304 -20.558 -20.680  0.00  0.00    -0.244 OA
ATOM      3  C   UNL     1      35.524 -21.029 -19.060  0.00  0.00    +0.009 A 
ATOM      4  C   UNL     1      35.091 -21.907 -17.965  0.00  0.00    +0.038 A 
ATOM      5  C   UNL     1      34.575 -20.567 -19.989  0.00  0.00    +0.076 A 
ATOM      6  C   UNL     1      36.274 -19.335 -21.201  0.00  0.00    +0.004 C 
ATOM      7  C   UNL     1      33.742 -22.257 -17.879  0.00  0.00    +0.152 A 
ATOM      8  C   UNL     1      34.948 -19.726 -21.050  0.00  0.00    +0.004 C 
ATOM      9  C   UNL     1      36.858 -20.616 -19.239  0.00  0.00    +0.000 C 
ATOM     10  C   UNL     1      35.941 -22.433 -16.979  0.00  0.00    +0.043 C 
ATOM     11  C   UNL     1      37.229 -19.779 -20.297  0.00  0.00    -0.002 C 
ATOM     12  C   UNL     1      33.147 -20.950 -19.882  0.00  0.00    +0.346 A 
ATOM     13  C   UNL     1      33.235 -23.087 -16.875  0.00  0.00    +0.078 C 
ATOM     14  C   UNL     1      34.100 -23.593 -15.913  0.00  0.00    +0.176 C 
ATOM     15  C   UNL     1      35.452 -23.267 -15.964  0.00  0.00    +0.173 C 
ENDROOT
BRANCH  15  16
ATOM     16  O   UNL     1      36.315 -23.755 -15.029  0.00  0.00    -0.468 OA
ATOM     17  C   UNL     1      37.651 -23.259 -15.059  0.00  0.00    +0.253 C 
ENDBRANCH  15  16
BRANCH   6  18
ATOM     18  C   UNL     1      36.669 -18.443 -22.329  0.00  0.00    +0.133 C 
ATOM     19  C   UNL     1      35.873 -17.134 -22.356  0.00  0.00    +0.037 C 
BRANCH  18  20
ATOM     20  O   UNL     1      38.063 -18.126 -22.238  0.00  0.00    -0.380 OA
ATOM     21  H   UNL     1      38.211 -17.537 -21.481  0.00  0.00    +0.211 HD
ENDBRANCH  18  20
ENDBRANCH   6  18
BRANCH  14  22
ATOM     22  O   UNL     1      33.616 -24.403 -14.932  0.00  0.00    -0.467 OA
BRANCH  22  23
ATOM     23  C   UNL     1      32.837 -23.787 -13.907  0.00  0.00    +0.232 C 
BRANCH  23  24
ATOM     24  C   UNL     1      31.420 -23.654 -14.384  0.00  0.00    +0.021 C 
ATOM     25  C   UNL     1      30.839 -22.396 -14.475  0.00  0.00    +0.002 C 
ATOM     26  C   UNL     1      30.700 -24.794 -14.730  0.00  0.00    +0.002 C 
ATOM     27  C   UNL     1      29.521 -22.272 -14.918  0.00  0.00    +0.037 C 
ATOM     28  C   UNL     1      29.384 -24.672 -15.173  0.00  0.00    +0.037 C 
ATOM     29  C   UNL     1      28.794 -23.411 -15.267  0.00  0.00    +0.139 C 
BRANCH  29  30
ATOM     30  O   UNL     1      27.509 -23.291 -15.699  0.00  0.00    -0.471 OA
ATOM     31  C   UNL     1      27.142 -22.056 -16.311  0.00  0.00    +0.252 C 
ENDBRANCH  29  30
ENDBRANCH  23  24
ENDBRANCH  22  23
ENDBRANCH  14  22
TORSDOF 7
ENDMDL
MODEL 2
REMARK VINA RESULT:     -11.0      2.964      8.972
REMARK  Name = 11998575
REMARK  7 active torsions:
REMARK  status: ('A' for Active; 'I' for Inactive)
REMARK    1  A    between atoms: C_6  and  C_18
REMARK    2  A    between atoms: C_14  and  O_22
REMARK    3  A    between atoms: C_15  and  O_16
REMARK    4  A    between atoms: C_18  and  O_20
REMARK    5  A    between atoms: O_22  and  C_23
REMARK    6  A    between atoms: C_23  and  C_24
REMARK    7  A    between atoms: C_29  and  O_30
REMARK                            x       y       z     vdW  Elec       q    Type
REMARK                         _______ _______ _______ _____ _____    ______ ____
ROOT
ATOM      1  O   UNL     1      37.523 -21.840 -17.347  0.00  0.00    -0.421 OA
ATOM      2  O   UNL     1      38.735 -22.549 -15.551  0.00  0.00    -0.244 OA
ATOM      3  C   UNL     1      35.158 -22.808 -16.137  0.00  0.00    +0.009 A 
ATOM      4  C   UNL     1      35.104 -22.160 -17.453  0.00  0.00    +0.038 A 
ATOM      5  C   UNL     1      36.395 -22.943 -15.484  0.00  0.00    +0.076 A 
ATOM      6  C   UNL     1      35.349 -24.045 -13.597  0.00  0.00    +0.004 C 
ATOM      7  C   UNL     1      36.292 -21.694 -18.021  0.00  0.00    +0.152 A 
ATOM      8  C   UNL     1      36.490 -23.556 -14.224  0.00  0.00    +0.004 C 
ATOM      9  C   UNL     1      34.021 -23.313 -15.476  0.00  0.00    +0.000 C 
ATOM     10  C   UNL     1      33.932 -21.968 -18.203  0.00  0.00    +0.043 C 
ATOM     11  C   UNL     1      34.115 -23.924 -14.222  0.00  0.00    -0.002 C 
ATOM     12  C   UNL     1      37.647 -22.443 -16.102  0.00  0.00    +0.346 A 
ATOM     13  C   UNL     1      36.343 -21.066 -19.268  0.00  0.00    +0.078 C 
ATOM     14  C   UNL     1      35.167 -20.890 -19.987  0.00  0.00    +0.176 C 
ATOM     15  C   UNL     1      33.963 -21.341 -19.455  0.00  0.00    +0.173 C 
ENDROOT
BRANCH  15  16
ATOM     16  O   UNL     1      32.800 -21.176 -20.148  0.00  0.00    -0.468 OA
ATOM     17  C   UNL     1      32.456 -19.846 -20.528  0.00  0.00    +0.253 C 
ENDBRANCH  15  16
BRANCH   6  18
ATOM     18  C   UNL     1      35.450 -24.697 -12.260  0.00  0.00    +0.133 C 
ATOM     19  C   UNL     1      36.881 -25.121 -11.913  0.00  0.00    +0.037 C 
BRANCH  18  20
ATOM     20  O   UNL     1      34.981 -23.804 -11.242  0.00  0.00    -0.380 OA
ATOM     21  H   UNL     1      34.013 -23.763 -11.270  0.00  0.00    +0.211 HD
ENDBRANCH  18  20
ENDBRANCH   6  18
BRANCH  14  22
ATOM     22  O   UNL     1      35.207 -20.280 -21.203  0.00  0.00    -0.467 OA
BRANCH  22  23
ATOM     23  C   UNL     1      36.056 -19.140 -21.331  0.00  0.00    +0.232 C 
BRANCH  23  24
ATOM     24  C   UNL     1      35.528 -18.257 -22.424  0.00  0.00    +0.021 C 
ATOM     25  C   UNL     1      35.680 -16.879 -22.329  0.00  0.00    +0.002 C 
ATOM     26  C   UNL     1      34.889 -18.827 -23.521  0.00  0.00    +0.002 C 
ATOM     27  C   UNL     1      35.189 -16.058 -23.345  0.00  0.00    +0.037 C 
ATOM     28  C   UNL     1      34.398 -18.007 -24.536  0.00  0.00    +0.037 C 
ATOM     29  C   UNL     1      34.548 -16.623 -24.448  0.00  0.00    +0.139 C 
BRANCH  29  30
ATOM     30  O   UNL     1      34.069 -15.822 -25.439  0.00  0.00    -0.471 OA
ATOM     31  C   UNL     1      33.682 -14.498 -25.075  0.00  0.00    +0.252 C 
ENDBRANCH  29  30
ENDBRANCH  23  24
ENDBRANCH  22  23
ENDBRANCH  14  22
TORSDOF 7
ENDMDL
MODEL 3
REMARK VINA RESULT:     -10.9      3.474      8.451
REMARK  Name = 11998575
REMARK  7 active torsions:
REMARK  status: ('A' for Active; 'I' for Inactive)
REMARK    1  A    between atoms: C_6  and  C_18
REMARK    2  A    between atoms: C_14  and  O_22
REMARK    3  A    between atoms: C_15  and  O_16
REMARK    4  A    between atoms: C_18  and  O_20
REMARK    5  A    between atoms: O_22  and  C_23
REMARK    6  A    between atoms: C_23  and  C_24
REMARK    7  A    between atoms: C_29  and  O_30
REMARK                            x       y       z     vdW  Elec       q    Type
REMARK                         _______ _______ _______ _____ _____    ______ ____
ROOT
ATOM      1  O   UNL     1      33.078 -24.361 -12.638  0.00  0.00    -0.421 OA
ATOM      2  O   UNL     1      30.890 -24.897 -12.284  0.00  0.00    -0.244 OA
ATOM      3  C   UNL     1      32.397 -23.226 -15.137  0.00  0.00    +0.009 A 
ATOM      4  C   UNL     1      33.792 -23.226 -14.679  0.00  0.00    +0.038 A 
ATOM      5  C   UNL     1      31.404 -23.795 -14.323  0.00  0.00    +0.076 A 
ATOM      6  C   UNL     1      29.684 -23.267 -15.946  0.00  0.00    +0.004 C 
ATOM      7  C   UNL     1      34.092 -23.795 -13.440  0.00  0.00    +0.152 A 
ATOM      8  C   UNL     1      30.058 -23.815 -14.724  0.00  0.00    +0.004 C 
ATOM      9  C   UNL     1      31.988 -22.678 -16.369  0.00  0.00    +0.000 C 
ATOM     10  C   UNL     1      34.871 -22.689 -15.401  0.00  0.00    +0.043 C 
ATOM     11  C   UNL     1      30.648 -22.699 -16.769  0.00  0.00    -0.002 C 
ATOM     12  C   UNL     1      31.740 -24.396 -13.009  0.00  0.00    +0.346 A 
ATOM     13  C   UNL     1      35.387 -23.844 -12.918  0.00  0.00    +0.078 C 
ATOM     14  C   UNL     1      36.435 -23.306 -13.656  0.00  0.00    +0.176 C 
ATOM     15  C   UNL     1      36.178 -22.729 -14.896  0.00  0.00    +0.173 C 
ENDROOT
BRANCH  15  16
ATOM     16  O   UNL     1      37.194 -22.197 -15.632  0.00  0.00    -0.468 OA
ATOM     17  C   UNL     1      36.878 -21.763 -16.952  0.00  0.00    +0.253 C 
ENDBRANCH  15  16
BRANCH   6  18
ATOM     18  C   UNL     1      28.255 -23.289 -16.373  0.00  0.00    +0.133 C 
ATOM     19  C   UNL     1      27.419 -22.196 -15.699  0.00  0.00    +0.037 C 
BRANCH  18  20
ATOM     20  O   UNL     1      28.165 -23.120 -17.792  0.00  0.00    -0.380 OA
ATOM     21  H   UNL     1      27.750 -23.905 -18.184  0.00  0.00    +0.211 HD
ENDBRANCH  18  20
ENDBRANCH   6  18
BRANCH  14  22
ATOM     22  O   UNL     1      37.701 -23.350 -13.157  0.00  0.00    -0.467 OA
BRANCH  22  23
ATOM     23  C   UNL     1      38.126 -24.580 -12.571  0.00  0.00    +0.232 C 
BRANCH  23  24
ATOM     24  C   UNL     1      38.873 -25.378 -13.599  0.00  0.00    +0.021 C 
ATOM     25  C   UNL     1      40.233 -25.161 -13.784  0.00  0.00    +0.002 C 
ATOM     26  C   UNL     1      38.197 -26.328 -14.359  0.00  0.00    +0.002 C 
ATOM     27  C   UNL     1      40.929 -25.904 -14.739  0.00  0.00    +0.037 C 
ATOM     28  C   UNL     1      38.891 -27.070 -15.314  0.00  0.00    +0.037 C 
ATOM     29  C   UNL     1      40.257 -26.857 -15.504  0.00  0.00    +0.139 C 
BRANCH  29  30
ATOM     30  O   UNL     1      40.935 -27.582 -16.436  0.00  0.00    -0.471 OA
ATOM     31  C   UNL     1      41.401 -28.871 -16.044  0.00  0.00    +0.252 C 
ENDBRANCH  29  30
ENDBRANCH  23  24
ENDBRANCH  22  23
ENDBRANCH  14  22
TORSDOF 7
ENDMDL
MODEL 4
REMARK VINA RESULT:     -10.8      1.939      8.935
REMARK  Name = 11998575
REMARK  7 active torsions:
REMARK  status: ('A' for Active; 'I' for Inactive)
REMARK    1  A    between atoms: C_6  and  C_18
REMARK    2  A    between atoms: C_14  and  O_22
REMARK    3  A    between atoms: C_15  and  O_16
REMARK    4  A    between atoms: C_18  and  O_20
REMARK    5  A    between atoms: O_22  and  C_23
REMARK    6  A    between atoms: C_23  and  C_24
REMARK    7  A    between atoms: C_29  and  O_30
REMARK                            x       y       z     vdW  Elec       q    Type
REMARK                         _______ _______ _______ _____ _____    ______ ____
ROOT
ATOM      1  O   UNL     1      36.446 -22.535 -16.731  0.00  0.00    -0.421 OA
ATOM      2  O   UNL     1      36.482 -23.687 -14.763  0.00  0.00    -0.244 OA
ATOM      3  C   UNL     1      33.627 -22.745 -16.804  0.00  0.00    +0.009 A 
ATOM      4  C   UNL     1      34.346 -22.050 -17.879  0.00  0.00    +0.038 A 
ATOM      5  C   UNL     1      34.352 -23.305 -15.739  0.00  0.00    +0.076 A 
ATOM      6  C   UNL     1      32.317 -24.101 -14.691  0.00  0.00    +0.004 C 
ATOM      7  C   UNL     1      35.738 -21.966 -17.810  0.00  0.00    +0.152 A 
ATOM      8  C   UNL     1      33.702 -23.977 -14.691  0.00  0.00    +0.004 C 
ATOM      9  C   UNL     1      32.225 -22.886 -16.777  0.00  0.00    +0.000 C 
ATOM     10  C   UNL     1      33.735 -21.452 -18.994  0.00  0.00    +0.043 C 
ATOM     11  C   UNL     1      31.579 -23.556 -15.734  0.00  0.00    -0.002 C 
ATOM     12  C   UNL     1      35.831 -23.207 -15.682  0.00  0.00    +0.346 A 
ATOM     13  C   UNL     1      36.511 -21.327 -18.784  0.00  0.00    +0.078 C 
ATOM     14  C   UNL     1      35.878 -20.745 -19.876  0.00  0.00    +0.176 C 
ATOM     15  C   UNL     1      34.492 -20.807 -19.981  0.00  0.00    +0.173 C 
ENDROOT
BRANCH  15  16
ATOM     16  O   UNL     1      33.856 -20.242 -21.046  0.00  0.00    -0.468 OA
ATOM     17  C   UNL     1      32.491 -19.874 -20.863  0.00  0.00    +0.253 C 
ENDBRANCH  15  16
BRANCH   6  18
ATOM     18  C   UNL     1      31.627 -24.816 -13.579  0.00  0.00    +0.133 C 
ATOM     19  C   UNL     1      30.907 -23.863 -12.619  0.00  0.00    +0.037 C 
BRANCH  18  20
ATOM     20  O   UNL     1      30.668 -25.738 -14.110  0.00  0.00    -0.380 OA
ATOM     21  H   UNL     1      30.059 -26.011 -13.406  0.00  0.00    +0.211 HD
ENDBRANCH  18  20
ENDBRANCH   6  18
BRANCH  14  22
ATOM     22  O   UNL     1      36.622 -20.122 -20.831  0.00  0.00    -0.467 OA
BRANCH  22  23
ATOM     23  C   UNL     1      36.783 -18.709 -20.708  0.00  0.00    +0.232 C 
BRANCH  23  24
ATOM     24  C   UNL     1      36.141 -18.039 -21.888  0.00  0.00    +0.021 C 
ATOM     25  C   UNL     1      35.728 -16.716 -21.788  0.00  0.00    +0.002 C 
ATOM     26  C   UNL     1      35.962 -18.751 -23.070  0.00  0.00    +0.002 C 
ATOM     27  C   UNL     1      35.131 -16.094 -22.885  0.00  0.00    +0.037 C 
ATOM     28  C   UNL     1      35.365 -18.129 -24.166  0.00  0.00    +0.037 C 
ATOM     29  C   UNL     1      34.949 -16.801 -24.074  0.00  0.00    +0.139 C 
BRANCH  29  30
ATOM     30  O   UNL     1      34.367 -16.194 -25.144  0.00  0.00    -0.471 OA
ATOM     31  C   UNL     1      33.832 -14.887 -24.938  0.00  0.00    +0.252 C 
ENDBRANCH  29  30
ENDBRANCH  23  24
ENDBRANCH  22  23
ENDBRANCH  14  22
TORSDOF 7
ENDMDL
MODEL 5
REMARK VINA RESULT:     -10.7      2.595      5.195
REMARK  Name = 11998575
REMARK  7 active torsions:
REMARK  status: ('A' for Active; 'I' for Inactive)
REMARK    1  A    between atoms: C_6  and  C_18
REMARK    2  A    between atoms: C_14  and  O_22
REMARK    3  A    between atoms: C_15  and  O_16
REMARK    4  A    between atoms: C_18  and  O_20
REMARK    5  A    between atoms: O_22  and  C_23
REMARK    6  A    between atoms: C_23  and  C_24
REMARK    7  A    between atoms: C_29  and  O_30
REMARK                            x       y       z     vdW  Elec       q    Type
REMARK                         _______ _______ _______ _____ _____    ______ ____
ROOT
ATOM      1  O   UNL     1      37.394 -19.675 -19.870  0.00  0.00    -0.421 OA
ATOM      2  O   UNL     1      38.401 -18.143 -21.225  0.00  0.00    -0.244 OA
ATOM      3  C   UNL     1      35.054 -19.540 -21.451  0.00  0.00    +0.009 A 
ATOM      4  C   UNL     1      35.107 -20.427 -20.283  0.00  0.00    +0.038 A 
ATOM      5  C   UNL     1      36.176 -18.759 -21.776  0.00  0.00    +0.076 A 
ATOM      6  C   UNL     1      35.033 -17.803 -23.688  0.00  0.00    +0.004 C 
ATOM      7  C   UNL     1      36.279 -20.469 -19.525  0.00  0.00    +0.152 A 
ATOM      8  C   UNL     1      36.165 -17.898 -22.886  0.00  0.00    +0.004 C 
ATOM      9  C   UNL     1      33.922 -19.423 -22.282  0.00  0.00    +0.000 C 
ATOM     10  C   UNL     1      34.054 -21.254 -19.857  0.00  0.00    +0.043 C 
ATOM     11  C   UNL     1      33.912 -18.565 -23.386  0.00  0.00    -0.002 C 
ATOM     12  C   UNL     1      37.412 -18.815 -20.959  0.00  0.00    +0.346 A 
ATOM     13  C   UNL     1      36.427 -21.279 -18.396  0.00  0.00    +0.078 C 
ATOM     14  C   UNL     1      35.368 -22.086 -17.998  0.00  0.00    +0.176 C 
ATOM     15  C   UNL     1      34.182 -22.073 -18.727  0.00  0.00    +0.173 C 
ENDROOT
BRANCH  15  16
ATOM     16  O   UNL     1      33.134 -22.858 -18.350  0.00  0.00    -0.468 OA
ATOM     17  C   UNL     1      32.313 -22.376 -17.289  0.00  0.00    +0.253 C 
ENDBRANCH  15  16
BRANCH   6  18
ATOM     18  C   UNL     1      35.022 -16.888 -24.865  0.00  0.00    +0.133 C 
ATOM     19  C   UNL     1      33.623 -16.350 -25.183  0.00  0.00    +0.037 C 
BRANCH  18  20
ATOM     20  O   UNL     1      35.894 -15.776 -24.630  0.00  0.00    -0.380 OA
ATOM     21  H   UNL     1      35.976 -15.253 -25.443  0.00  0.00    +0.211 HD
ENDBRANCH  18  20
ENDBRANCH   6  18
BRANCH  14  22
ATOM     22  O   UNL     1      35.500 -22.878 -16.899  0.00  0.00    -0.467 OA
BRANCH  22  23
ATOM     23  C   UNL     1      36.492 -22.502 -15.944  0.00  0.00    +0.232 C 
BRANCH  23  24
ATOM     24  C   UNL     1      36.136 -23.093 -14.611  0.00  0.00    +0.021 C 
ATOM     25  C   UNL     1      34.899 -23.701 -14.436  0.00  0.00    +0.002 C 
ATOM     26  C   UNL     1      37.048 -23.025 -13.562  0.00  0.00    +0.002 C 
ATOM     27  C   UNL     1      34.568 -24.250 -13.196  0.00  0.00    +0.037 C 
ATOM     28  C   UNL     1      36.717 -23.573 -12.323  0.00  0.00    +0.037 C 
ATOM     29  C   UNL     1      35.477 -24.185 -12.140  0.00  0.00    +0.139 C 
BRANCH  29  30
ATOM     30  O   UNL     1      35.155 -24.721 -10.931  0.00  0.00    -0.471 OA
ATOM     31  C   UNL     1      35.980 -24.367  -9.823  0.00  0.00    +0.252 C 
ENDBRANCH  29  30
ENDBRANCH  23  24
ENDBRANCH  22  23
ENDBRANCH  14  22
TORSDOF 7
ENDMDL
MODEL 6
REMARK VINA RESULT:     -10.5      2.947      9.080
REMARK  Name = 11998575
REMARK  7 active torsions:
REMARK  status: ('A' for Active; 'I' for Inactive)
REMARK    1  A    between atoms: C_6  and  C_18
REMARK    2  A    between atoms: C_14  and  O_22
REMARK    3  A    between atoms: C_15  and  O_16
REMARK    4  A    between atoms: C_18  and  O_20
REMARK    5  A    between atoms: O_22  and  C_23
REMARK    6  A    between atoms: C_23  and  C_24
REMARK    7  A    between atoms: C_29  and  O_30
REMARK                            x       y       z     vdW  Elec       q    Type
REMARK                         _______ _______ _______ _____ _____    ______ ____
ROOT
ATOM      1  O   UNL     1      32.996 -21.120 -19.647  0.00  0.00    -0.421 OA
ATOM      2  O   UNL     1      32.280 -22.397 -17.899  0.00  0.00    -0.244 OA
ATOM      3  C   UNL     1      35.644 -21.252 -18.662  0.00  0.00    +0.009 A 
ATOM      4  C   UNL     1      35.348 -20.507 -19.892  0.00  0.00    +0.038 A 
ATOM      5  C   UNL     1      34.599 -21.899 -17.979  0.00  0.00    +0.076 A 
ATOM      6  C   UNL     1      36.129 -22.710 -16.284  0.00  0.00    +0.004 C 
ATOM      7  C   UNL     1      34.029 -20.463 -20.349  0.00  0.00    +0.152 A 
ATOM      8  C   UNL     1      34.841 -22.622 -16.800  0.00  0.00    +0.004 C 
ATOM      9  C   UNL     1      36.938 -21.359 -18.116  0.00  0.00    +0.000 C 
ATOM     10  C   UNL     1      36.302 -19.821 -20.661  0.00  0.00    +0.043 C 
ATOM     11  C   UNL     1      37.177 -22.079 -16.941  0.00  0.00    -0.002 C 
ATOM     12  C   UNL     1      33.205 -21.841 -18.479  0.00  0.00    +0.346 A 
ATOM     13  C   UNL     1      33.648 -19.780 -21.507  0.00  0.00    +0.078 C 
ATOM     14  C   UNL     1      34.614 -19.110 -22.247  0.00  0.00    +0.176 C 
ATOM     15  C   UNL     1      35.940 -19.130 -21.825  0.00  0.00    +0.173 C 
ENDROOT
BRANCH  15  16
ATOM     16  O   UNL     1      36.900 -18.477 -22.539  0.00  0.00    -0.468 OA
ATOM     17  C   UNL     1      38.177 -18.330 -21.922  0.00  0.00    +0.253 C 
ENDBRANCH  15  16
BRANCH   6  18
ATOM     18  C   UNL     1      36.384 -23.477 -15.031  0.00  0.00    +0.133 C 
ATOM     19  C   UNL     1      35.103 -23.768 -14.243  0.00  0.00    +0.037 C 
BRANCH  18  20
ATOM     20  O   UNL     1      37.021 -24.723 -15.339  0.00  0.00    -0.380 OA
ATOM     21  H   UNL     1      36.374 -25.326 -15.738  0.00  0.00    +0.211 HD
ENDBRANCH  18  20
ENDBRANCH   6  18
BRANCH  14  22
ATOM     22  O   UNL     1      34.253 -18.440 -23.376  0.00  0.00    -0.467 OA
BRANCH  22  23
ATOM     23  C   UNL     1      35.238 -17.596 -23.973  0.00  0.00    +0.232 C 
BRANCH  23  24
ATOM     24  C   UNL     1      34.814 -16.165 -23.817  0.00  0.00    +0.021 C 
ATOM     25  C   UNL     1      35.134 -15.475 -22.654  0.00  0.00    +0.002 C 
ATOM     26  C   UNL     1      34.103 -15.542 -24.838  0.00  0.00    +0.002 C 
ATOM     27  C   UNL     1      34.739 -14.144 -22.509  0.00  0.00    +0.037 C 
ATOM     28  C   UNL     1      33.709 -14.212 -24.694  0.00  0.00    +0.037 C 
ATOM     29  C   UNL     1      34.027 -13.513 -23.529  0.00  0.00    +0.139 C 
BRANCH  29  30
ATOM     30  O   UNL     1      33.642 -12.215 -23.388  0.00  0.00    -0.471 OA
ATOM     31  C   UNL     1      34.132 -11.284 -24.351  0.00  0.00    +0.252 C 
ENDBRANCH  29  30
ENDBRANCH  23  24
ENDBRANCH  22  23
ENDBRANCH  14  22
TORSDOF 7
ENDMDL
MODEL 7
REMARK VINA RESULT:     -10.3      2.137      5.499
REMARK  Name = 11998575
REMARK  7 active torsions:
REMARK  status: ('A' for Active; 'I' for Inactive)
REMARK    1  A    between atoms: C_6  and  C_18
REMARK    2  A    between atoms: C_14  and  O_22
REMARK    3  A    between atoms: C_15  and  O_16
REMARK    4  A    between atoms: C_18  and  O_20
REMARK    5  A    between atoms: O_22  and  C_23
REMARK    6  A    between atoms: C_23  and  C_24
REMARK    7  A    between atoms: C_29  and  O_30
REMARK                            x       y       z     vdW  Elec       q    Type
REMARK                         _______ _______ _______ _____ _____    ______ ____
ROOT
ATOM      1  O   UNL     1      36.174 -22.173 -17.682  0.00  0.00    -0.421 OA
ATOM      2  O   UNL     1      37.543 -21.100 -19.157  0.00  0.00    -0.244 OA
ATOM      3  C   UNL     1      33.912 -21.240 -19.100  0.00  0.00    +0.009 A 
ATOM      4  C   UNL     1      33.744 -22.081 -17.907  0.00  0.00    +0.038 A 
ATOM      5  C   UNL     1      35.207 -20.903 -19.529  0.00  0.00    +0.076 A 
ATOM      6  C   UNL     1      34.324 -19.625 -21.388  0.00  0.00    +0.004 C 
ATOM      7  C   UNL     1      34.883 -22.523 -17.232  0.00  0.00    +0.152 A 
ATOM      8  C   UNL     1      35.411 -20.103 -20.665  0.00  0.00    +0.004 C 
ATOM      9  C   UNL     1      32.831 -20.742 -19.853  0.00  0.00    +0.000 C 
ATOM     10  C   UNL     1      32.506 -22.483 -17.381  0.00  0.00    +0.043 C 
ATOM     11  C   UNL     1      33.035 -19.944 -20.983  0.00  0.00    -0.002 C 
ATOM     12  C   UNL     1      36.406 -21.382 -18.799  0.00  0.00    +0.346 A 
ATOM     13  C   UNL     1      34.827 -23.325 -16.089  0.00  0.00    +0.078 C 
ATOM     14  C   UNL     1      33.588 -23.706 -15.590  0.00  0.00    +0.176 C 
ATOM     15  C   UNL     1      32.428 -23.286 -16.235  0.00  0.00    +0.173 C 
ENDROOT
BRANCH  15  16
ATOM     16  O   UNL     1      31.204 -23.652 -15.759  0.00  0.00    -0.468 OA
ATOM     17  C   UNL     1      30.549 -22.734 -14.886  0.00  0.00    +0.253 C 
ENDBRANCH  15  16
BRANCH   6  18
ATOM     18  C   UNL     1      34.540 -18.773 -22.593  0.00  0.00    +0.133 C 
ATOM     19  C   UNL     1      35.483 -17.596 -22.325  0.00  0.00    +0.037 C 
BRANCH  18  20
ATOM     20  O   UNL     1      35.087 -19.560 -23.658  0.00  0.00    -0.380 OA
ATOM     21  H   UNL     1      35.972 -19.871 -23.408  0.00  0.00    +0.211 HD
ENDBRANCH  18  20
ENDBRANCH   6  18
BRANCH  14  22
ATOM     22  O   UNL     1      33.521 -24.486 -14.476  0.00  0.00    -0.467 OA
BRANCH  22  23
ATOM     23  C   UNL     1      34.013 -23.924 -13.260  0.00  0.00    +0.232 C 
BRANCH  23  24
ATOM     24  C   UNL     1      35.496 -24.140 -13.186  0.00  0.00    +0.021 C 
ATOM     25  C   UNL     1      36.052 -25.291 -13.730  0.00  0.00    +0.002 C 
ATOM     26  C   UNL     1      36.301 -23.185 -12.572  0.00  0.00    +0.002 C 
ATOM     27  C   UNL     1      37.432 -25.492 -13.661  0.00  0.00    +0.037 C 
ATOM     28  C   UNL     1      37.680 -23.386 -12.503  0.00  0.00    +0.037 C 
ATOM     29  C   UNL     1      38.244 -24.539 -13.047  0.00  0.00    +0.139 C 
BRANCH  29  30
ATOM     30  O   UNL     1      39.590 -24.735 -12.980  0.00  0.00    -0.471 OA
ATOM     31  C   UNL     1      40.172 -25.588 -13.965  0.00  0.00    +0.252 C 
ENDBRANCH  29  30
ENDBRANCH  23  24
ENDBRANCH  22  23
ENDBRANCH  14  22
TORSDOF 7
ENDMDL
MODEL 8
REMARK VINA RESULT:     -10.2      2.539      8.803
REMARK  Name = 11998575
REMARK  7 active torsions:
REMARK  status: ('A' for Active; 'I' for Inactive)
REMARK    1  A    between atoms: C_6  and  C_18
REMARK    2  A    between atoms: C_14  and  O_22
REMARK    3  A    between atoms: C_15  and  O_16
REMARK    4  A    between atoms: C_18  and  O_20
REMARK    5  A    between atoms: O_22  and  C_23
REMARK    6  A    between atoms: C_23  and  C_24
REMARK    7  A    between atoms: C_29  and  O_30
REMARK                            x       y       z     vdW  Elec       q    Type
REMARK                         _______ _______ _______ _____ _____    ______ ____
ROOT
ATOM      1  O   UNL     1      32.806 -22.266 -18.099  0.00  0.00    -0.421 OA
ATOM      2  O   UNL     1      32.119 -23.563 -16.354  0.00  0.00    -0.244 OA
ATOM      3  C   UNL     1      35.460 -22.360 -17.126  0.00  0.00    +0.009 A 
ATOM      4  C   UNL     1      35.147 -21.614 -18.351  0.00  0.00    +0.038 A 
ATOM      5  C   UNL     1      34.430 -23.026 -16.441  0.00  0.00    +0.076 A 
ATOM      6  C   UNL     1      35.980 -23.821 -14.757  0.00  0.00    +0.004 C 
ATOM      7  C   UNL     1      33.825 -21.589 -18.802  0.00  0.00    +0.152 A 
ATOM      8  C   UNL     1      34.688 -23.751 -15.267  0.00  0.00    +0.004 C 
ATOM      9  C   UNL     1      36.758 -22.448 -16.586  0.00  0.00    +0.000 C 
ATOM     10  C   UNL     1      36.086 -20.909 -19.121  0.00  0.00    +0.043 C 
ATOM     11  C   UNL     1      37.015 -23.170 -15.416  0.00  0.00    -0.002 C 
ATOM     12  C   UNL     1      33.032 -22.989 -16.935  0.00  0.00    +0.346 A 
ATOM     13  C   UNL     1      33.427 -20.906 -19.955  0.00  0.00    +0.078 C 
ATOM     14  C   UNL     1      34.379 -20.217 -20.696  0.00  0.00    +0.176 C 
ATOM     15  C   UNL     1      35.708 -20.218 -20.280  0.00  0.00    +0.173 C 
ENDROOT
BRANCH  15  16
ATOM     16  O   UNL     1      36.654 -19.546 -20.995  0.00  0.00    -0.468 OA
ATOM     17  C   UNL     1      37.480 -18.632 -20.277  0.00  0.00    +0.253 C 
ENDBRANCH  15  16
BRANCH   6  18
ATOM     18  C   UNL     1      36.254 -24.589 -13.509  0.00  0.00    +0.133 C 
ATOM     19  C   UNL     1      37.318 -23.928 -12.627  0.00  0.00    +0.037 C 
BRANCH  18  20
ATOM     20  O   UNL     1      35.050 -24.727 -12.744  0.00  0.00    -0.380 OA
ATOM     21  H   UNL     1      34.697 -23.847 -12.537  0.00  0.00    +0.211 HD
ENDBRANCH  18  20
ENDBRANCH   6  18
BRANCH  14  22
ATOM     22  O   UNL     1      34.003 -19.548 -21.820  0.00  0.00    -0.467 OA
BRANCH  22  23
ATOM     23  C   UNL     1      34.998 -19.354 -22.824  0.00  0.00    +0.232 C 
BRANCH  23  24
ATOM     24  C   UNL     1      34.775 -18.023 -23.483  0.00  0.00    +0.021 C 
ATOM     25  C   UNL     1      33.962 -17.939 -24.606  0.00  0.00    +0.002 C 
ATOM     26  C   UNL     1      35.388 -16.887 -22.963  0.00  0.00    +0.002 C 
ATOM     27  C   UNL     1      33.756 -16.702 -25.218  0.00  0.00    +0.037 C 
ATOM     28  C   UNL     1      35.182 -15.651 -23.575  0.00  0.00    +0.037 C 
ATOM     29  C   UNL     1      34.366 -15.559 -24.702  0.00  0.00    +0.139 C 
BRANCH  29  30
ATOM     30  O   UNL     1      34.164 -14.352 -25.299  0.00  0.00    -0.471 OA
ATOM     31  C   UNL     1      33.899 -13.241 -24.446  0.00  0.00    +0.252 C 
ENDBRANCH  29  30
ENDBRANCH  23  24
ENDBRANCH  22  23
ENDBRANCH  14  22
TORSDOF 7
ENDMDL
MODEL 9
REMARK VINA RESULT:     -10.2      7.656     12.475
REMARK  Name = 11998575
REMARK  7 active torsions:
REMARK  status: ('A' for Active; 'I' for Inactive)
REMARK    1  A    between atoms: C_6  and  C_18
REMARK    2  A    between atoms: C_14  and  O_22
REMARK    3  A    between atoms: C_15  and  O_16
REMARK    4  A    between atoms: C_18  and  O_20
REMARK    5  A    between atoms: O_22  and  C_23
REMARK    6  A    between atoms: C_23  and  C_24
REMARK    7  A    between atoms: C_29  and  O_30
REMARK                            x       y       z     vdW  Elec       q    Type
REMARK                         _______ _______ _______ _____ _____    ______ ____
ROOT
ATOM      1  O   UNL     1      32.256 -11.577 -20.981  0.00  0.00    -0.421 OA
ATOM      2  O   UNL     1      31.480 -10.123 -19.405  0.00  0.00    -0.244 OA
ATOM      3  C   UNL     1      32.709  -9.419 -22.752  0.00  0.00    +0.009 A 
ATOM      4  C   UNL     1      33.021 -10.793 -23.164  0.00  0.00    +0.038 A 
ATOM      5  C   UNL     1      32.182  -9.186 -21.469  0.00  0.00    +0.076 A 
ATOM      6  C   UNL     1      32.079  -6.800 -21.878  0.00  0.00    +0.004 C 
ATOM      7  C   UNL     1      32.785 -11.834 -22.264  0.00  0.00    +0.152 A 
ATOM      8  C   UNL     1      31.871  -7.887 -21.037  0.00  0.00    +0.004 C 
ATOM      9  C   UNL     1      32.909  -8.298 -23.581  0.00  0.00    +0.000 C 
ATOM     10  C   UNL     1      33.549 -11.152 -24.415  0.00  0.00    +0.043 C 
ATOM     11  C   UNL     1      32.597  -7.005 -23.150  0.00  0.00    -0.002 C 
ATOM     12  C   UNL     1      31.938 -10.304 -20.526  0.00  0.00    +0.346 A 
ATOM     13  C   UNL     1      33.048 -13.173 -22.563  0.00  0.00    +0.078 C 
ATOM     14  C   UNL     1      33.569 -13.498 -23.810  0.00  0.00    +0.176 C 
ATOM     15  C   UNL     1      33.819 -12.489 -24.735  0.00  0.00    +0.173 C 
ENDROOT
BRANCH  15  16
ATOM     16  O   UNL     1      34.330 -12.791 -25.962  0.00  0.00    -0.468 OA
ATOM     17  C   UNL     1      33.404 -12.884 -27.043  0.00  0.00    +0.253 C 
ENDBRANCH  15  16
BRANCH   6  18
ATOM     18  C   UNL     1      31.747  -5.421 -21.419  0.00  0.00    +0.133 C 
ATOM     19  C   UNL     1      32.589  -4.346 -22.114  0.00  0.00    +0.037 C 
BRANCH  18  20
ATOM     20  O   UNL     1      30.363  -5.142 -21.664  0.00  0.00    -0.380 OA
ATOM     21  H   UNL     1      30.180  -4.213 -21.458  0.00  0.00    +0.211 HD
ENDBRANCH  18  20
ENDBRANCH   6  18
BRANCH  14  22
ATOM     22  O   UNL     1      33.828 -14.800 -24.112  0.00  0.00    -0.467 OA
BRANCH  22  23
ATOM     23  C   UNL     1      35.176 -15.245 -23.963  0.00  0.00    +0.232 C 
BRANCH  23  24
ATOM     24  C   UNL     1      35.183 -16.534 -23.194  0.00  0.00    +0.021 C 
ATOM     25  C   UNL     1      34.830 -17.718 -23.831  0.00  0.00    +0.002 C 
ATOM     26  C   UNL     1      35.542 -16.531 -21.850  0.00  0.00    +0.002 C 
ATOM     27  C   UNL     1      34.836 -18.916 -23.115  0.00  0.00    +0.037 C 
ATOM     28  C   UNL     1      35.548 -17.729 -21.134  0.00  0.00    +0.037 C 
ATOM     29  C   UNL     1      35.195 -18.920 -21.767  0.00  0.00    +0.139 C 
BRANCH  29  30
ATOM     30  O   UNL     1      35.201 -20.089 -21.070  0.00  0.00    -0.471 OA
ATOM     31  C   UNL     1      34.068 -20.361 -20.247  0.00  0.00    +0.252 C 
ENDBRANCH  29  30
ENDBRANCH  23  24
ENDBRANCH  22  23
ENDBRANCH  14  22
TORSDOF 7
ENDMDL
