MODEL 1
REMARK VINA RESULT:     -11.5      0.000      0.000
REMARK  Name = 24978486
REMARK  5 active torsions:
REMARK  status: ('A' for Active; 'I' for Inactive)
REMARK    1  A    between atoms: O_1  and  C_6
REMARK    2  A    between atoms: O_1  and  C_18
REMARK    3  A    between atoms: C_18  and  C_20
REMARK    4  A    between atoms: N_19  and  C_26
REMARK    5  A    between atoms: C_26  and  C_29
REMARK                            x       y       z     vdW  Elec       q    Type
REMARK                         _______ _______ _______ _____ _____    ______ ____
ROOT
ATOM      1  O   UNL     1      34.963 -22.342 -17.762  0.00  0.00    -0.479 OA
ENDROOT
BRANCH   1   6
ATOM      2  N   UNL     1      35.765 -23.534 -13.134  0.00  0.00    -0.332 NA
ATOM      3  N   UNL     1      37.624 -22.748 -14.452  0.00  0.00    -0.317 NA
ATOM      4  N   UNL     1      37.359 -22.145 -16.688  0.00  0.00    -0.335 N 
ATOM      5  N   UNL     1      37.911 -23.348 -12.205  0.00  0.00    -0.283 N 
ATOM      6  C   UNL     1      34.557 -22.790 -16.530  0.00  0.00    +0.130 C 
ATOM      7  C   UNL     1      35.421 -22.931 -15.430  0.00  0.00    +0.177 C 
ATOM      8  C   UNL     1      33.211 -23.115 -16.402  0.00  0.00    +0.033 C 
ATOM      9  C   UNL     1      34.947 -23.396 -14.193  0.00  0.00    +0.137 C 
ATOM     10  C   UNL     1      36.777 -22.622 -15.491  0.00  0.00    +0.181 C 
ATOM     11  C   UNL     1      32.729 -23.578 -15.182  0.00  0.00    +0.005 C 
ATOM     12  C   UNL     1      33.595 -23.714 -14.093  0.00  0.00    +0.030 C 
ATOM     13  C   UNL     1      37.059 -23.202 -13.321  0.00  0.00    +0.197 C 
ATOM     14  H   UNL     1      38.319 -21.931 -16.718  0.00  0.00    +0.144 HD
ATOM     15  H   UNL     1      36.802 -22.027 -17.492  0.00  0.00    +0.144 HD
ATOM     16  H   UNL     1      37.551 -23.677 -11.350  0.00  0.00    +0.156 HD
ATOM     17  H   UNL     1      38.867 -23.120 -12.281  0.00  0.00    +0.156 HD
ENDBRANCH   1   6
BRANCH   1  18
ATOM     18  C   UNL     1      33.951 -22.078 -18.716  0.00  0.00    +0.205 C 
BRANCH  18  20
ATOM     19  N   UNL     1      35.539 -18.778 -21.007  0.00  0.00    +0.390 N 
ATOM     20  C   UNL     1      34.568 -21.303 -19.877  0.00  0.00    +0.040 C 
ATOM     21  C   UNL     1      35.912 -20.686 -19.476  0.00  0.00    -0.019 C 
ATOM     22  C   UNL     1      33.621 -20.205 -20.371  0.00  0.00    -0.019 C 
ATOM     23  C   UNL     1      36.487 -19.825 -20.604  0.00  0.00    -0.077 C 
ATOM     24  C   UNL     1      34.272 -19.360 -21.468  0.00  0.00    -0.077 C 
ATOM     25  H   UNL     1      35.341 -18.200 -20.190  0.00  0.00    -0.079 HD
BRANCH  19  26
ATOM     26  C   UNL     1      36.123 -17.933 -22.048  0.00  0.00    -0.049 C 
BRANCH  26  29
ATOM     27 CL   UNL     1      35.249 -16.990 -24.810  0.00  0.00    -0.082 Cl
ATOM     28 CL   UNL     1      33.786 -14.130 -24.868  0.00  0.00    -0.081 Cl
ATOM     29  C   UNL     1      35.432 -16.599 -22.141  0.00  0.00    -0.032 C 
ATOM     30  C   UNL     1      34.993 -16.077 -23.358  0.00  0.00    +0.062 C 
ATOM     31  C   UNL     1      35.235 -15.880 -20.962  0.00  0.00    -0.005 C 
ATOM     32  C   UNL     1      34.356 -14.836 -23.395  0.00  0.00    +0.068 C 
ATOM     33  C   UNL     1      34.598 -14.639 -21.000  0.00  0.00    +0.001 C 
ATOM     34  C   UNL     1      34.159 -14.118 -22.217  0.00  0.00    +0.012 C 
ENDBRANCH  26  29
ENDBRANCH  19  26
ENDBRANCH  18  20
ENDBRANCH   1  18
TORSDOF 5
ENDMDL
MODEL 2
REMARK VINA RESULT:     -11.5      3.263      5.365
REMARK  Name = 24978486
REMARK  5 active torsions:
REMARK  status: ('A' for Active; 'I' for Inactive)
REMARK    1  A    between atoms: O_1  and  C_6
REMARK    2  A    between atoms: O_1  and  C_18
REMARK    3  A    between atoms: C_18  and  C_20
REMARK    4  A    between atoms: N_19  and  C_26
REMARK    5  A    between atoms: C_26  and  C_29
REMARK                            x       y       z     vdW  Elec       q    Type
REMARK                         _______ _______ _______ _____ _____    ______ ____
ROOT
ATOM      1  O   UNL     1      34.580 -19.213 -21.584  0.00  0.00    -0.479 OA
ENDROOT
BRANCH   1   6
ATOM      2  N   UNL     1      34.898 -22.334 -17.891  0.00  0.00    -0.332 NA
ATOM      3  N   UNL     1      32.720 -21.867 -18.810  0.00  0.00    -0.317 NA
ATOM      4  N   UNL     1      32.443 -20.383 -20.587  0.00  0.00    -0.335 N 
ATOM      5  N   UNL     1      32.976 -23.361 -17.023  0.00  0.00    -0.283 N 
ATOM      6  C   UNL     1      35.284 -19.919 -20.642  0.00  0.00    +0.130 C 
ATOM      7  C   UNL     1      34.686 -20.797 -19.720  0.00  0.00    +0.177 C 
ATOM      8  C   UNL     1      36.662 -19.730 -20.627  0.00  0.00    +0.033 C 
ATOM      9  C   UNL     1      35.460 -21.492 -18.777  0.00  0.00    +0.137 C 
ATOM     10  C   UNL     1      33.315 -21.032 -19.682  0.00  0.00    +0.181 C 
ATOM     11  C   UNL     1      37.439 -20.411 -19.698  0.00  0.00    +0.005 C 
ATOM     12  C   UNL     1      36.837 -21.283 -18.785  0.00  0.00    +0.030 C 
ATOM     13  C   UNL     1      33.559 -22.475 -17.955  0.00  0.00    +0.197 C 
ATOM     14  H   UNL     1      31.475 -20.558 -20.550  0.00  0.00    +0.144 HD
ATOM     15  H   UNL     1      32.805 -19.758 -21.256  0.00  0.00    +0.144 HD
ATOM     16  H   UNL     1      33.544 -23.835 -16.374  0.00  0.00    +0.156 HD
ATOM     17  H   UNL     1      32.002 -23.506 -17.023  0.00  0.00    +0.156 HD
ENDBRANCH   1   6
BRANCH   1  18
ATOM     18  C   UNL     1      35.129 -19.155 -22.888  0.00  0.00    +0.205 C 
BRANCH  18  20
ATOM     19  N   UNL     1      34.288 -14.953 -23.431  0.00  0.00    +0.390 N 
ATOM     20  C   UNL     1      35.326 -17.690 -23.268  0.00  0.00    +0.040 C 
ATOM     21  C   UNL     1      35.207 -16.782 -22.040  0.00  0.00    -0.019 C 
ATOM     22  C   UNL     1      34.314 -17.256 -24.333  0.00  0.00    -0.019 C 
ATOM     23  C   UNL     1      35.304 -15.304 -22.429  0.00  0.00    -0.077 C 
ATOM     24  C   UNL     1      34.440 -15.764 -24.646  0.00  0.00    -0.077 C 
ATOM     25  H   UNL     1      33.370 -15.152 -23.032  0.00  0.00    -0.079 HD
BRANCH  19  26
ATOM     26  C   UNL     1      34.360 -13.528 -23.753  0.00  0.00    -0.049 C 
BRANCH  26  29
ATOM     27 CL   UNL     1      33.958 -10.594 -24.468  0.00  0.00    -0.082 Cl
ATOM     28 CL   UNL     1      32.095  -8.944 -22.436  0.00  0.00    -0.081 Cl
ATOM     29  C   UNL     1      33.497 -12.701 -22.838  0.00  0.00    -0.032 C 
ATOM     30  C   UNL     1      33.250 -11.349 -23.077  0.00  0.00    +0.062 C 
ATOM     31  C   UNL     1      32.936 -13.326 -21.724  0.00  0.00    -0.005 C 
ATOM     32  C   UNL     1      32.443 -10.622 -22.201  0.00  0.00    +0.068 C 
ATOM     33  C   UNL     1      32.129 -12.600 -20.849  0.00  0.00    +0.001 C 
ATOM     34  C   UNL     1      31.883 -11.248 -21.087  0.00  0.00    +0.012 C 
ENDBRANCH  26  29
ENDBRANCH  19  26
ENDBRANCH  18  20
ENDBRANCH   1  18
TORSDOF 5
ENDMDL
MODEL 3
REMARK VINA RESULT:     -11.3      1.589      2.435
REMARK  Name = 24978486
REMARK  5 active torsions:
REMARK  status: ('A' for Active; 'I' for Inactive)
REMARK    1  A    between atoms: O_1  and  C_6
REMARK    2  A    between atoms: O_1  and  C_18
REMARK    3  A    between atoms: C_18  and  C_20
REMARK    4  A    between atoms: N_19  and  C_26
REMARK    5  A    between atoms: C_26  and  C_29
REMARK                            x       y       z     vdW  Elec       q    Type
REMARK                         _______ _______ _______ _____ _____    ______ ____
ROOT
ATOM      1  O   UNL     1      34.449 -23.326 -17.075  0.00  0.00    -0.479 OA
ENDROOT
BRANCH   1   6
ATOM      2  N   UNL     1      33.952 -24.066 -12.312  0.00  0.00    -0.332 NA
ATOM      3  N   UNL     1      36.168 -24.138 -13.256  0.00  0.00    -0.317 NA
ATOM      4  N   UNL     1      36.531 -23.796 -15.534  0.00  0.00    -0.335 N 
ATOM      5  N   UNL     1      35.826 -24.483 -10.964  0.00  0.00    -0.283 N 
ATOM      6  C   UNL     1      33.701 -23.437 -15.929  0.00  0.00    +0.130 C 
ATOM      7  C   UNL     1      34.252 -23.706 -14.664  0.00  0.00    +0.177 C 
ATOM      8  C   UNL     1      32.327 -23.272 -16.068  0.00  0.00    +0.033 C 
ATOM      9  C   UNL     1      33.435 -23.810 -13.527  0.00  0.00    +0.137 C 
ATOM     10  C   UNL     1      35.618 -23.881 -14.457  0.00  0.00    +0.181 C 
ATOM     11  C   UNL     1      31.507 -23.374 -14.950  0.00  0.00    +0.005 C 
ATOM     12  C   UNL     1      32.064 -23.641 -13.694  0.00  0.00    +0.030 C 
ATOM     13  C   UNL     1      35.291 -24.216 -12.242  0.00  0.00    +0.197 C 
ATOM     14  H   UNL     1      37.494 -23.922 -15.374  0.00  0.00    +0.144 HD
ATOM     15  H   UNL     1      36.202 -23.610 -16.443  0.00  0.00    +0.144 HD
ATOM     16  H   UNL     1      35.229 -24.551 -10.184  0.00  0.00    +0.156 HD
ATOM     17  H   UNL     1      36.798 -24.601 -10.851  0.00  0.00    +0.156 HD
ENDBRANCH   1   6
BRANCH   1  18
ATOM     18  C   UNL     1      33.770 -22.919 -18.249  0.00  0.00    +0.205 C 
BRANCH  18  20
ATOM     19  N   UNL     1      35.591 -19.974 -20.831  0.00  0.00    +0.390 N 
ATOM     20  C   UNL     1      34.363 -21.593 -18.718  0.00  0.00    +0.040 C 
ATOM     21  C   UNL     1      33.554 -21.010 -19.882  0.00  0.00    -0.019 C 
ATOM     22  C   UNL     1      35.827 -21.762 -19.137  0.00  0.00    -0.019 C 
ATOM     23  C   UNL     1      34.201 -19.733 -20.423  0.00  0.00    -0.077 C 
ATOM     24  C   UNL     1      36.397 -20.460 -19.703  0.00  0.00    -0.077 C 
ATOM     25  H   UNL     1      35.588 -20.698 -21.550  0.00  0.00    -0.079 HD
BRANCH  19  26
ATOM     26  C   UNL     1      36.178 -18.758 -21.393  0.00  0.00    -0.049 C 
BRANCH  26  29
ATOM     27 CL   UNL     1      35.423 -15.821 -21.684  0.00  0.00    -0.082 Cl
ATOM     28 CL   UNL     1      33.964 -15.062 -24.445  0.00  0.00    -0.081 Cl
ATOM     29  C   UNL     1      35.491 -18.340 -22.665  0.00  0.00    -0.032 C 
ATOM     30  C   UNL     1      35.104 -17.019 -22.897  0.00  0.00    +0.062 C 
ATOM     31  C   UNL     1      35.243 -19.318 -23.628  0.00  0.00    -0.005 C 
ATOM     32  C   UNL     1      34.470 -16.678 -24.092  0.00  0.00    +0.068 C 
ATOM     33  C   UNL     1      34.610 -18.977 -24.823  0.00  0.00    +0.001 C 
ATOM     34  C   UNL     1      34.223 -17.656 -25.054  0.00  0.00    +0.012 C 
ENDBRANCH  26  29
ENDBRANCH  19  26
ENDBRANCH  18  20
ENDBRANCH   1  18
TORSDOF 5
ENDMDL
MODEL 4
REMARK VINA RESULT:     -11.3      2.056      2.978
REMARK  Name = 24978486
REMARK  5 active torsions:
REMARK  status: ('A' for Active; 'I' for Inactive)
REMARK    1  A    between atoms: O_1  and  C_6
REMARK    2  A    between atoms: O_1  and  C_18
REMARK    3  A    between atoms: C_18  and  C_20
REMARK    4  A    between atoms: N_19  and  C_26
REMARK    5  A    between atoms: C_26  and  C_29
REMARK                            x       y       z     vdW  Elec       q    Type
REMARK                         _______ _______ _______ _____ _____    ______ ____
ROOT
ATOM      1  O   UNL     1      35.337 -21.984 -18.312  0.00  0.00    -0.479 OA
ENDROOT
BRANCH   1   6
ATOM      2  N   UNL     1      32.669 -23.542 -14.580  0.00  0.00    -0.332 NA
ATOM      3  N   UNL     1      31.542 -22.968 -16.632  0.00  0.00    -0.317 NA
ATOM      4  N   UNL     1      32.721 -22.208 -18.494  0.00  0.00    -0.335 N 
ATOM      5  N   UNL     1      30.338 -23.731 -14.772  0.00  0.00    -0.283 N 
ATOM      6  C   UNL     1      35.187 -22.438 -17.026  0.00  0.00    +0.130 C 
ATOM      7  C   UNL     1      33.944 -22.766 -16.457  0.00  0.00    +0.177 C 
ATOM      8  C   UNL     1      36.351 -22.567 -16.275  0.00  0.00    +0.033 C 
ATOM      9  C   UNL     1      33.853 -23.225 -15.134  0.00  0.00    +0.137 C 
ATOM     10  C   UNL     1      32.744 -22.661 -17.155  0.00  0.00    +0.181 C 
ATOM     11  C   UNL     1      36.274 -23.020 -14.962  0.00  0.00    +0.005 C 
ATOM     12  C   UNL     1      35.033 -23.344 -14.404  0.00  0.00    +0.030 C 
ATOM     13  C   UNL     1      31.578 -23.396 -15.359  0.00  0.00    +0.197 C 
ATOM     14  H   UNL     1      31.866 -22.138 -18.976  0.00  0.00    +0.144 HD
ATOM     15  H   UNL     1      33.562 -21.964 -18.945  0.00  0.00    +0.144 HD
ATOM     16  H   UNL     1      30.305 -24.050 -13.841  0.00  0.00    +0.156 HD
ATOM     17  H   UNL     1      29.507 -23.646 -15.293  0.00  0.00    +0.156 HD
ENDBRANCH   1   6
BRANCH   1  18
ATOM     18  C   UNL     1      36.582 -21.396 -18.646  0.00  0.00    +0.205 C 
BRANCH  18  20
ATOM     19  N   UNL     1      35.732 -18.255 -21.486  0.00  0.00    +0.390 N 
ATOM     20  C   UNL     1      36.434 -20.670 -19.980  0.00  0.00    +0.040 C 
ATOM     21  C   UNL     1      37.354 -19.446 -20.046  0.00  0.00    -0.019 C 
ATOM     22  C   UNL     1      34.983 -20.240 -20.216  0.00  0.00    -0.019 C 
ATOM     23  C   UNL     1      37.137 -18.657 -21.339  0.00  0.00    -0.077 C 
ATOM     24  C   UNL     1      34.845 -19.425 -21.503  0.00  0.00    -0.077 C 
ATOM     25  H   UNL     1      35.483 -17.682 -20.679  0.00  0.00    -0.079 HD
BRANCH  19  26
ATOM     26  C   UNL     1      35.552 -17.458 -22.699  0.00  0.00    -0.049 C 
BRANCH  26  29
ATOM     27 CL   UNL     1      35.008 -15.601 -25.052  0.00  0.00    -0.082 Cl
ATOM     28 CL   UNL     1      34.031 -12.647 -24.252  0.00  0.00    -0.081 Cl
ATOM     29  C   UNL     1      35.092 -16.059 -22.389  0.00  0.00    -0.032 C 
ATOM     30  C   UNL     1      34.816 -15.131 -23.394  0.00  0.00    +0.062 C 
ATOM     31  C   UNL     1      34.943 -15.700 -21.049  0.00  0.00    -0.005 C 
ATOM     32  C   UNL     1      34.391 -13.845 -23.058  0.00  0.00    +0.068 C 
ATOM     33  C   UNL     1      34.518 -14.415 -20.714  0.00  0.00    +0.001 C 
ATOM     34  C   UNL     1      34.242 -13.488 -21.719  0.00  0.00    +0.012 C 
ENDBRANCH  26  29
ENDBRANCH  19  26
ENDBRANCH  18  20
ENDBRANCH   1  18
TORSDOF 5
ENDMDL
MODEL 5
REMARK VINA RESULT:     -11.1      5.385     11.245
REMARK  Name = 24978486
REMARK  5 active torsions:
REMARK  status: ('A' for Active; 'I' for Inactive)
REMARK    1  A    between atoms: O_1  and  C_6
REMARK    2  A    between atoms: O_1  and  C_18
REMARK    3  A    between atoms: C_18  and  C_20
REMARK    4  A    between atoms: N_19  and  C_26
REMARK    5  A    between atoms: C_26  and  C_29
REMARK                            x       y       z     vdW  Elec       q    Type
REMARK                         _______ _______ _______ _____ _____    ______ ____
ROOT
ATOM      1  O   UNL     1      34.581 -12.920 -23.338  0.00  0.00    -0.479 OA
ENDROOT
BRANCH   1   6
ATOM      2  N   UNL     1      31.866  -9.028 -22.357  0.00  0.00    -0.332 NA
ATOM      3  N   UNL     1      33.576  -8.835 -24.044  0.00  0.00    -0.317 NA
ATOM      4  N   UNL     1      34.943 -10.639 -24.602  0.00  0.00    -0.335 N 
ATOM      5  N   UNL     1      32.212  -7.009 -23.500  0.00  0.00    -0.283 N 
ATOM      6  C   UNL     1      33.580 -12.271 -22.660  0.00  0.00    +0.130 C 
ATOM      7  C   UNL     1      33.237 -10.925 -22.880  0.00  0.00    +0.177 C 
ATOM      8  C   UNL     1      32.890 -13.017 -21.709  0.00  0.00    +0.033 C 
ATOM      9  C   UNL     1      32.203 -10.314 -22.153  0.00  0.00    +0.137 C 
ATOM     10  C   UNL     1      33.886 -10.125 -23.816  0.00  0.00    +0.181 C 
ATOM     11  C   UNL     1      31.865 -12.423 -20.982  0.00  0.00    +0.005 C 
ATOM     12  C   UNL     1      31.530 -11.084 -21.208  0.00  0.00    +0.030 C 
ATOM     13  C   UNL     1      32.571  -8.358 -23.291  0.00  0.00    +0.197 C 
ATOM     14  H   UNL     1      35.393 -10.063 -25.260  0.00  0.00    +0.144 HD
ATOM     15  H   UNL     1      35.226 -11.576 -24.491  0.00  0.00    +0.144 HD
ATOM     16  H   UNL     1      31.482  -6.607 -22.975  0.00  0.00    +0.156 HD
ATOM     17  H   UNL     1      32.691  -6.469 -24.170  0.00  0.00    +0.156 HD
ENDBRANCH   1   6
BRANCH   1  18
ATOM     18  C   UNL     1      34.211 -14.055 -24.099  0.00  0.00    +0.205 C 
BRANCH  18  20
ATOM     19  N   UNL     1      35.171 -17.868 -22.311  0.00  0.00    +0.390 N 
ATOM     20  C   UNL     1      35.033 -15.250 -23.621  0.00  0.00    +0.040 C 
ATOM     21  C   UNL     1      34.585 -16.540 -24.314  0.00  0.00    -0.019 C 
ATOM     22  C   UNL     1      34.930 -15.415 -22.101  0.00  0.00    -0.019 C 
ATOM     23  C   UNL     1      35.336 -17.756 -23.766  0.00  0.00    -0.077 C 
ATOM     24  C   UNL     1      35.670 -16.668 -21.627  0.00  0.00    -0.077 C 
ATOM     25  H   UNL     1      34.174 -17.953 -22.112  0.00  0.00    -0.079 HD
BRANCH  19  26
ATOM     26  C   UNL     1      35.851 -19.062 -21.810  0.00  0.00    -0.049 C 
BRANCH  26  29
ATOM     27 CL   UNL     1      37.243 -20.730 -19.673  0.00  0.00    -0.082 Cl
ATOM     28 CL   UNL     1      35.273 -22.357 -17.725  0.00  0.00    -0.081 Cl
ATOM     29  C   UNL     1      34.981 -19.849 -20.866  0.00  0.00    -0.032 C 
ATOM     30  C   UNL     1      35.520 -20.643 -19.853  0.00  0.00    +0.062 C 
ATOM     31  C   UNL     1      33.598 -19.767 -21.026  0.00  0.00    -0.005 C 
ATOM     32  C   UNL     1      34.674 -21.355 -19.001  0.00  0.00    +0.068 C 
ATOM     33  C   UNL     1      32.753 -20.477 -20.174  0.00  0.00    +0.001 C 
ATOM     34  C   UNL     1      33.292 -21.271 -19.161  0.00  0.00    +0.012 C 
ENDBRANCH  26  29
ENDBRANCH  19  26
ENDBRANCH  18  20
ENDBRANCH   1  18
TORSDOF 5
ENDMDL
MODEL 6
REMARK VINA RESULT:     -11.0      5.343     10.915
REMARK  Name = 24978486
REMARK  5 active torsions:
REMARK  status: ('A' for Active; 'I' for Inactive)
REMARK    1  A    between atoms: O_1  and  C_6
REMARK    2  A    between atoms: O_1  and  C_18
REMARK    3  A    between atoms: C_18  and  C_20
REMARK    4  A    between atoms: N_19  and  C_26
REMARK    5  A    between atoms: C_26  and  C_29
REMARK                            x       y       z     vdW  Elec       q    Type
REMARK                         _______ _______ _______ _____ _____    ______ ____
ROOT
ATOM      1  O   UNL     1      33.534 -13.729 -23.521  0.00  0.00    -0.479 OA
ENDROOT
BRANCH   1   6
ATOM      2  N   UNL     1      32.542  -9.301 -21.821  0.00  0.00    -0.332 NA
ATOM      3  N   UNL     1      31.859 -11.208 -20.515  0.00  0.00    -0.317 NA
ATOM      4  N   UNL     1      32.282 -13.386 -21.231  0.00  0.00    -0.335 N 
ATOM      5  N   UNL     1      31.425  -9.027 -19.777  0.00  0.00    -0.283 N 
ATOM      6  C   UNL     1      33.558 -12.359 -23.599  0.00  0.00    +0.130 C 
ATOM      7  C   UNL     1      33.010 -11.514 -22.618  0.00  0.00    +0.177 C 
ATOM      8  C   UNL     1      34.165 -11.813 -24.726  0.00  0.00    +0.033 C 
ATOM      9  C   UNL     1      33.063 -10.118 -22.754  0.00  0.00    +0.137 C 
ATOM     10  C   UNL     1      32.391 -11.996 -21.468  0.00  0.00    +0.181 C 
ATOM     11  C   UNL     1      34.223 -10.432 -24.873  0.00  0.00    +0.005 C 
ATOM     12  C   UNL     1      33.676  -9.598 -23.891  0.00  0.00    +0.030 C 
ATOM     13  C   UNL     1      31.969  -9.890 -20.752  0.00  0.00    +0.197 C 
ATOM     14  H   UNL     1      31.842 -13.713 -20.414  0.00  0.00    +0.144 HD
ATOM     15  H   UNL     1      32.648 -14.026 -21.884  0.00  0.00    +0.144 HD
ATOM     16  H   UNL     1      31.477  -8.051 -19.899  0.00  0.00    +0.156 HD
ATOM     17  H   UNL     1      30.994  -9.400 -18.973  0.00  0.00    +0.156 HD
ENDBRANCH   1   6
BRANCH   1  18
ATOM     18  C   UNL     1      34.170 -14.444 -24.565  0.00  0.00    +0.205 C 
BRANCH  18  20
ATOM     19  N   UNL     1      35.187 -17.984 -22.310  0.00  0.00    +0.390 N 
ATOM     20  C   UNL     1      35.008 -15.561 -23.949  0.00  0.00    +0.040 C 
ATOM     21  C   UNL     1      34.558 -16.933 -24.460  0.00  0.00    -0.019 C 
ATOM     22  C   UNL     1      34.932 -15.526 -22.419  0.00  0.00    -0.019 C 
ATOM     23  C   UNL     1      35.327 -18.063 -23.770  0.00  0.00    -0.077 C 
ATOM     24  C   UNL     1      35.688 -16.702 -21.798  0.00  0.00    -0.077 C 
ATOM     25  H   UNL     1      34.194 -18.047 -22.085  0.00  0.00    -0.079 HD
BRANCH  19  26
ATOM     26  C   UNL     1      35.884 -19.099 -21.669  0.00  0.00    -0.049 C 
BRANCH  26  29
ATOM     27 CL   UNL     1      37.182 -20.882 -19.567  0.00  0.00    -0.082 Cl
ATOM     28 CL   UNL     1      35.126 -22.502 -17.703  0.00  0.00    -0.081 Cl
ATOM     29  C   UNL     1      34.972 -19.885 -20.765  0.00  0.00    -0.032 C 
ATOM     30  C   UNL     1      35.466 -20.730 -19.770  0.00  0.00    +0.062 C 
ATOM     31  C   UNL     1      33.596 -19.750 -20.944  0.00  0.00    -0.005 C 
ATOM     32  C   UNL     1      34.583 -21.439 -18.955  0.00  0.00    +0.068 C 
ATOM     33  C   UNL     1      32.713 -20.458 -20.129  0.00  0.00    +0.001 C 
ATOM     34  C   UNL     1      33.207 -21.302 -19.134  0.00  0.00    +0.012 C 
ENDBRANCH  26  29
ENDBRANCH  19  26
ENDBRANCH  18  20
ENDBRANCH   1  18
TORSDOF 5
ENDMDL
MODEL 7
REMARK VINA RESULT:     -10.7      2.379      3.571
REMARK  Name = 24978486
REMARK  5 active torsions:
REMARK  status: ('A' for Active; 'I' for Inactive)
REMARK    1  A    between atoms: O_1  and  C_6
REMARK    2  A    between atoms: O_1  and  C_18
REMARK    3  A    between atoms: C_18  and  C_20
REMARK    4  A    between atoms: N_19  and  C_26
REMARK    5  A    between atoms: C_26  and  C_29
REMARK                            x       y       z     vdW  Elec       q    Type
REMARK                         _______ _______ _______ _____ _____    ______ ____
ROOT
ATOM      1  O   UNL     1      32.929 -22.455 -17.664  0.00  0.00    -0.479 OA
ENDROOT
BRANCH   1   6
ATOM      2  N   UNL     1      32.400 -24.366 -13.243  0.00  0.00    -0.332 NA
ATOM      3  N   UNL     1      30.421 -23.698 -14.445  0.00  0.00    -0.317 NA
ATOM      4  N   UNL     1      30.551 -22.767 -16.579  0.00  0.00    -0.335 N 
ATOM      5  N   UNL     1      30.267 -24.632 -12.302  0.00  0.00    -0.283 N 
ATOM      6  C   UNL     1      33.420 -23.002 -16.505  0.00  0.00    +0.130 C 
ATOM      7  C   UNL     1      32.607 -23.415 -15.435  0.00  0.00    +0.177 C 
ATOM      8  C   UNL     1      34.802 -23.137 -16.421  0.00  0.00    +0.033 C 
ATOM      9  C   UNL     1      33.168 -23.967 -14.272  0.00  0.00    +0.137 C 
ATOM     10  C   UNL     1      31.220 -23.309 -15.457  0.00  0.00    +0.181 C 
ATOM     11  C   UNL     1      35.370 -23.681 -15.274  0.00  0.00    +0.005 C 
ATOM     12  C   UNL     1      34.554 -24.091 -14.214  0.00  0.00    +0.030 C 
ATOM     13  C   UNL     1      31.068 -24.210 -13.385  0.00  0.00    +0.197 C 
ATOM     14  H   UNL     1      29.570 -22.697 -16.581  0.00  0.00    +0.144 HD
ATOM     15  H   UNL     1      31.069 -22.461 -17.359  0.00  0.00    +0.144 HD
ATOM     16  H   UNL     1      30.689 -25.015 -11.499  0.00  0.00    +0.156 HD
ATOM     17  H   UNL     1      29.288 -24.543 -12.349  0.00  0.00    +0.156 HD
ENDBRANCH   1   6
BRANCH   1  18
ATOM     18  C   UNL     1      33.715 -22.610 -18.832  0.00  0.00    +0.205 C 
BRANCH  18  20
ATOM     19  N   UNL     1      35.728 -19.516 -21.073  0.00  0.00    +0.390 N 
ATOM     20  C   UNL     1      34.370 -21.271 -19.159  0.00  0.00    +0.040 C 
ATOM     21  C   UNL     1      33.624 -20.553 -20.287  0.00  0.00    -0.019 C 
ATOM     22  C   UNL     1      35.841 -21.459 -19.547  0.00  0.00    -0.019 C 
ATOM     23  C   UNL     1      34.334 -19.258 -20.688  0.00  0.00    -0.077 C 
ATOM     24  C   UNL     1      36.477 -20.134 -19.972  0.00  0.00    -0.077 C 
ATOM     25  H   UNL     1      35.722 -20.169 -21.857  0.00  0.00    -0.079 HD
BRANCH  19  26
ATOM     26  C   UNL     1      36.377 -18.277 -21.502  0.00  0.00    -0.049 C 
BRANCH  26  29
ATOM     27 CL   UNL     1      35.233 -15.481 -21.111  0.00  0.00    -0.082 Cl
ATOM     28 CL   UNL     1      33.745 -14.251 -23.680  0.00  0.00    -0.081 Cl
ATOM     29  C   UNL     1      35.667 -17.646 -22.670  0.00  0.00    -0.032 C 
ATOM     30  C   UNL     1      35.108 -16.371 -22.595  0.00  0.00    +0.062 C 
ATOM     31  C   UNL     1      35.576 -18.378 -23.855  0.00  0.00    -0.005 C 
ATOM     32  C   UNL     1      34.459 -15.826 -23.704  0.00  0.00    +0.068 C 
ATOM     33  C   UNL     1      34.929 -17.834 -24.963  0.00  0.00    +0.001 C 
ATOM     34  C   UNL     1      34.370 -16.558 -24.887  0.00  0.00    +0.012 C 
ENDBRANCH  26  29
ENDBRANCH  19  26
ENDBRANCH  18  20
ENDBRANCH   1  18
TORSDOF 5
ENDMDL
MODEL 8
REMARK VINA RESULT:     -10.6      3.119      5.201
REMARK  Name = 24978486
REMARK  5 active torsions:
REMARK  status: ('A' for Active; 'I' for Inactive)
REMARK    1  A    between atoms: O_1  and  C_6
REMARK    2  A    between atoms: O_1  and  C_18
REMARK    3  A    between atoms: C_18  and  C_20
REMARK    4  A    between atoms: N_19  and  C_26
REMARK    5  A    between atoms: C_26  and  C_29
REMARK                            x       y       z     vdW  Elec       q    Type
REMARK                         _______ _______ _______ _____ _____    ______ ____
ROOT
ATOM      1  O   UNL     1      34.720 -24.866 -13.165  0.00  0.00    -0.479 OA
ENDROOT
BRANCH   1   6
ATOM      2  N   UNL     1      39.562 -25.054 -13.177  0.00  0.00    -0.332 NA
ATOM      3  N   UNL     1      38.356 -26.525 -14.657  0.00  0.00    -0.317 NA
ATOM      4  N   UNL     1      36.026 -26.523 -14.739  0.00  0.00    -0.335 N 
ATOM      5  N   UNL     1      40.698 -26.541 -14.591  0.00  0.00    -0.283 N 
ATOM      6  C   UNL     1      35.957 -24.462 -12.729  0.00  0.00    +0.130 C 
ATOM      7  C   UNL     1      37.164 -24.999 -13.210  0.00  0.00    +0.177 C 
ATOM      8  C   UNL     1      35.978 -23.467 -11.757  0.00  0.00    +0.033 C 
ATOM      9  C   UNL     1      38.401 -24.547 -12.724  0.00  0.00    +0.137 C 
ATOM     10  C   UNL     1      37.214 -25.995 -14.181  0.00  0.00    +0.181 C 
ATOM     11  C   UNL     1      37.196 -23.011 -11.267  0.00  0.00    +0.005 C 
ATOM     12  C   UNL     1      38.393 -23.551 -11.751  0.00  0.00    +0.030 C 
ATOM     13  C   UNL     1      39.476 -26.015 -14.119  0.00  0.00    +0.197 C 
ATOM     14  H   UNL     1      36.074 -27.227 -15.425  0.00  0.00    +0.144 HD
ATOM     15  H   UNL     1      35.150 -26.185 -14.441  0.00  0.00    +0.144 HD
ATOM     16  H   UNL     1      41.550 -26.205 -14.231  0.00  0.00    +0.156 HD
ATOM     17  H   UNL     1      40.699 -27.245 -15.280  0.00  0.00    +0.156 HD
ENDBRANCH   1   6
BRANCH   1  18
ATOM     18  C   UNL     1      33.772 -23.851 -13.439  0.00  0.00    +0.205 C 
BRANCH  18  20
ATOM     19  N   UNL     1      33.455 -22.207 -17.421  0.00  0.00    +0.390 N 
ATOM     20  C   UNL     1      33.559 -23.779 -14.949  0.00  0.00    +0.040 C 
ATOM     21  C   UNL     1      34.821 -23.282 -15.661  0.00  0.00    -0.019 C 
ATOM     22  C   UNL     1      32.376 -22.869 -15.296  0.00  0.00    -0.019 C 
ATOM     23  C   UNL     1      34.582 -23.112 -17.163  0.00  0.00    -0.077 C 
ATOM     24  C   UNL     1      32.219 -22.713 -16.809  0.00  0.00    -0.077 C 
ATOM     25  H   UNL     1      33.671 -21.305 -16.996  0.00  0.00    -0.079 HD
BRANCH  19  26
ATOM     26  C   UNL     1      33.272 -22.015 -18.859  0.00  0.00    -0.049 C 
BRANCH  26  29
ATOM     27 CL   UNL     1      32.543 -19.905 -20.932  0.00  0.00    -0.082 Cl
ATOM     28 CL   UNL     1      35.033 -18.277 -22.146  0.00  0.00    -0.081 Cl
ATOM     29  C   UNL     1      34.396 -21.219 -19.466  0.00  0.00    -0.032 C 
ATOM     30  C   UNL     1      34.169 -20.230 -20.423  0.00  0.00    +0.062 C 
ATOM     31  C   UNL     1      35.697 -21.494 -19.044  0.00  0.00    -0.005 C 
ATOM     32  C   UNL     1      35.243 -19.516 -20.958  0.00  0.00    +0.068 C 
ATOM     33  C   UNL     1      36.770 -20.781 -19.578  0.00  0.00    +0.001 C 
ATOM     34  C   UNL     1      36.543 -19.792 -20.535  0.00  0.00    +0.012 C 
ENDBRANCH  26  29
ENDBRANCH  19  26
ENDBRANCH  18  20
ENDBRANCH   1  18
TORSDOF 5
ENDMDL
MODEL 9
REMARK VINA RESULT:     -10.5      4.168      9.958
REMARK  Name = 24978486
REMARK  5 active torsions:
REMARK  status: ('A' for Active; 'I' for Inactive)
REMARK    1  A    between atoms: O_1  and  C_6
REMARK    2  A    between atoms: O_1  and  C_18
REMARK    3  A    between atoms: C_18  and  C_20
REMARK    4  A    between atoms: N_19  and  C_26
REMARK    5  A    between atoms: C_26  and  C_29
REMARK                            x       y       z     vdW  Elec       q    Type
REMARK                         _______ _______ _______ _____ _____    ______ ____
ROOT
ATOM      1  O   UNL     1      35.524 -17.798 -21.115  0.00  0.00    -0.479 OA
ENDROOT
BRANCH   1   6
ATOM      2  N   UNL     1      34.427 -14.121 -24.074  0.00  0.00    -0.332 NA
ATOM      3  N   UNL     1      34.468 -13.706 -21.700  0.00  0.00    -0.317 NA
ATOM      4  N   UNL     1      34.982 -15.397 -20.180  0.00  0.00    -0.335 N 
ATOM      5  N   UNL     1      33.948 -11.992 -23.211  0.00  0.00    -0.283 N 
ATOM      6  C   UNL     1      35.314 -17.252 -22.357  0.00  0.00    +0.130 C 
ATOM      7  C   UNL     1      34.964 -15.907 -22.567  0.00  0.00    +0.177 C 
ATOM      8  C   UNL     1      35.462 -18.109 -23.443  0.00  0.00    +0.033 C 
ATOM      9  C   UNL     1      34.761 -15.406 -23.863  0.00  0.00    +0.137 C 
ATOM     10  C   UNL     1      34.801 -14.998 -21.525  0.00  0.00    +0.181 C 
ATOM     11  C   UNL     1      35.262 -17.626 -24.731  0.00  0.00    +0.005 C 
ATOM     12  C   UNL     1      34.915 -16.285 -24.931  0.00  0.00    +0.030 C 
ATOM     13  C   UNL     1      34.298 -13.340 -22.982  0.00  0.00    +0.197 C 
ATOM     14  H   UNL     1      34.864 -14.745 -19.453  0.00  0.00    +0.144 HD
ATOM     15  H   UNL     1      35.228 -16.328 -19.972  0.00  0.00    +0.144 HD
ATOM     16  H   UNL     1      33.812 -11.669 -24.131  0.00  0.00    +0.156 HD
ATOM     17  H   UNL     1      33.842 -11.374 -22.452  0.00  0.00    +0.156 HD
ENDBRANCH   1   6
BRANCH   1  18
ATOM     18  C   UNL     1      36.414 -18.896 -21.037  0.00  0.00    +0.205 C 
BRANCH  18  20
ATOM     19  N   UNL     1      34.077 -21.645 -18.663  0.00  0.00    +0.390 N 
ATOM     20  C   UNL     1      35.619 -20.140 -20.651  0.00  0.00    +0.040 C 
ATOM     21  C   UNL     1      34.175 -19.780 -20.286  0.00  0.00    -0.019 C 
ATOM     22  C   UNL     1      36.281 -20.875 -19.480  0.00  0.00    -0.019 C 
ATOM     23  C   UNL     1      33.401 -21.008 -19.801  0.00  0.00    -0.077 C 
ATOM     24  C   UNL     1      35.437 -22.066 -19.023  0.00  0.00    -0.077 C 
ATOM     25  H   UNL     1      34.148 -20.956 -17.913  0.00  0.00    -0.079 HD
BRANCH  19  26
ATOM     26  C   UNL     1      33.299 -22.785 -18.179  0.00  0.00    -0.049 C 
BRANCH  26  29
ATOM     27 CL   UNL     1      30.780 -22.737 -16.466  0.00  0.00    -0.082 Cl
ATOM     28 CL   UNL     1      31.269 -23.183 -13.321  0.00  0.00    -0.081 Cl
ATOM     29  C   UNL     1      33.462 -22.987 -16.696  0.00  0.00    -0.032 C 
ATOM     30  C   UNL     1      32.373 -22.983 -15.825  0.00  0.00    +0.062 C 
ATOM     31  C   UNL     1      34.751 -23.183 -16.200  0.00  0.00    -0.005 C 
ATOM     32  C   UNL     1      32.573 -23.175 -14.457  0.00  0.00    +0.068 C 
ATOM     33  C   UNL     1      34.951 -23.376 -14.834  0.00  0.00    +0.001 C 
ATOM     34  C   UNL     1      33.862 -23.372 -13.962  0.00  0.00    +0.012 C 
ENDBRANCH  26  29
ENDBRANCH  19  26
ENDBRANCH  18  20
ENDBRANCH   1  18
TORSDOF 5
ENDMDL
