MODEL 1
REMARK VINA RESULT:     -12.0      0.000      0.000
REMARK  Name = 25191001
REMARK  7 active torsions:
REMARK  status: ('A' for Active; 'I' for Inactive)
REMARK    1  A    between atoms: C_1  and  N_9
REMARK    2  A    between atoms: C_2  and  O_24
REMARK    3  A    between atoms: N_8  and  C_14
REMARK    4  A    between atoms: C_15  and  C_23
REMARK    5  A    between atoms: O_24  and  C_26
REMARK    6  A    between atoms: C_28  and  C_33
REMARK    7  A    between atoms: N_32  and  C_35
REMARK                            x       y       z     vdW  Elec       q    Type
REMARK                         _______ _______ _______ _____ _____    ______ ____
ROOT
ATOM      1  C   UNL     1      34.942 -15.722 -23.510  0.00  0.00    +0.052 C 
ATOM      2  C   UNL     1      35.493 -18.255 -22.478  0.00  0.00    +0.145 C 
ATOM      3  C   UNL     1      34.858 -16.845 -24.333  0.00  0.00    +0.018 C 
ATOM      4  C   UNL     1      35.302 -15.866 -22.170  0.00  0.00    +0.018 C 
ATOM      5  C   UNL     1      35.133 -18.111 -23.818  0.00  0.00    +0.039 C 
ATOM      6  C   UNL     1      35.578 -17.133 -21.653  0.00  0.00    +0.039 C 
ENDROOT
BRANCH   1   9
ATOM      7  O   UNL     1      34.879 -13.061 -22.154  0.00  0.00    -0.252 OA
ATOM      8  N   UNL     1      34.323 -12.163 -24.246  0.00  0.00    -0.268 N 
ATOM      9  N   UNL     1      34.665 -14.438 -24.034  0.00  0.00    -0.268 N 
ATOM     10  C   UNL     1      34.648 -13.211 -23.350  0.00  0.00    +0.308 C 
ATOM     11  H   UNL     1      34.162 -12.433 -25.179  0.00  0.00    +0.156 HD
ATOM     12  H   UNL     1      34.458 -14.399 -24.995  0.00  0.00    +0.156 HD
BRANCH   8  14
ATOM     13 CL   UNL     1      33.841  -6.377 -23.142  0.00  0.00    -0.082 Cl
ATOM     14  C   UNL     1      34.200 -10.799 -23.981  0.00  0.00    +0.052 C 
ATOM     15  C   UNL     1      32.933  -8.946 -23.089  0.00  0.00    +0.083 C 
ATOM     16  C   UNL     1      33.055 -10.310 -23.353  0.00  0.00    +0.019 C 
ATOM     17  C   UNL     1      35.223  -9.924 -24.346  0.00  0.00    +0.016 C 
ATOM     18  C   UNL     1      33.956  -8.070 -23.453  0.00  0.00    +0.062 C 
ATOM     19  C   UNL     1      35.102  -8.560 -24.082  0.00  0.00    +0.013 C 
BRANCH  15  23
ATOM     20  F   UNL     1      31.926  -7.836 -21.223  0.00  0.00    -0.166 F 
ATOM     21  F   UNL     1      30.983  -7.563 -23.157  0.00  0.00    -0.166 F 
ATOM     22  F   UNL     1      30.822  -9.474 -22.132  0.00  0.00    -0.166 F 
ATOM     23  C   UNL     1      31.691  -8.462 -22.413  0.00  0.00    +0.419 C 
ENDBRANCH  15  23
ENDBRANCH   8  14
ENDBRANCH   1   9
BRANCH   2  24
ATOM     24  O   UNL     1      35.764 -19.491 -21.974  0.00  0.00    -0.453 OA
BRANCH  24  26
ATOM     25  N   UNL     1      33.099 -21.066 -19.166  0.00  0.00    -0.239 NA
ATOM     26  C   UNL     1      34.882 -20.014 -21.044  0.00  0.00    +0.149 C 
ATOM     27  C   UNL     1      35.354 -20.792 -19.993  0.00  0.00    +0.061 C 
ATOM     28  C   UNL     1      34.431 -21.290 -19.088  0.00  0.00    +0.137 C 
ATOM     29  C   UNL     1      33.519 -19.761 -21.157  0.00  0.00    +0.058 C 
ATOM     30  C   UNL     1      32.677 -20.306 -20.201  0.00  0.00    +0.102 C 
BRANCH  28  33
ATOM     31  O   UNL     1      36.078 -22.219 -17.704  0.00  0.00    -0.269 OA
ATOM     32  N   UNL     1      33.871 -22.735 -17.211  0.00  0.00    -0.313 N 
ATOM     33  C   UNL     1      34.867 -22.109 -17.971  0.00  0.00    +0.263 C 
ATOM     34  H   UNL     1      32.933 -22.605 -17.479  0.00  0.00    +0.149 HD
ATOM     35  C   UNL     1      34.145 -23.560 -16.058  0.00  0.00    +0.128 C 
ENDBRANCH  28  33
ENDBRANCH  24  26
ENDBRANCH   2  24
TORSDOF 6
ENDMDL
MODEL 2
REMARK VINA RESULT:     -11.7      3.988      6.746
REMARK  Name = 25191001
REMARK  7 active torsions:
REMARK  status: ('A' for Active; 'I' for Inactive)
REMARK    1  A    between atoms: C_1  and  N_9
REMARK    2  A    between atoms: C_2  and  O_24
REMARK    3  A    between atoms: N_8  and  C_14
REMARK    4  A    between atoms: C_15  and  C_23
REMARK    5  A    between atoms: O_24  and  C_26
REMARK    6  A    between atoms: C_28  and  C_33
REMARK    7  A    between atoms: N_32  and  C_35
REMARK                            x       y       z     vdW  Elec       q    Type
REMARK                         _______ _______ _______ _____ _____    ______ ____
ROOT
ATOM      1  C   UNL     1      35.877 -20.981 -19.133  0.00  0.00    +0.052 C 
ATOM      2  C   UNL     1      35.304 -22.853 -17.144  0.00  0.00    +0.145 C 
ATOM      3  C   UNL     1      34.720 -21.758 -19.217  0.00  0.00    +0.018 C 
ATOM      4  C   UNL     1      36.747 -21.141 -18.055  0.00  0.00    +0.018 C 
ATOM      5  C   UNL     1      34.434 -22.693 -18.222  0.00  0.00    +0.039 C 
ATOM      6  C   UNL     1      36.461 -22.077 -17.060  0.00  0.00    +0.039 C 
ENDROOT
BRANCH   1   9
ATOM      7  O   UNL     1      34.050 -19.207 -20.694  0.00  0.00    -0.252 OA
ATOM      8  N   UNL     1      35.970 -18.413 -21.776  0.00  0.00    -0.268 N 
ATOM      9  N   UNL     1      36.167 -20.034 -20.143  0.00  0.00    -0.268 N 
ATOM     10  C   UNL     1      35.267 -19.221 -20.850  0.00  0.00    +0.308 C 
ATOM     11  H   UNL     1      36.947 -18.532 -21.790  0.00  0.00    +0.156 HD
ATOM     12  H   UNL     1      37.117 -19.933 -20.379  0.00  0.00    +0.156 HD
BRANCH   8  14
ATOM     13 CL   UNL     1      33.820 -14.444 -25.591  0.00  0.00    -0.082 Cl
ATOM     14  C   UNL     1      35.462 -17.470 -22.670  0.00  0.00    +0.052 C 
ATOM     15  C   UNL     1      34.688 -15.228 -23.130  0.00  0.00    +0.083 C 
ATOM     16  C   UNL     1      35.196 -16.170 -22.236  0.00  0.00    +0.019 C 
ATOM     17  C   UNL     1      35.221 -17.826 -23.996  0.00  0.00    +0.016 C 
ATOM     18  C   UNL     1      34.447 -15.583 -24.457  0.00  0.00    +0.062 C 
ATOM     19  C   UNL     1      34.713 -16.883 -24.890  0.00  0.00    +0.013 C 
BRANCH  15  23
ATOM     20  F   UNL     1      35.004 -12.869 -23.376  0.00  0.00    -0.166 F 
ATOM     21  F   UNL     1      33.090 -13.529 -22.599  0.00  0.00    -0.166 F 
ATOM     22  F   UNL     1      34.868 -13.657 -21.355  0.00  0.00    -0.166 F 
ATOM     23  C   UNL     1      34.417 -13.847 -22.627  0.00  0.00    +0.419 C 
ENDBRANCH  15  23
ENDBRANCH   8  14
ENDBRANCH   1   9
BRANCH   2  24
ATOM     24  O   UNL     1      35.027 -23.767 -16.174  0.00  0.00    -0.453 OA
BRANCH  24  26
ATOM     25  N   UNL     1      31.564 -23.204 -13.902  0.00  0.00    -0.239 NA
ATOM     26  C   UNL     1      33.880 -23.579 -15.422  0.00  0.00    +0.149 C 
ATOM     27  C   UNL     1      32.691 -23.207 -16.041  0.00  0.00    +0.061 C 
ATOM     28  C   UNL     1      31.571 -23.034 -15.244  0.00  0.00    +0.137 C 
ATOM     29  C   UNL     1      33.912 -23.764 -14.045  0.00  0.00    +0.058 C 
ATOM     30  C   UNL     1      32.737 -23.565 -13.336  0.00  0.00    +0.102 C 
BRANCH  28  33
ATOM     31  O   UNL     1      30.257 -22.209 -17.001  0.00  0.00    -0.269 OA
ATOM     32  N   UNL     1      29.156 -22.808 -15.050  0.00  0.00    -0.313 N 
ATOM     33  C   UNL     1      30.303 -22.645 -15.836  0.00  0.00    +0.263 C 
ATOM     34  H   UNL     1      29.265 -23.158 -14.136  0.00  0.00    +0.149 HD
ATOM     35  C   UNL     1      27.822 -22.490 -15.505  0.00  0.00    +0.128 C 
ENDBRANCH  28  33
ENDBRANCH  24  26
ENDBRANCH   2  24
TORSDOF 6
ENDMDL
MODEL 3
REMARK VINA RESULT:     -11.6      1.978      2.995
REMARK  Name = 25191001
REMARK  7 active torsions:
REMARK  status: ('A' for Active; 'I' for Inactive)
REMARK    1  A    between atoms: C_1  and  N_9
REMARK    2  A    between atoms: C_2  and  O_24
REMARK    3  A    between atoms: N_8  and  C_14
REMARK    4  A    between atoms: C_15  and  C_23
REMARK    5  A    between atoms: O_24  and  C_26
REMARK    6  A    between atoms: C_28  and  C_33
REMARK    7  A    between atoms: N_32  and  C_35
REMARK                            x       y       z     vdW  Elec       q    Type
REMARK                         _______ _______ _______ _____ _____    ______ ____
ROOT
ATOM      1  C   UNL     1      33.963 -13.672 -23.222  0.00  0.00    +0.052 C 
ATOM      2  C   UNL     1      34.891 -16.278 -23.588  0.00  0.00    +0.145 C 
ATOM      3  C   UNL     1      34.700 -14.298 -22.216  0.00  0.00    +0.018 C 
ATOM      4  C   UNL     1      33.690 -14.349 -24.410  0.00  0.00    +0.018 C 
ATOM      5  C   UNL     1      35.164 -15.601 -22.399  0.00  0.00    +0.039 C 
ATOM      6  C   UNL     1      34.153 -15.653 -24.594  0.00  0.00    +0.039 C 
ENDROOT
BRANCH   1   9
ATOM      7  O   UNL     1      34.999 -11.086 -24.300  0.00  0.00    -0.252 OA
ATOM      8  N   UNL     1      33.247 -10.057 -23.134  0.00  0.00    -0.268 N 
ATOM      9  N   UNL     1      33.492 -12.351 -23.035  0.00  0.00    -0.268 N 
ATOM     10  C   UNL     1      34.017 -11.163 -23.567  0.00  0.00    +0.308 C 
ATOM     11  H   UNL     1      32.486 -10.270 -22.547  0.00  0.00    +0.156 HD
ATOM     12  H   UNL     1      32.698 -12.254 -22.462  0.00  0.00    +0.156 HD
BRANCH   8  14
ATOM     13 CL   UNL     1      34.027  -4.336 -24.395  0.00  0.00    -0.082 Cl
ATOM     14  C   UNL     1      33.423  -8.704 -23.429  0.00  0.00    +0.052 C 
ATOM     15  C   UNL     1      32.584  -6.439 -23.437  0.00  0.00    +0.083 C 
ATOM     16  C   UNL     1      32.408  -7.791 -23.142  0.00  0.00    +0.019 C 
ATOM     17  C   UNL     1      34.613  -8.266 -24.009  0.00  0.00    +0.016 C 
ATOM     18  C   UNL     1      33.774  -6.000 -24.017  0.00  0.00    +0.062 C 
ATOM     19  C   UNL     1      34.789  -6.915 -24.304  0.00  0.00    +0.013 C 
BRANCH  15  23
ATOM     20  F   UNL     1      30.450  -6.069 -22.420  0.00  0.00    -0.166 F 
ATOM     21  F   UNL     1      31.868  -4.430 -22.354  0.00  0.00    -0.166 F 
ATOM     22  F   UNL     1      30.905  -4.955 -24.231  0.00  0.00    -0.166 F 
ATOM     23  C   UNL     1      31.473  -5.492 -23.114  0.00  0.00    +0.419 C 
ENDBRANCH  15  23
ENDBRANCH   8  14
ENDBRANCH   1   9
BRANCH   2  24
ATOM     24  O   UNL     1      35.341 -17.550 -23.766  0.00  0.00    -0.453 OA
BRANCH  24  26
ATOM     25  N   UNL     1      36.177 -19.815 -20.353  0.00  0.00    -0.239 NA
ATOM     26  C   UNL     1      35.617 -18.300 -22.635  0.00  0.00    +0.149 C 
ATOM     27  C   UNL     1      34.598 -18.991 -21.989  0.00  0.00    +0.061 C 
ATOM     28  C   UNL     1      34.927 -19.727 -20.862  0.00  0.00    +0.137 C 
ATOM     29  C   UNL     1      36.916 -18.365 -22.142  0.00  0.00    +0.058 C 
ATOM     30  C   UNL     1      37.141 -19.129 -21.008  0.00  0.00    +0.102 C 
BRANCH  28  33
ATOM     31  O   UNL     1      32.698 -20.298 -20.410  0.00  0.00    -0.269 OA
ATOM     32  N   UNL     1      34.337 -21.386 -19.182  0.00  0.00    -0.313 N 
ATOM     33  C   UNL     1      33.903 -20.469 -20.147  0.00  0.00    +0.263 C 
ATOM     34  H   UNL     1      35.305 -21.471 -19.023  0.00  0.00    +0.149 HD
ATOM     35  C   UNL     1      33.443 -22.214 -18.405  0.00  0.00    +0.128 C 
ENDBRANCH  28  33
ENDBRANCH  24  26
ENDBRANCH   2  24
TORSDOF 6
ENDMDL
MODEL 4
REMARK VINA RESULT:     -11.6      4.300      7.580
REMARK  Name = 25191001
REMARK  7 active torsions:
REMARK  status: ('A' for Active; 'I' for Inactive)
REMARK    1  A    between atoms: C_1  and  N_9
REMARK    2  A    between atoms: C_2  and  O_24
REMARK    3  A    between atoms: N_8  and  C_14
REMARK    4  A    between atoms: C_15  and  C_23
REMARK    5  A    between atoms: O_24  and  C_26
REMARK    6  A    between atoms: C_28  and  C_33
REMARK    7  A    between atoms: N_32  and  C_35
REMARK                            x       y       z     vdW  Elec       q    Type
REMARK                         _______ _______ _______ _____ _____    ______ ____
ROOT
ATOM      1  C   UNL     1      36.041 -21.196 -18.811  0.00  0.00    +0.052 C 
ATOM      2  C   UNL     1      35.562 -22.789 -16.571  0.00  0.00    +0.145 C 
ATOM      3  C   UNL     1      36.985 -21.262 -17.786  0.00  0.00    +0.018 C 
ATOM      4  C   UNL     1      34.857 -21.927 -18.715  0.00  0.00    +0.018 C 
ATOM      5  C   UNL     1      36.746 -22.058 -16.667  0.00  0.00    +0.039 C 
ATOM      6  C   UNL     1      34.616 -22.724 -17.595  0.00  0.00    +0.039 C 
ENDROOT
BRANCH   1   9
ATOM      7  O   UNL     1      34.216 -19.347 -20.284  0.00  0.00    -0.252 OA
ATOM      8  N   UNL     1      36.031 -18.904 -21.698  0.00  0.00    -0.268 N 
ATOM      9  N   UNL     1      36.284 -20.387 -19.946  0.00  0.00    -0.268 N 
ATOM     10  C   UNL     1      35.387 -19.531 -20.604  0.00  0.00    +0.308 C 
ATOM     11  H   UNL     1      36.975 -19.148 -21.835  0.00  0.00    +0.156 HD
ATOM     12  H   UNL     1      37.193 -20.430 -20.320  0.00  0.00    +0.156 HD
BRANCH   8  14
ATOM     13 CL   UNL     1      33.806 -15.043 -25.581  0.00  0.00    -0.082 Cl
ATOM     14  C   UNL     1      35.506 -17.986 -22.608  0.00  0.00    +0.052 C 
ATOM     15  C   UNL     1      34.778 -15.743 -23.133  0.00  0.00    +0.083 C 
ATOM     16  C   UNL     1      35.303 -16.660 -22.223  0.00  0.00    +0.019 C 
ATOM     17  C   UNL     1      35.184 -18.394 -23.903  0.00  0.00    +0.016 C 
ATOM     18  C   UNL     1      34.457 -16.150 -24.428  0.00  0.00    +0.062 C 
ATOM     19  C   UNL     1      34.660 -17.476 -24.813  0.00  0.00    +0.013 C 
BRANCH  15  23
ATOM     20  F   UNL     1      35.250 -13.417 -23.437  0.00  0.00    -0.166 F 
ATOM     21  F   UNL     1      33.271 -13.932 -22.716  0.00  0.00    -0.166 F 
ATOM     22  F   UNL     1      34.991 -14.130 -21.399  0.00  0.00    -0.166 F 
ATOM     23  C   UNL     1      34.576 -14.332 -22.682  0.00  0.00    +0.419 C 
ENDBRANCH  15  23
ENDBRANCH   8  14
ENDBRANCH   1   9
BRANCH   2  24
ATOM     24  O   UNL     1      35.326 -23.565 -15.477  0.00  0.00    -0.453 OA
BRANCH  24  26
ATOM     25  N   UNL     1      38.552 -24.382 -12.947  0.00  0.00    -0.239 NA
ATOM     26  C   UNL     1      36.394 -23.837 -14.639  0.00  0.00    +0.149 C 
ATOM     27  C   UNL     1      37.312 -24.826 -14.975  0.00  0.00    +0.061 C 
ATOM     28  C   UNL     1      38.364 -25.058 -14.104  0.00  0.00    +0.137 C 
ATOM     29  C   UNL     1      36.554 -23.119 -13.459  0.00  0.00    +0.058 C 
ATOM     30  C   UNL     1      37.639 -23.428 -12.654  0.00  0.00    +0.102 C 
BRANCH  28  33
ATOM     31  O   UNL     1      40.236 -26.366 -13.575  0.00  0.00    -0.269 OA
ATOM     32  N   UNL     1      39.243 -26.729 -15.639  0.00  0.00    -0.313 N 
ATOM     33  C   UNL     1      39.352 -26.080 -14.403  0.00  0.00    +0.263 C 
ATOM     34  H   UNL     1      38.520 -26.454 -16.247  0.00  0.00    +0.149 HD
ATOM     35  C   UNL     1      40.134 -27.781 -16.071  0.00  0.00    +0.128 C 
ENDBRANCH  28  33
ENDBRANCH  24  26
ENDBRANCH   2  24
TORSDOF 6
ENDMDL
MODEL 5
REMARK VINA RESULT:     -11.6      1.704      2.318
REMARK  Name = 25191001
REMARK  7 active torsions:
REMARK  status: ('A' for Active; 'I' for Inactive)
REMARK    1  A    between atoms: C_1  and  N_9
REMARK    2  A    between atoms: C_2  and  O_24
REMARK    3  A    between atoms: N_8  and  C_14
REMARK    4  A    between atoms: C_15  and  C_23
REMARK    5  A    between atoms: O_24  and  C_26
REMARK    6  A    between atoms: C_28  and  C_33
REMARK    7  A    between atoms: N_32  and  C_35
REMARK                            x       y       z     vdW  Elec       q    Type
REMARK                         _______ _______ _______ _____ _____    ______ ____
ROOT
ATOM      1  C   UNL     1      34.917 -15.629 -23.356  0.00  0.00    +0.052 C 
ATOM      2  C   UNL     1      35.584 -18.207 -22.523  0.00  0.00    +0.145 C 
ATOM      3  C   UNL     1      35.248 -15.867 -22.022  0.00  0.00    +0.018 C 
ATOM      4  C   UNL     1      34.920 -16.679 -24.273  0.00  0.00    +0.018 C 
ATOM      5  C   UNL     1      35.582 -17.156 -21.605  0.00  0.00    +0.039 C 
ATOM      6  C   UNL     1      35.254 -17.969 -23.857  0.00  0.00    +0.039 C 
ENDROOT
BRANCH   1   9
ATOM      7  O   UNL     1      34.276 -13.192 -21.752  0.00  0.00    -0.252 OA
ATOM      8  N   UNL     1      33.993 -12.088 -23.798  0.00  0.00    -0.268 N 
ATOM      9  N   UNL     1      34.577 -14.322 -23.778  0.00  0.00    -0.268 N 
ATOM     10  C   UNL     1      34.283 -13.206 -22.979  0.00  0.00    +0.308 C 
ATOM     11  H   UNL     1      34.037 -12.247 -24.769  0.00  0.00    +0.156 HD
ATOM     12  H   UNL     1      34.543 -14.178 -24.751  0.00  0.00    +0.156 HD
BRANCH   8  14
ATOM     13 CL   UNL     1      32.523  -6.606 -22.147  0.00  0.00    -0.082 Cl
ATOM     14  C   UNL     1      33.653 -10.790 -23.413  0.00  0.00    +0.052 C 
ATOM     15  C   UNL     1      34.087  -8.414 -23.454  0.00  0.00    +0.083 C 
ATOM     16  C   UNL     1      34.427  -9.711 -23.840  0.00  0.00    +0.019 C 
ATOM     17  C   UNL     1      32.540 -10.573 -22.601  0.00  0.00    +0.016 C 
ATOM     18  C   UNL     1      32.974  -8.196 -22.643  0.00  0.00    +0.062 C 
ATOM     19  C   UNL     1      32.200  -9.277 -22.216  0.00  0.00    +0.013 C 
BRANCH  15  23
ATOM     20  F   UNL     1      35.719  -6.737 -22.954  0.00  0.00    -0.166 F 
ATOM     21  F   UNL     1      35.810  -7.642 -24.923  0.00  0.00    -0.166 F 
ATOM     22  F   UNL     1      34.207  -6.254 -24.440  0.00  0.00    -0.166 F 
ATOM     23  C   UNL     1      34.942  -7.285 -23.933  0.00  0.00    +0.419 C 
ENDBRANCH  15  23
ENDBRANCH   8  14
ENDBRANCH   1   9
BRANCH   2  24
ATOM     24  O   UNL     1      35.908 -19.465 -22.116  0.00  0.00    -0.453 OA
BRANCH  24  26
ATOM     25  N   UNL     1      33.644 -21.149 -19.032  0.00  0.00    -0.239 NA
ATOM     26  C   UNL     1      35.159 -20.024 -21.095  0.00  0.00    +0.149 C 
ATOM     27  C   UNL     1      35.789 -20.686 -20.047  0.00  0.00    +0.061 C 
ATOM     28  C   UNL     1      34.994 -21.226 -19.049  0.00  0.00    +0.137 C 
ATOM     29  C   UNL     1      33.772 -19.923 -21.113  0.00  0.00    +0.058 C 
ATOM     30  C   UNL     1      33.066 -20.498 -20.067  0.00  0.00    +0.102 C 
BRANCH  28  33
ATOM     31  O   UNL     1      34.988 -22.852 -17.361  0.00  0.00    -0.269 OA
ATOM     32  N   UNL     1      36.887 -21.535 -17.552  0.00  0.00    -0.313 N 
ATOM     33  C   UNL     1      35.598 -21.929 -17.931  0.00  0.00    +0.263 C 
ATOM     34  H   UNL     1      37.312 -20.797 -18.045  0.00  0.00    +0.149 HD
ATOM     35  C   UNL     1      37.629 -22.152 -16.477  0.00  0.00    +0.128 C 
ENDBRANCH  28  33
ENDBRANCH  24  26
ENDBRANCH   2  24
TORSDOF 6
ENDMDL
MODEL 6
REMARK VINA RESULT:     -11.5      2.376      3.432
REMARK  Name = 25191001
REMARK  7 active torsions:
REMARK  status: ('A' for Active; 'I' for Inactive)
REMARK    1  A    between atoms: C_1  and  N_9
REMARK    2  A    between atoms: C_2  and  O_24
REMARK    3  A    between atoms: N_8  and  C_14
REMARK    4  A    between atoms: C_15  and  C_23
REMARK    5  A    between atoms: O_24  and  C_26
REMARK    6  A    between atoms: C_28  and  C_33
REMARK    7  A    between atoms: N_32  and  C_35
REMARK                            x       y       z     vdW  Elec       q    Type
REMARK                         _______ _______ _______ _____ _____    ______ ____
ROOT
ATOM      1  C   UNL     1      33.818 -13.810 -22.930  0.00  0.00    +0.052 C 
ATOM      2  C   UNL     1      35.084 -16.260 -23.350  0.00  0.00    +0.145 C 
ATOM      3  C   UNL     1      34.541 -14.408 -21.897  0.00  0.00    +0.018 C 
ATOM      4  C   UNL     1      33.728 -14.437 -24.172  0.00  0.00    +0.018 C 
ATOM      5  C   UNL     1      35.174 -15.633 -22.108  0.00  0.00    +0.039 C 
ATOM      6  C   UNL     1      34.361 -15.663 -24.383  0.00  0.00    +0.039 C 
ENDROOT
BRANCH   1   9
ATOM      7  O   UNL     1      34.482 -11.091 -23.973  0.00  0.00    -0.252 OA
ATOM      8  N   UNL     1      32.621 -10.327 -22.772  0.00  0.00    -0.268 N 
ATOM      9  N   UNL     1      33.174 -12.568 -22.716  0.00  0.00    -0.268 N 
ATOM     10  C   UNL     1      33.528 -11.312 -23.232  0.00  0.00    +0.308 C 
ATOM     11  H   UNL     1      31.903 -10.651 -22.181  0.00  0.00    +0.156 HD
ATOM     12  H   UNL     1      32.382 -12.588 -22.133  0.00  0.00    +0.156 HD
BRANCH   8  14
ATOM     13 CL   UNL     1      32.530  -4.530 -23.919  0.00  0.00    -0.082 Cl
ATOM     14  C   UNL     1      32.609  -8.958 -23.044  0.00  0.00    +0.052 C 
ATOM     15  C   UNL     1      33.763  -6.954 -23.741  0.00  0.00    +0.083 C 
ATOM     16  C   UNL     1      33.775  -8.321 -23.468  0.00  0.00    +0.019 C 
ATOM     17  C   UNL     1      31.430  -8.228 -22.893  0.00  0.00    +0.016 C 
ATOM     18  C   UNL     1      32.584  -6.222 -23.591  0.00  0.00    +0.062 C 
ATOM     19  C   UNL     1      31.417  -6.861 -23.166  0.00  0.00    +0.013 C 
BRANCH  15  23
ATOM     20  F   UNL     1      34.937  -4.954 -24.329  0.00  0.00    -0.166 F 
ATOM     21  F   UNL     1      36.079  -6.510 -23.340  0.00  0.00    -0.166 F 
ATOM     22  F   UNL     1      35.451  -6.772 -25.405  0.00  0.00    -0.166 F 
ATOM     23  C   UNL     1      35.033  -6.308 -24.193  0.00  0.00    +0.419 C 
ENDBRANCH  15  23
ENDBRANCH   8  14
ENDBRANCH   1   9
BRANCH   2  24
ATOM     24  O   UNL     1      35.700 -17.457 -23.556  0.00  0.00    -0.453 OA
BRANCH  24  26
ATOM     25  N   UNL     1      36.424 -19.870 -20.220  0.00  0.00    -0.239 NA
ATOM     26  C   UNL     1      35.939 -18.256 -22.450  0.00  0.00    +0.149 C 
ATOM     27  C   UNL     1      34.896 -18.959 -21.857  0.00  0.00    +0.061 C 
ATOM     28  C   UNL     1      35.188 -19.745 -20.754  0.00  0.00    +0.137 C 
ATOM     29  C   UNL     1      37.224 -18.360 -21.930  0.00  0.00    +0.058 C 
ATOM     30  C   UNL     1      37.413 -19.172 -20.824  0.00  0.00    +0.102 C 
BRANCH  28  33
ATOM     31  O   UNL     1      32.941 -20.285 -20.360  0.00  0.00    -0.269 OA
ATOM     32  N   UNL     1      34.538 -21.483 -19.180  0.00  0.00    -0.313 N 
ATOM     33  C   UNL     1      34.138 -20.501 -20.094  0.00  0.00    +0.263 C 
ATOM     34  H   UNL     1      35.501 -21.602 -19.017  0.00  0.00    +0.149 HD
ATOM     35  C   UNL     1      33.615 -22.332 -18.463  0.00  0.00    +0.128 C 
ENDBRANCH  28  33
ENDBRANCH  24  26
ENDBRANCH   2  24
TORSDOF 6
ENDMDL
MODEL 7
REMARK VINA RESULT:     -11.5      2.090      3.130
REMARK  Name = 25191001
REMARK  7 active torsions:
REMARK  status: ('A' for Active; 'I' for Inactive)
REMARK    1  A    between atoms: C_1  and  N_9
REMARK    2  A    between atoms: C_2  and  O_24
REMARK    3  A    between atoms: N_8  and  C_14
REMARK    4  A    between atoms: C_15  and  C_23
REMARK    5  A    between atoms: O_24  and  C_26
REMARK    6  A    between atoms: C_28  and  C_33
REMARK    7  A    between atoms: N_32  and  C_35
REMARK                            x       y       z     vdW  Elec       q    Type
REMARK                         _______ _______ _______ _____ _____    ______ ____
ROOT
ATOM      1  C   UNL     1      34.262 -13.639 -24.182  0.00  0.00    +0.052 C 
ATOM      2  C   UNL     1      34.560 -16.412 -24.098  0.00  0.00    +0.145 C 
ATOM      3  C   UNL     1      35.019 -14.229 -23.170  0.00  0.00    +0.018 C 
ATOM      4  C   UNL     1      33.653 -14.436 -25.152  0.00  0.00    +0.018 C 
ATOM      5  C   UNL     1      35.169 -15.615 -23.128  0.00  0.00    +0.039 C 
ATOM      6  C   UNL     1      33.802 -15.823 -25.111  0.00  0.00    +0.039 C 
ENDROOT
BRANCH   1   9
ATOM      7  O   UNL     1      32.627 -11.828 -22.459  0.00  0.00    -0.252 OA
ATOM      8  N   UNL     1      33.451 -10.067 -23.767  0.00  0.00    -0.268 N 
ATOM      9  N   UNL     1      34.109 -12.233 -24.223  0.00  0.00    -0.268 N 
ATOM     10  C   UNL     1      33.323 -11.425 -23.386  0.00  0.00    +0.308 C 
ATOM     11  H   UNL     1      34.046  -9.892 -24.531  0.00  0.00    +0.156 HD
ATOM     12  H   UNL     1      34.615 -11.765 -24.925  0.00  0.00    +0.156 HD
BRANCH   8  14
ATOM     13 CL   UNL     1      30.874  -5.298 -21.411  0.00  0.00    -0.082 Cl
ATOM     14  C   UNL     1      32.845  -8.944 -23.202  0.00  0.00    +0.052 C 
ATOM     15  C   UNL     1      32.359  -7.579 -21.270  0.00  0.00    +0.083 C 
ATOM     16  C   UNL     1      32.964  -8.702 -21.833  0.00  0.00    +0.019 C 
ATOM     17  C   UNL     1      32.122  -8.064 -24.007  0.00  0.00    +0.016 C 
ATOM     18  C   UNL     1      31.636  -6.697 -22.073  0.00  0.00    +0.062 C 
ATOM     19  C   UNL     1      31.517  -6.941 -23.443  0.00  0.00    +0.013 C 
BRANCH  15  23
ATOM     20  F   UNL     1      33.214  -6.227 -19.490  0.00  0.00    -0.166 F 
ATOM     21  F   UNL     1      31.320  -7.224 -19.144  0.00  0.00    -0.166 F 
ATOM     22  F   UNL     1      33.162  -8.378 -19.180  0.00  0.00    -0.166 F 
ATOM     23  C   UNL     1      32.510  -7.354 -19.799  0.00  0.00    +0.419 C 
ENDBRANCH  15  23
ENDBRANCH   8  14
ENDBRANCH   1   9
BRANCH   2  24
ATOM     24  O   UNL     1      34.704 -17.765 -24.057  0.00  0.00    -0.453 OA
BRANCH  24  26
ATOM     25  N   UNL     1      36.050 -19.469 -20.485  0.00  0.00    -0.239 NA
ATOM     26  C   UNL     1      35.149 -18.329 -22.873  0.00  0.00    +0.149 C 
ATOM     27  C   UNL     1      34.292 -19.109 -22.105  0.00  0.00    +0.061 C 
ATOM     28  C   UNL     1      34.786 -19.652 -20.930  0.00  0.00    +0.137 C 
ATOM     29  C   UNL     1      36.456 -18.118 -22.449  0.00  0.00    +0.058 C 
ATOM     30  C   UNL     1      36.854 -18.704 -21.257  0.00  0.00    +0.102 C 
BRANCH  28  33
ATOM     31  O   UNL     1      32.696 -20.401 -20.177  0.00  0.00    -0.269 OA
ATOM     32  N   UNL     1      34.573 -21.357 -19.206  0.00  0.00    -0.313 N 
ATOM     33  C   UNL     1      33.936 -20.476 -20.088  0.00  0.00    +0.263 C 
ATOM     34  H   UNL     1      35.557 -21.364 -19.187  0.00  0.00    +0.149 HD
ATOM     35  C   UNL     1      33.866 -22.256 -18.324  0.00  0.00    +0.128 C 
ENDBRANCH  28  33
ENDBRANCH  24  26
ENDBRANCH   2  24
TORSDOF 6
ENDMDL
MODEL 8
REMARK VINA RESULT:     -11.5      2.210      3.255
REMARK  Name = 25191001
REMARK  7 active torsions:
REMARK  status: ('A' for Active; 'I' for Inactive)
REMARK    1  A    between atoms: C_1  and  N_9
REMARK    2  A    between atoms: C_2  and  O_24
REMARK    3  A    between atoms: N_8  and  C_14
REMARK    4  A    between atoms: C_15  and  C_23
REMARK    5  A    between atoms: O_24  and  C_26
REMARK    6  A    between atoms: C_28  and  C_33
REMARK    7  A    between atoms: N_32  and  C_35
REMARK                            x       y       z     vdW  Elec       q    Type
REMARK                         _______ _______ _______ _____ _____    ______ ____
ROOT
ATOM      1  C   UNL     1      34.270 -13.523 -24.054  0.00  0.00    +0.052 C 
ATOM      2  C   UNL     1      34.513 -16.303 -24.043  0.00  0.00    +0.145 C 
ATOM      3  C   UNL     1      33.719 -14.276 -25.091  0.00  0.00    +0.018 C 
ATOM      4  C   UNL     1      34.943 -14.160 -23.012  0.00  0.00    +0.018 C 
ATOM      5  C   UNL     1      33.840 -15.665 -25.086  0.00  0.00    +0.039 C 
ATOM      6  C   UNL     1      35.064 -15.551 -23.006  0.00  0.00    +0.039 C 
ENDROOT
BRANCH   1   9
ATOM      7  O   UNL     1      32.700 -11.716 -22.267  0.00  0.00    -0.252 OA
ATOM      8  N   UNL     1      33.546  -9.944 -23.546  0.00  0.00    -0.268 N 
ATOM      9  N   UNL     1      34.148 -12.114 -24.061  0.00  0.00    -0.268 N 
ATOM     10  C   UNL     1      33.393 -11.308 -23.194  0.00  0.00    +0.308 C 
ATOM     11  H   UNL     1      34.135  -9.765 -24.314  0.00  0.00    +0.156 HD
ATOM     12  H   UNL     1      34.655 -11.640 -24.759  0.00  0.00    +0.156 HD
BRANCH   8  14
ATOM     13 CL   UNL     1      31.116  -5.208 -20.977  0.00  0.00    -0.082 Cl
ATOM     14  C   UNL     1      32.974  -8.821 -22.947  0.00  0.00    +0.052 C 
ATOM     15  C   UNL     1      32.295  -6.506 -23.063  0.00  0.00    +0.083 C 
ATOM     16  C   UNL     1      32.867  -7.628 -23.662  0.00  0.00    +0.019 C 
ATOM     17  C   UNL     1      32.510  -8.892 -21.634  0.00  0.00    +0.016 C 
ATOM     18  C   UNL     1      31.829  -6.576 -21.750  0.00  0.00    +0.062 C 
ATOM     19  C   UNL     1      31.938  -7.770 -21.035  0.00  0.00    +0.013 C 
BRANCH  15  23
ATOM     20  F   UNL     1      32.588  -5.395 -25.162  0.00  0.00    -0.166 F 
ATOM     21  F   UNL     1      30.932  -4.739 -23.925  0.00  0.00    -0.166 F 
ATOM     22  F   UNL     1      32.972  -4.246 -23.356  0.00  0.00    -0.166 F 
ATOM     23  C   UNL     1      32.198  -5.247 -23.863  0.00  0.00    +0.419 C 
ENDBRANCH  15  23
ENDBRANCH   8  14
ENDBRANCH   1   9
BRANCH   2  24
ATOM     24  O   UNL     1      34.633 -17.659 -24.039  0.00  0.00    -0.453 OA
BRANCH  24  26
ATOM     25  N   UNL     1      36.048 -19.473 -20.548  0.00  0.00    -0.239 NA
ATOM     26  C   UNL     1      35.101 -18.259 -22.882  0.00  0.00    +0.149 C 
ATOM     27  C   UNL     1      34.251 -19.041 -22.108  0.00  0.00    +0.061 C 
ATOM     28  C   UNL     1      34.768 -19.621 -20.961  0.00  0.00    +0.137 C 
ATOM     29  C   UNL     1      36.424 -18.083 -22.491  0.00  0.00    +0.058 C 
ATOM     30  C   UNL     1      36.844 -18.705 -21.326  0.00  0.00    +0.102 C 
BRANCH  28  33
ATOM     31  O   UNL     1      32.686 -20.362 -20.179  0.00  0.00    -0.269 OA
ATOM     32  N   UNL     1      34.572 -21.347 -19.256  0.00  0.00    -0.313 N 
ATOM     33  C   UNL     1      33.926 -20.448 -20.114  0.00  0.00    +0.263 C 
ATOM     34  H   UNL     1      35.556 -21.363 -19.255  0.00  0.00    +0.149 HD
ATOM     35  C   UNL     1      33.873 -22.251 -18.372  0.00  0.00    +0.128 C 
ENDBRANCH  28  33
ENDBRANCH  24  26
ENDBRANCH   2  24
TORSDOF 6
ENDMDL
MODEL 9
REMARK VINA RESULT:     -11.5      6.617     11.978
REMARK  Name = 25191001
REMARK  7 active torsions:
REMARK  status: ('A' for Active; 'I' for Inactive)
REMARK    1  A    between atoms: C_1  and  N_9
REMARK    2  A    between atoms: C_2  and  O_24
REMARK    3  A    between atoms: N_8  and  C_14
REMARK    4  A    between atoms: C_15  and  C_23
REMARK    5  A    between atoms: O_24  and  C_26
REMARK    6  A    between atoms: C_28  and  C_33
REMARK    7  A    between atoms: N_32  and  C_35
REMARK                            x       y       z     vdW  Elec       q    Type
REMARK                         _______ _______ _______ _____ _____    ______ ____
ROOT
ATOM      1  C   UNL     1      35.499 -20.514 -20.028  0.00  0.00    +0.052 C 
ATOM      2  C   UNL     1      35.915 -18.849 -22.228  0.00  0.00    +0.145 C 
ATOM      3  C   UNL     1      36.759 -19.961 -20.257  0.00  0.00    +0.018 C 
ATOM      4  C   UNL     1      34.447 -20.234 -20.901  0.00  0.00    +0.018 C 
ATOM      5  C   UNL     1      36.967 -19.128 -21.356  0.00  0.00    +0.039 C 
ATOM      6  C   UNL     1      34.655 -19.401 -22.001  0.00  0.00    +0.039 C 
ENDROOT
BRANCH   1   9
ATOM      7  O   UNL     1      32.968 -21.269 -18.634  0.00  0.00    -0.252 OA
ATOM      8  N   UNL     1      34.302 -22.564 -17.208  0.00  0.00    -0.268 N 
ATOM      9  N   UNL     1      35.289 -21.359 -18.914  0.00  0.00    -0.268 N 
ATOM     10  C   UNL     1      34.072 -21.683 -18.293  0.00  0.00    +0.308 C 
ATOM     11  H   UNL     1      35.242 -22.812 -17.052  0.00  0.00    +0.156 HD
ATOM     12  H   UNL     1      36.094 -21.771 -18.527  0.00  0.00    +0.156 HD
BRANCH   8  14
ATOM     13 CL   UNL     1      30.400 -24.968 -13.477  0.00  0.00    -0.082 Cl
ATOM     14  C   UNL     1      33.374 -23.128 -16.332  0.00  0.00    +0.052 C 
ATOM     15  C   UNL     1      31.082 -23.475 -15.651  0.00  0.00    +0.083 C 
ATOM     16  C   UNL     1      32.010 -22.911 -16.528  0.00  0.00    +0.019 C 
ATOM     17  C   UNL     1      33.811 -23.907 -15.261  0.00  0.00    +0.016 C 
ATOM     18  C   UNL     1      31.518 -24.255 -14.580  0.00  0.00    +0.062 C 
ATOM     19  C   UNL     1      32.883 -24.471 -14.385  0.00  0.00    +0.013 C 
BRANCH  15  23
ATOM     20  F   UNL     1      28.998 -22.622 -14.844  0.00  0.00    -0.166 F 
ATOM     21  F   UNL     1      29.393 -22.406 -16.965  0.00  0.00    -0.166 F 
ATOM     22  F   UNL     1      28.933 -24.365 -16.141  0.00  0.00    -0.166 F 
ATOM     23  C   UNL     1      29.630 -23.220 -15.895  0.00  0.00    +0.419 C 
ENDBRANCH  15  23
ENDBRANCH   8  14
ENDBRANCH   1   9
BRANCH   2  24
ATOM     24  O   UNL     1      36.118 -18.038 -23.303  0.00  0.00    -0.453 OA
BRANCH  24  26
ATOM     25  N   UNL     1      34.140 -14.356 -23.354  0.00  0.00    -0.239 NA
ATOM     26  C   UNL     1      35.464 -16.818 -23.321  0.00  0.00    +0.149 C 
ATOM     27  C   UNL     1      34.838 -16.378 -24.482  0.00  0.00    +0.061 C 
ATOM     28  C   UNL     1      34.195 -15.151 -24.447  0.00  0.00    +0.137 C 
ATOM     29  C   UNL     1      35.429 -16.029 -22.177  0.00  0.00    +0.058 C 
ATOM     30  C   UNL     1      34.761 -14.816 -22.245  0.00  0.00    +0.102 C 
BRANCH  28  33
ATOM     31  O   UNL     1      32.825 -15.393 -26.334  0.00  0.00    -0.269 OA
ATOM     32  N   UNL     1      33.684 -13.280 -25.917  0.00  0.00    -0.313 N 
ATOM     33  C   UNL     1      33.525 -14.641 -25.631  0.00  0.00    +0.263 C 
ATOM     34  H   UNL     1      34.251 -12.742 -25.319  0.00  0.00    +0.149 HD
ATOM     35  C   UNL     1      33.062 -12.621 -27.042  0.00  0.00    +0.128 C 
ENDBRANCH  28  33
ENDBRANCH  24  26
ENDBRANCH   2  24
TORSDOF 6
ENDMDL
