MODEL 1
REMARK VINA RESULT:     -12.4      0.000      0.000
REMARK  Name = 9998128
REMARK  2 active torsions:
REMARK  status: ('A' for Active; 'I' for Inactive)
REMARK    1  A    between atoms: N_1  and  C_15
REMARK    2  A    between atoms: C_7  and  C_24
REMARK                            x       y       z     vdW  Elec       q    Type
REMARK                         _______ _______ _______ _____ _____    ______ ____
ROOT
ATOM      1  N   UNL     1      35.122 -25.289 -14.409  0.00  0.00    -0.290 N 
ATOM      2  N   UNL     1      34.814 -23.709 -16.125  0.00  0.00    -0.327 NA
ATOM      3  N   UNL     1      32.683 -22.626 -16.430  0.00  0.00    -0.342 NA
ATOM      4  C   UNL     1      32.956 -24.231 -14.669  0.00  0.00    +0.143 C 
ATOM      5  C   UNL     1      34.275 -24.382 -15.091  0.00  0.00    +0.184 C 
ATOM      6  C   UNL     1      32.176 -23.314 -15.392  0.00  0.00    +0.133 C 
ATOM      7  C   UNL     1      33.974 -22.861 -16.740  0.00  0.00    +0.165 C 
ATOM      8  C   UNL     1      32.415 -24.945 -13.586  0.00  0.00    -0.011 C 
ATOM      9  C   UNL     1      30.851 -23.136 -15.000  0.00  0.00    +0.029 C 
ATOM     10  C   UNL     1      31.089 -24.748 -13.216  0.00  0.00    -0.004 C 
ATOM     11  C   UNL     1      30.306 -23.842 -13.924  0.00  0.00    +0.002 C 
ATOM     12  H   UNL     1      34.648 -26.058 -14.017  0.00  0.00    +0.154 HD
ENDROOT
BRANCH   1  15
ATOM     13  N   UNL     1      40.582 -25.556 -13.730  0.00  0.00    -0.236 N 
ATOM     14  N   UNL     1      40.974 -26.491 -14.612  0.00  0.00    -0.180 NA
ATOM     15  C   UNL     1      36.508 -25.305 -14.185  0.00  0.00    +0.050 C 
ATOM     16  C   UNL     1      38.709 -26.177 -14.686  0.00  0.00    +0.037 C 
ATOM     17  C   UNL     1      39.234 -25.321 -13.725  0.00  0.00    +0.067 C 
ATOM     18  C   UNL     1      37.324 -26.175 -14.926  0.00  0.00    +0.018 C 
ATOM     19  C   UNL     1      37.070 -24.456 -13.223  0.00  0.00    +0.016 C 
ATOM     20  C   UNL     1      38.447 -24.445 -12.973  0.00  0.00    +0.017 C 
ATOM     21  C   UNL     1      39.831 -26.866 -15.192  0.00  0.00    +0.119 C 
ATOM     22  H   UNL     1      41.211 -25.082 -13.139  0.00  0.00    +0.174 HD
ENDBRANCH   1  15
BRANCH   7  24
ATOM     23  N   UNL     1      33.588 -21.548 -18.660  0.00  0.00    -0.398 NA
ATOM     24  C   UNL     1      34.511 -22.120 -17.852  0.00  0.00    +0.197 C 
ATOM     25  C   UNL     1      35.880 -22.020 -18.053  0.00  0.00    +0.098 C 
ATOM     26  C   UNL     1      34.061 -20.846 -19.714  0.00  0.00    +0.110 C 
ATOM     27  C   UNL     1      36.328 -21.290 -19.148  0.00  0.00    -0.016 C 
ATOM     28  C   UNL     1      35.407 -20.688 -20.000  0.00  0.00    +0.023 C 
ATOM     29  C   UNL     1      33.045 -20.215 -20.606  0.00  0.00    +0.066 C 
ENDBRANCH   7  24
TORSDOF 2
ENDMDL
MODEL 2
REMARK VINA RESULT:     -12.4      1.460      2.254
REMARK  Name = 9998128
REMARK  2 active torsions:
REMARK  status: ('A' for Active; 'I' for Inactive)
REMARK    1  A    between atoms: N_1  and  C_15
REMARK    2  A    between atoms: C_7  and  C_24
REMARK                            x       y       z     vdW  Elec       q    Type
REMARK                         _______ _______ _______ _____ _____    ______ ____
ROOT
ATOM      1  N   UNL     1      33.921 -24.735 -14.435  0.00  0.00    -0.290 N 
ATOM      2  N   UNL     1      33.891 -23.336 -16.327  0.00  0.00    -0.327 NA
ATOM      3  N   UNL     1      31.811 -22.485 -17.194  0.00  0.00    -0.342 NA
ATOM      4  C   UNL     1      31.797 -23.907 -15.264  0.00  0.00    +0.143 C 
ATOM      5  C   UNL     1      33.184 -23.969 -15.372  0.00  0.00    +0.184 C 
ATOM      6  C   UNL     1      31.135 -23.129 -16.227  0.00  0.00    +0.133 C 
ATOM      7  C   UNL     1      33.152 -22.623 -17.192  0.00  0.00    +0.165 C 
ATOM      8  C   UNL     1      31.080 -24.578 -14.257  0.00  0.00    -0.011 C 
ATOM      9  C   UNL     1      29.747 -23.044 -16.151  0.00  0.00    +0.029 C 
ATOM     10  C   UNL     1      29.694 -24.475 -14.205  0.00  0.00    -0.004 C 
ATOM     11  C   UNL     1      29.026 -23.707 -15.154  0.00  0.00    +0.002 C 
ATOM     12  H   UNL     1      33.428 -25.510 -14.079  0.00  0.00    +0.154 HD
ENDROOT
BRANCH   1  15
ATOM     13  N   UNL     1      38.912 -24.014 -12.219  0.00  0.00    -0.236 N 
ATOM     14  N   UNL     1      38.721 -23.060 -11.292  0.00  0.00    -0.180 NA
ATOM     15  C   UNL     1      35.218 -24.603 -13.915  0.00  0.00    +0.050 C 
ATOM     16  C   UNL     1      36.772 -23.559 -12.382  0.00  0.00    +0.037 C 
ATOM     17  C   UNL     1      37.781 -24.359 -12.908  0.00  0.00    +0.067 C 
ATOM     18  C   UNL     1      35.467 -23.677 -12.888  0.00  0.00    +0.018 C 
ATOM     19  C   UNL     1      36.258 -25.392 -14.422  0.00  0.00    +0.016 C 
ATOM     20  C   UNL     1      37.563 -25.288 -13.929  0.00  0.00    +0.017 C 
ATOM     21  C   UNL     1      37.418 -22.786 -11.394  0.00  0.00    +0.119 C 
ATOM     22  H   UNL     1      39.789 -24.428 -12.386  0.00  0.00    +0.174 HD
ENDBRANCH   1  15
BRANCH   7  24
ATOM     23  N   UNL     1      33.099 -21.214 -19.080  0.00  0.00    -0.398 NA
ATOM     24  C   UNL     1      33.869 -21.930 -18.229  0.00  0.00    +0.197 C 
ATOM     25  C   UNL     1      35.252 -22.011 -18.324  0.00  0.00    +0.098 C 
ATOM     26  C   UNL     1      33.743 -20.551 -20.067  0.00  0.00    +0.110 C 
ATOM     27  C   UNL     1      35.879 -21.317 -19.352  0.00  0.00    -0.016 C 
ATOM     28  C   UNL     1      35.117 -20.570 -20.245  0.00  0.00    +0.023 C 
ATOM     29  C   UNL     1      32.895 -19.761 -21.006  0.00  0.00    +0.066 C 
ENDBRANCH   7  24
TORSDOF 2
ENDMDL
MODEL 3
REMARK VINA RESULT:     -12.4      1.839      5.083
REMARK  Name = 9998128
REMARK  2 active torsions:
REMARK  status: ('A' for Active; 'I' for Inactive)
REMARK    1  A    between atoms: N_1  and  C_15
REMARK    2  A    between atoms: C_7  and  C_24
REMARK                            x       y       z     vdW  Elec       q    Type
REMARK                         _______ _______ _______ _____ _____    ______ ____
ROOT
ATOM      1  N   UNL     1      35.993 -22.619 -16.006  0.00  0.00    -0.290 N 
ATOM      2  N   UNL     1      33.655 -22.850 -16.132  0.00  0.00    -0.327 NA
ATOM      3  N   UNL     1      32.450 -22.118 -18.086  0.00  0.00    -0.342 NA
ATOM      4  C   UNL     1      34.833 -21.864 -17.998  0.00  0.00    +0.143 C 
ATOM      5  C   UNL     1      34.788 -22.440 -16.731  0.00  0.00    +0.184 C 
ATOM      6  C   UNL     1      33.601 -21.720 -18.656  0.00  0.00    +0.133 C 
ATOM      7  C   UNL     1      32.539 -22.662 -16.855  0.00  0.00    +0.165 C 
ATOM      8  C   UNL     1      36.030 -21.443 -18.603  0.00  0.00    -0.011 C 
ATOM      9  C   UNL     1      33.605 -21.147 -19.926  0.00  0.00    +0.029 C 
ATOM     10  C   UNL     1      36.006 -20.875 -19.872  0.00  0.00    -0.004 C 
ATOM     11  C   UNL     1      34.792 -20.726 -20.535  0.00  0.00    +0.002 C 
ATOM     12  H   UNL     1      36.682 -21.944 -16.208  0.00  0.00    +0.154 HD
ENDROOT
BRANCH   1  15
ATOM     13  N   UNL     1      37.646 -26.136 -12.103  0.00  0.00    -0.236 N 
ATOM     14  N   UNL     1      38.083 -25.341 -11.112  0.00  0.00    -0.180 NA
ATOM     15  C   UNL     1      36.394 -23.570 -15.055  0.00  0.00    +0.050 C 
ATOM     16  C   UNL     1      37.326 -24.114 -12.890  0.00  0.00    +0.037 C 
ATOM     17  C   UNL     1      37.179 -25.462 -13.198  0.00  0.00    +0.067 C 
ATOM     18  C   UNL     1      36.930 -23.146 -13.828  0.00  0.00    +0.018 C 
ATOM     19  C   UNL     1      36.261 -24.937 -15.334  0.00  0.00    +0.016 C 
ATOM     20  C   UNL     1      36.650 -25.912 -14.411  0.00  0.00    +0.017 C 
ATOM     21  C   UNL     1      37.886 -24.111 -11.595  0.00  0.00    +0.119 C 
ATOM     22  H   UNL     1      37.661 -27.119 -12.045  0.00  0.00    +0.174 HD
ENDBRANCH   1  15
BRANCH   7  24
ATOM     23  N   UNL     1      30.188 -22.525 -16.772  0.00  0.00    -0.398 NA
ATOM     24  C   UNL     1      31.303 -23.086 -16.252  0.00  0.00    +0.197 C 
ATOM     25  C   UNL     1      31.291 -24.006 -15.213  0.00  0.00    +0.098 C 
ATOM     26  C   UNL     1      29.010 -22.903 -16.226  0.00  0.00    +0.110 C 
ATOM     27  C   UNL     1      30.062 -24.370 -14.677  0.00  0.00    -0.016 C 
ATOM     28  C   UNL     1      28.894 -23.813 -15.188  0.00  0.00    +0.023 C 
ATOM     29  C   UNL     1      27.778 -22.285 -16.797  0.00  0.00    +0.066 C 
ENDBRANCH   7  24
TORSDOF 2
ENDMDL
MODEL 4
REMARK VINA RESULT:     -11.4      1.362      5.073
REMARK  Name = 9998128
REMARK  2 active torsions:
REMARK  status: ('A' for Active; 'I' for Inactive)
REMARK    1  A    between atoms: N_1  and  C_15
REMARK    2  A    between atoms: C_7  and  C_24
REMARK                            x       y       z     vdW  Elec       q    Type
REMARK                         _______ _______ _______ _____ _____    ______ ____
ROOT
ATOM      1  N   UNL     1      36.320 -22.497 -16.332  0.00  0.00    -0.290 N 
ATOM      2  N   UNL     1      33.994 -22.840 -16.221  0.00  0.00    -0.327 NA
ATOM      3  N   UNL     1      32.556 -22.099 -18.006  0.00  0.00    -0.342 NA
ATOM      4  C   UNL     1      34.920 -21.730 -18.158  0.00  0.00    +0.143 C 
ATOM      5  C   UNL     1      35.038 -22.352 -16.918  0.00  0.00    +0.184 C 
ATOM      6  C   UNL     1      33.620 -21.623 -18.677  0.00  0.00    +0.133 C 
ATOM      7  C   UNL     1      32.801 -22.681 -16.814  0.00  0.00    +0.165 C 
ATOM      8  C   UNL     1      36.026 -21.228 -18.867  0.00  0.00    -0.011 C 
ATOM      9  C   UNL     1      33.462 -21.006 -19.915  0.00  0.00    +0.029 C 
ATOM     10  C   UNL     1      35.840 -20.616 -20.103  0.00  0.00    -0.004 C 
ATOM     11  C   UNL     1      34.556 -20.505 -20.627  0.00  0.00    +0.002 C 
ATOM     12  H   UNL     1      36.952 -21.782 -16.577  0.00  0.00    +0.154 HD
ENDROOT
BRANCH   1  15
ATOM     13  N   UNL     1      38.711 -26.225 -13.058  0.00  0.00    -0.236 N 
ATOM     14  N   UNL     1      40.010 -26.168 -13.394  0.00  0.00    -0.180 NA
ATOM     15  C   UNL     1      36.863 -23.461 -15.468  0.00  0.00    +0.050 C 
ATOM     16  C   UNL     1      38.767 -24.693 -14.626  0.00  0.00    +0.037 C 
ATOM     17  C   UNL     1      37.911 -25.365 -13.760  0.00  0.00    +0.067 C 
ATOM     18  C   UNL     1      38.243 -23.724 -15.497  0.00  0.00    +0.018 C 
ATOM     19  C   UNL     1      36.029 -24.157 -14.584  0.00  0.00    +0.016 C 
ATOM     20  C   UNL     1      36.536 -25.125 -13.710  0.00  0.00    +0.017 C 
ATOM     21  C   UNL     1      40.041 -25.234 -14.348  0.00  0.00    +0.119 C 
ATOM     22  H   UNL     1      38.365 -26.834 -12.366  0.00  0.00    +0.174 HD
ENDBRANCH   1  15
BRANCH   7  24
ATOM     23  N   UNL     1      31.942 -23.879 -14.975  0.00  0.00    -0.398 NA
ATOM     24  C   UNL     1      31.657 -23.188 -16.103  0.00  0.00    +0.197 C 
ATOM     25  C   UNL     1      30.368 -22.968 -16.566  0.00  0.00    +0.098 C 
ATOM     26  C   UNL     1      30.888 -24.369 -14.284  0.00  0.00    +0.110 C 
ATOM     27  C   UNL     1      29.310 -23.487 -15.829  0.00  0.00    -0.016 C 
ATOM     28  C   UNL     1      29.567 -24.203 -14.664  0.00  0.00    +0.023 C 
ATOM     29  C   UNL     1      31.201 -25.132 -13.040  0.00  0.00    +0.066 C 
ENDBRANCH   7  24
TORSDOF 2
ENDMDL
MODEL 5
REMARK VINA RESULT:     -11.3      2.648      6.791
REMARK  Name = 9998128
REMARK  2 active torsions:
REMARK  status: ('A' for Active; 'I' for Inactive)
REMARK    1  A    between atoms: N_1  and  C_15
REMARK    2  A    between atoms: C_7  and  C_24
REMARK                            x       y       z     vdW  Elec       q    Type
REMARK                         _______ _______ _______ _____ _____    ______ ____
ROOT
ATOM      1  N   UNL     1      35.516 -22.708 -16.882  0.00  0.00    -0.290 N 
ATOM      2  N   UNL     1      33.496 -23.378 -15.878  0.00  0.00    -0.327 NA
ATOM      3  N   UNL     1      33.420 -23.972 -13.544  0.00  0.00    -0.342 NA
ATOM      4  C   UNL     1      35.499 -23.294 -14.529  0.00  0.00    +0.143 C 
ATOM      5  C   UNL     1      34.813 -23.140 -15.730  0.00  0.00    +0.184 C 
ATOM      6  C   UNL     1      34.737 -23.725 -13.431  0.00  0.00    +0.133 C 
ATOM      7  C   UNL     1      32.871 -23.785 -14.762  0.00  0.00    +0.165 C 
ATOM      8  C   UNL     1      36.876 -23.040 -14.399  0.00  0.00    -0.011 C 
ATOM      9  C   UNL     1      35.389 -23.891 -12.211  0.00  0.00    +0.029 C 
ATOM     10  C   UNL     1      37.502 -23.213 -13.169  0.00  0.00    -0.004 C 
ATOM     11  C   UNL     1      36.758 -23.640 -12.074  0.00  0.00    +0.002 C 
ATOM     12  H   UNL     1      36.462 -22.981 -16.896  0.00  0.00    +0.154 HD
ENDROOT
BRANCH   1  15
ATOM     13  N   UNL     1      34.256 -19.715 -21.331  0.00  0.00    -0.236 N 
ATOM     14  N   UNL     1      35.436 -19.208 -21.727  0.00  0.00    -0.180 NA
ATOM     15  C   UNL     1      35.125 -21.965 -18.007  0.00  0.00    +0.050 C 
ATOM     16  C   UNL     1      35.676 -20.515 -19.863  0.00  0.00    +0.037 C 
ATOM     17  C   UNL     1      34.332 -20.507 -20.218  0.00  0.00    +0.067 C 
ATOM     18  C   UNL     1      36.088 -21.253 -18.741  0.00  0.00    +0.018 C 
ATOM     19  C   UNL     1      33.778 -21.935 -18.392  0.00  0.00    +0.016 C 
ATOM     20  C   UNL     1      33.353 -21.206 -19.507  0.00  0.00    +0.017 C 
ATOM     21  C   UNL     1      36.298 -19.697 -20.832  0.00  0.00    +0.119 C 
ATOM     22  H   UNL     1      33.412 -19.531 -21.801  0.00  0.00    +0.174 HD
ENDBRANCH   1  15
BRANCH   7  24
ATOM     23  N   UNL     1      30.768 -23.164 -15.627  0.00  0.00    -0.398 NA
ATOM     24  C   UNL     1      31.461 -24.051 -14.876  0.00  0.00    +0.197 C 
ATOM     25  C   UNL     1      30.884 -25.146 -14.247  0.00  0.00    +0.098 C 
ATOM     26  C   UNL     1      29.440 -23.386 -15.752  0.00  0.00    +0.110 C 
ATOM     27  C   UNL     1      29.517 -25.341 -14.399  0.00  0.00    -0.016 C 
ATOM     28  C   UNL     1      28.773 -24.449 -15.165  0.00  0.00    +0.023 C 
ATOM     29  C   UNL     1      28.674 -22.409 -16.580  0.00  0.00    +0.066 C 
ENDBRANCH   7  24
TORSDOF 2
ENDMDL
MODEL 6
REMARK VINA RESULT:     -10.9      2.623      6.749
REMARK  Name = 9998128
REMARK  2 active torsions:
REMARK  status: ('A' for Active; 'I' for Inactive)
REMARK    1  A    between atoms: N_1  and  C_15
REMARK    2  A    between atoms: C_7  and  C_24
REMARK                            x       y       z     vdW  Elec       q    Type
REMARK                         _______ _______ _______ _____ _____    ______ ____
ROOT
ATOM      1  N   UNL     1      32.306 -22.129 -17.269  0.00  0.00    -0.290 N 
ATOM      2  N   UNL     1      33.579 -22.854 -15.428  0.00  0.00    -0.327 NA
ATOM      3  N   UNL     1      32.656 -24.401 -13.828  0.00  0.00    -0.342 NA
ATOM      4  C   UNL     1      31.325 -23.686 -15.690  0.00  0.00    +0.143 C 
ATOM      5  C   UNL     1      32.410 -22.912 -16.092  0.00  0.00    +0.184 C 
ATOM      6  C   UNL     1      31.501 -24.436 -14.516  0.00  0.00    +0.133 C 
ATOM      7  C   UNL     1      33.632 -23.612 -14.321  0.00  0.00    +0.165 C 
ATOM      8  C   UNL     1      30.113 -23.730 -16.401  0.00  0.00    -0.011 C 
ATOM      9  C   UNL     1      30.437 -25.223 -14.080  0.00  0.00    +0.029 C 
ATOM     10  C   UNL     1      29.067 -24.524 -15.944  0.00  0.00    -0.004 C 
ATOM     11  C   UNL     1      29.229 -25.272 -14.782  0.00  0.00    +0.002 C 
ATOM     12  H   UNL     1      31.391 -21.817 -17.460  0.00  0.00    +0.154 HD
ENDROOT
BRANCH   1  15
ATOM     13  N   UNL     1      35.822 -20.330 -21.108  0.00  0.00    -0.236 N 
ATOM     14  N   UNL     1      35.074 -19.525 -21.882  0.00  0.00    -0.180 NA
ATOM     15  C   UNL     1      33.254 -21.710 -18.215  0.00  0.00    +0.050 C 
ATOM     16  C   UNL     1      33.838 -20.422 -20.178  0.00  0.00    +0.037 C 
ATOM     17  C   UNL     1      35.139 -20.899 -20.068  0.00  0.00    +0.067 C 
ATOM     18  C   UNL     1      32.874 -20.829 -19.241  0.00  0.00    +0.018 C 
ATOM     19  C   UNL     1      34.574 -22.172 -18.134  0.00  0.00    +0.016 C 
ATOM     20  C   UNL     1      35.545 -21.776 -19.059  0.00  0.00    +0.017 C 
ATOM     21  C   UNL     1      33.868 -19.584 -21.313  0.00  0.00    +0.119 C 
ATOM     22  H   UNL     1      36.778 -20.495 -21.276  0.00  0.00    +0.174 HD
ENDBRANCH   1  15
BRANCH   7  24
ATOM     23  N   UNL     1      34.775 -23.997 -12.295  0.00  0.00    -0.398 NA
ATOM     24  C   UNL     1      34.865 -23.580 -13.579  0.00  0.00    +0.197 C 
ATOM     25  C   UNL     1      36.045 -23.146 -14.168  0.00  0.00    +0.098 C 
ATOM     26  C   UNL     1      35.917 -23.978 -11.572  0.00  0.00    +0.110 C 
ATOM     27  C   UNL     1      37.198 -23.140 -13.392  0.00  0.00    -0.016 C 
ATOM     28  C   UNL     1      37.142 -23.563 -12.068  0.00  0.00    +0.023 C 
ATOM     29  C   UNL     1      35.819 -24.437 -10.156  0.00  0.00    +0.066 C 
ENDBRANCH   7  24
TORSDOF 2
ENDMDL
MODEL 7
REMARK VINA RESULT:     -10.4      2.165      8.112
REMARK  Name = 9998128
REMARK  2 active torsions:
REMARK  status: ('A' for Active; 'I' for Inactive)
REMARK    1  A    between atoms: N_1  and  C_15
REMARK    2  A    between atoms: C_7  and  C_24
REMARK                            x       y       z     vdW  Elec       q    Type
REMARK                         _______ _______ _______ _____ _____    ______ ____
ROOT
ATOM      1  N   UNL     1      32.543 -22.674 -17.263  0.00  0.00    -0.290 N 
ATOM      2  N   UNL     1      34.247 -23.242 -15.743  0.00  0.00    -0.327 NA
ATOM      3  N   UNL     1      36.543 -22.677 -16.203  0.00  0.00    -0.342 NA
ATOM      4  C   UNL     1      34.837 -22.081 -17.779  0.00  0.00    +0.143 C 
ATOM      5  C   UNL     1      33.916 -22.668 -16.914  0.00  0.00    +0.184 C 
ATOM      6  C   UNL     1      36.179 -22.111 -17.368  0.00  0.00    +0.133 C 
ATOM      7  C   UNL     1      35.558 -23.212 -15.454  0.00  0.00    +0.165 C 
ATOM      8  C   UNL     1      34.467 -21.487 -18.998  0.00  0.00    -0.011 C 
ATOM      9  C   UNL     1      37.130 -21.535 -18.206  0.00  0.00    +0.029 C 
ATOM     10  C   UNL     1      35.437 -20.917 -19.817  0.00  0.00    -0.004 C 
ATOM     11  C   UNL     1      36.770 -20.941 -19.420  0.00  0.00    +0.002 C 
ATOM     12  H   UNL     1      32.379 -22.697 -18.234  0.00  0.00    +0.154 HD
ENDROOT
BRANCH   1  15
ATOM     13  N   UNL     1      27.792 -22.551 -14.478  0.00  0.00    -0.236 N 
ATOM     14  N   UNL     1      26.863 -22.347 -15.428  0.00  0.00    -0.180 NA
ATOM     15  C   UNL     1      31.370 -22.654 -16.491  0.00  0.00    +0.050 C 
ATOM     16  C   UNL     1      28.965 -22.441 -16.327  0.00  0.00    +0.037 C 
ATOM     17  C   UNL     1      29.073 -22.617 -14.952  0.00  0.00    +0.067 C 
ATOM     18  C   UNL     1      30.127 -22.459 -17.117  0.00  0.00    +0.018 C 
ATOM     19  C   UNL     1      31.443 -22.827 -15.103  0.00  0.00    +0.016 C 
ATOM     20  C   UNL     1      30.295 -22.813 -14.304  0.00  0.00    +0.017 C 
ATOM     21  C   UNL     1      27.581 -22.281 -16.551  0.00  0.00    +0.119 C 
ATOM     22  H   UNL     1      27.568 -22.644 -13.524  0.00  0.00    +0.174 HD
ENDBRANCH   1  15
BRANCH   7  24
ATOM     23  N   UNL     1      37.191 -24.367 -14.207  0.00  0.00    -0.398 NA
ATOM     24  C   UNL     1      35.955 -23.816 -14.210  0.00  0.00    +0.197 C 
ATOM     25  C   UNL     1      35.109 -23.816 -13.110  0.00  0.00    +0.098 C 
ATOM     26  C   UNL     1      37.593 -24.943 -13.052  0.00  0.00    +0.110 C 
ATOM     27  C   UNL     1      35.557 -24.418 -11.940  0.00  0.00    -0.016 C 
ATOM     28  C   UNL     1      36.823 -24.994 -11.902  0.00  0.00    +0.023 C 
ATOM     29  C   UNL     1      38.955 -25.552 -13.047  0.00  0.00    +0.066 C 
ENDBRANCH   7  24
TORSDOF 2
ENDMDL
MODEL 8
REMARK VINA RESULT:     -10.0      1.944      7.220
REMARK  Name = 9998128
REMARK  2 active torsions:
REMARK  status: ('A' for Active; 'I' for Inactive)
REMARK    1  A    between atoms: N_1  and  C_15
REMARK    2  A    between atoms: C_7  and  C_24
REMARK                            x       y       z     vdW  Elec       q    Type
REMARK                         _______ _______ _______ _____ _____    ______ ____
ROOT
ATOM      1  N   UNL     1      33.261 -22.933 -17.305  0.00  0.00    -0.290 N 
ATOM      2  N   UNL     1      35.307 -23.143 -16.163  0.00  0.00    -0.327 NA
ATOM      3  N   UNL     1      37.292 -22.053 -16.986  0.00  0.00    -0.342 NA
ATOM      4  C   UNL     1      35.226 -21.815 -18.181  0.00  0.00    +0.143 C 
ATOM      5  C   UNL     1      34.640 -22.624 -17.211  0.00  0.00    +0.184 C 
ATOM      6  C   UNL     1      36.596 -21.550 -18.021  0.00  0.00    +0.133 C 
ATOM      7  C   UNL     1      36.610 -22.823 -16.114  0.00  0.00    +0.165 C 
ATOM      8  C   UNL     1      34.509 -21.284 -19.267  0.00  0.00    -0.011 C 
ATOM      9  C   UNL     1      37.218 -20.745 -18.972  0.00  0.00    +0.029 C 
ATOM     10  C   UNL     1      35.155 -20.483 -20.202  0.00  0.00    -0.004 C 
ATOM     11  C   UNL     1      36.512 -20.213 -20.055  0.00  0.00    +0.002 C 
ATOM     12  H   UNL     1      32.923 -22.964 -18.230  0.00  0.00    +0.154 HD
ENDROOT
BRANCH   1  15
ATOM     13  N   UNL     1      29.621 -24.153 -13.355  0.00  0.00    -0.236 N 
ATOM     14  N   UNL     1      30.333 -24.867 -12.466  0.00  0.00    -0.180 NA
ATOM     15  C   UNL     1      32.283 -23.207 -16.336  0.00  0.00    +0.050 C 
ATOM     16  C   UNL     1      31.626 -24.222 -14.240  0.00  0.00    +0.037 C 
ATOM     17  C   UNL     1      30.340 -23.736 -14.442  0.00  0.00    +0.067 C 
ATOM     18  C   UNL     1      32.620 -23.958 -15.198  0.00  0.00    +0.018 C 
ATOM     19  C   UNL     1      30.976 -22.733 -16.509  0.00  0.00    +0.016 C 
ATOM     20  C   UNL     1      29.976 -22.987 -15.564  0.00  0.00    +0.017 C 
ATOM     21  C   UNL     1      31.552 -24.907 -13.009  0.00  0.00    +0.119 C 
ATOM     22  H   UNL     1      28.667 -23.947 -13.233  0.00  0.00    +0.174 HD
ENDBRANCH   1  15
BRANCH   7  24
ATOM     23  N   UNL     1      36.972 -22.926 -13.787  0.00  0.00    -0.398 NA
ATOM     24  C   UNL     1      37.361 -23.358 -15.009  0.00  0.00    +0.197 C 
ATOM     25  C   UNL     1      38.405 -24.249 -15.215  0.00  0.00    +0.098 C 
ATOM     26  C   UNL     1      37.659 -23.411 -12.728  0.00  0.00    +0.110 C 
ATOM     27  C   UNL     1      39.088 -24.725 -14.103  0.00  0.00    -0.016 C 
ATOM     28  C   UNL     1      38.714 -24.303 -12.831  0.00  0.00    +0.023 C 
ATOM     29  C   UNL     1      37.232 -22.936 -11.380  0.00  0.00    +0.066 C 
ENDBRANCH   7  24
TORSDOF 2
ENDMDL
MODEL 9
REMARK VINA RESULT:      -9.9      2.490      6.127
REMARK  Name = 9998128
REMARK  2 active torsions:
REMARK  status: ('A' for Active; 'I' for Inactive)
REMARK    1  A    between atoms: N_1  and  C_15
REMARK    2  A    between atoms: C_7  and  C_24
REMARK                            x       y       z     vdW  Elec       q    Type
REMARK                         _______ _______ _______ _____ _____    ______ ____
ROOT
ATOM      1  N   UNL     1      36.822 -22.883 -15.469  0.00  0.00    -0.290 N 
ATOM      2  N   UNL     1      34.522 -23.250 -15.135  0.00  0.00    -0.327 NA
ATOM      3  N   UNL     1      33.693 -23.992 -12.998  0.00  0.00    -0.342 NA
ATOM      4  C   UNL     1      36.045 -23.631 -13.296  0.00  0.00    +0.143 C 
ATOM      5  C   UNL     1      35.762 -23.266 -14.610  0.00  0.00    +0.184 C 
ATOM      6  C   UNL     1      34.944 -23.997 -12.505  0.00  0.00    +0.133 C 
ATOM      7  C   UNL     1      33.550 -23.619 -14.286  0.00  0.00    +0.165 C 
ATOM      8  C   UNL     1      37.349 -23.640 -12.771  0.00  0.00    -0.011 C 
ATOM      9  C   UNL     1      35.188 -24.369 -11.185  0.00  0.00    +0.029 C 
ATOM     10  C   UNL     1      37.564 -24.015 -11.449  0.00  0.00    -0.004 C 
ATOM     11  C   UNL     1      36.481 -24.380 -10.655  0.00  0.00    +0.002 C 
ATOM     12  H   UNL     1      37.680 -23.322 -15.261  0.00  0.00    +0.154 HD
ENDROOT
BRANCH   1  15
ATOM     13  N   UNL     1      36.865 -19.568 -19.867  0.00  0.00    -0.236 N 
ATOM     14  N   UNL     1      35.893 -20.060 -20.654  0.00  0.00    -0.180 NA
ATOM     15  C   UNL     1      36.887 -22.001 -16.558  0.00  0.00    +0.050 C 
ATOM     16  C   UNL     1      36.092 -21.273 -18.724  0.00  0.00    +0.037 C 
ATOM     17  C   UNL     1      37.035 -20.252 -18.694  0.00  0.00    +0.067 C 
ATOM     18  C   UNL     1      36.011 -22.167 -17.643  0.00  0.00    +0.018 C 
ATOM     19  C   UNL     1      37.826 -20.961 -16.560  0.00  0.00    +0.016 C 
ATOM     20  C   UNL     1      37.919 -20.063 -17.629  0.00  0.00    +0.017 C 
ATOM     21  C   UNL     1      35.426 -21.097 -19.956  0.00  0.00    +0.119 C 
ATOM     22  H   UNL     1      37.406 -18.784 -20.114  0.00  0.00    +0.174 HD
ENDBRANCH   1  15
BRANCH   7  24
ATOM     23  N   UNL     1      31.379 -24.538 -14.263  0.00  0.00    -0.398 NA
ATOM     24  C   UNL     1      32.208 -23.616 -14.806  0.00  0.00    +0.197 C 
ATOM     25  C   UNL     1      31.823 -22.720 -15.793  0.00  0.00    +0.098 C 
ATOM     26  C   UNL     1      30.111 -24.560 -14.732  0.00  0.00    +0.110 C 
ATOM     27  C   UNL     1      30.512 -22.774 -16.250  0.00  0.00    -0.016 C 
ATOM     28  C   UNL     1      29.632 -23.709 -15.714  0.00  0.00    +0.023 C 
ATOM     29  C   UNL     1      29.196 -25.576 -14.135  0.00  0.00    +0.066 C 
ENDBRANCH   7  24
TORSDOF 2
ENDMDL
