MODEL 1
REMARK VINA RESULT:     -11.4      0.000      0.000
REMARK  Name = 16045418
REMARK  6 active torsions:
REMARK  status: ('A' for Active; 'I' for Inactive)
REMARK    1  A    between atoms: C_2  and  O_8
REMARK    2  A    between atoms: C_4  and  O_23
REMARK    3  A    between atoms: O_8  and  C_9
REMARK    4  A    between atoms: C_9  and  C_14
REMARK    5  A    between atoms: O_23  and  C_25
REMARK    6  A    between atoms: C_28  and  C_32
REMARK                            x       y       z     vdW  Elec       q    Type
REMARK                         _______ _______ _______ _____ _____    ______ ____
ROOT
ATOM      1 CL   UNL     1      30.796 -24.332 -12.704  0.00  0.00    -0.079 Cl
ATOM      2  C   UNL     1      31.786 -22.595 -16.745  0.00  0.00    +0.142 C 
ATOM      3  C   UNL     1      32.686 -23.464 -16.136  0.00  0.00    +0.075 C 
ATOM      4  C   UNL     1      32.388 -24.007 -14.886  0.00  0.00    +0.159 C 
ATOM      5  C   UNL     1      30.590 -22.263 -16.115  0.00  0.00    +0.038 C 
ATOM      6  C   UNL     1      31.191 -23.677 -14.250  0.00  0.00    +0.092 C 
ATOM      7  C   UNL     1      30.292 -22.805 -14.865  0.00  0.00    +0.018 C 
ENDROOT
BRANCH   2   8
ATOM      8  O   UNL     1      32.079 -22.063 -17.970  0.00  0.00    -0.469 OA
BRANCH   8   9
ATOM      9  C   UNL     1      33.410 -22.263 -18.450  0.00  0.00    +0.249 C 
BRANCH   9  14
ATOM     10  N   UNL     1      32.800 -20.613 -20.203  0.00  0.00    -0.227 N 
ATOM     11  N   UNL     1      33.278 -19.686 -21.060  0.00  0.00    -0.115 NA
ATOM     12  N   UNL     1      35.557 -18.949 -21.442  0.00  0.00    -0.335 NA
ATOM     13  N   UNL     1      37.899 -18.509 -21.518  0.00  0.00    -0.332 N 
ATOM     14  C   UNL     1      33.754 -21.227 -19.437  0.00  0.00    +0.097 C 
ATOM     15  C   UNL     1      34.934 -20.655 -19.826  0.00  0.00    +0.090 C 
ATOM     16  C   UNL     1      34.597 -19.703 -20.835  0.00  0.00    +0.105 C 
ATOM     17  C   UNL     1      36.191 -20.958 -19.325  0.00  0.00    +0.016 C 
ATOM     18  C   UNL     1      37.160 -20.174 -19.959  0.00  0.00    +0.049 C 
ATOM     19  C   UNL     1      36.808 -19.234 -20.958  0.00  0.00    +0.189 C 
ATOM     20  H   UNL     1      31.842 -20.831 -20.136  0.00  0.00    +0.175 HD
ATOM     21  H   UNL     1      37.736 -17.838 -22.218  0.00  0.00    +0.145 HD
ATOM     22  H   UNL     1      38.817 -18.680 -21.203  0.00  0.00    +0.145 HD
ENDBRANCH   9  14
ENDBRANCH   8   9
ENDBRANCH   2   8
BRANCH   4  23
ATOM     23  O   UNL     1      33.284 -24.856 -14.309  0.00  0.00    -0.452 OA
BRANCH  23  25
ATOM     24 CL   UNL     1      37.602 -22.352 -15.296  0.00  0.00    -0.082 Cl
ATOM     25  C   UNL     1      34.463 -24.315 -13.827  0.00  0.00    +0.147 C 
ATOM     26  C   UNL     1      34.750 -24.417 -12.477  0.00  0.00    +0.048 C 
ATOM     27  C   UNL     1      35.326 -23.685 -14.706  0.00  0.00    +0.049 C 
ATOM     28  C   UNL     1      35.938 -23.872 -11.991  0.00  0.00    +0.072 C 
ATOM     29  C   UNL     1      36.515 -23.140 -14.220  0.00  0.00    +0.061 C 
ATOM     30  C   UNL     1      36.820 -23.233 -12.863  0.00  0.00    +0.022 C 
BRANCH  28  32
ATOM     31  N   UNL     1      36.505 -24.043  -9.466  0.00  0.00    -0.191 NA
ATOM     32  C   UNL     1      36.251 -23.967 -10.600  0.00  0.00    +0.101 C 
ENDBRANCH  28  32
ENDBRANCH  23  25
ENDBRANCH   4  23
TORSDOF 6
ENDMDL
MODEL 2
REMARK VINA RESULT:     -11.4      7.919     12.492
REMARK  Name = 16045418
REMARK  6 active torsions:
REMARK  status: ('A' for Active; 'I' for Inactive)
REMARK    1  A    between atoms: C_2  and  O_8
REMARK    2  A    between atoms: C_4  and  O_23
REMARK    3  A    between atoms: O_8  and  C_9
REMARK    4  A    between atoms: C_9  and  C_14
REMARK    5  A    between atoms: O_23  and  C_25
REMARK    6  A    between atoms: C_28  and  C_32
REMARK                            x       y       z     vdW  Elec       q    Type
REMARK                         _______ _______ _______ _____ _____    ______ ____
ROOT
ATOM      1 CL   UNL     1      32.382 -12.209 -20.302  0.00  0.00    -0.079 Cl
ATOM      2  C   UNL     1      34.935 -15.063 -22.683  0.00  0.00    +0.142 C 
ATOM      3  C   UNL     1      34.230 -14.061 -23.345  0.00  0.00    +0.075 C 
ATOM      4  C   UNL     1      33.438 -13.174 -22.616  0.00  0.00    +0.159 C 
ATOM      5  C   UNL     1      34.854 -15.185 -21.299  0.00  0.00    +0.038 C 
ATOM      6  C   UNL     1      33.354 -13.292 -21.229  0.00  0.00    +0.092 C 
ATOM      7  C   UNL     1      34.062 -14.297 -20.570  0.00  0.00    +0.018 C 
ENDROOT
BRANCH   2   8
ATOM      8  O   UNL     1      35.711 -15.933 -23.398  0.00  0.00    -0.469 OA
BRANCH   8   9
ATOM      9  C   UNL     1      35.277 -17.294 -23.432  0.00  0.00    +0.249 C 
BRANCH   9  14
ATOM     10  N   UNL     1      37.347 -17.958 -22.231  0.00  0.00    -0.227 N 
ATOM     11  N   UNL     1      37.855 -18.748 -21.262  0.00  0.00    -0.115 NA
ATOM     12  N   UNL     1      36.742 -20.341 -19.810  0.00  0.00    -0.335 NA
ATOM     13  N   UNL     1      35.295 -21.791 -18.591  0.00  0.00    -0.332 N 
ATOM     14  C   UNL     1      35.997 -18.080 -22.417  0.00  0.00    +0.097 C 
ATOM     15  C   UNL     1      35.603 -19.017 -21.501  0.00  0.00    +0.090 C 
ATOM     16  C   UNL     1      36.786 -19.408 -20.803  0.00  0.00    +0.105 C 
ATOM     17  C   UNL     1      34.309 -19.477 -21.311  0.00  0.00    +0.016 C 
ATOM     18  C   UNL     1      34.286 -20.431 -20.289  0.00  0.00    +0.049 C 
ATOM     19  C   UNL     1      35.469 -20.807 -19.607  0.00  0.00    +0.189 C 
ATOM     20  H   UNL     1      37.904 -17.343 -22.762  0.00  0.00    +0.175 HD
ATOM     21  H   UNL     1      36.070 -22.105 -18.072  0.00  0.00    +0.145 HD
ATOM     22  H   UNL     1      34.399 -22.157 -18.409  0.00  0.00    +0.145 HD
ENDBRANCH   9  14
ENDBRANCH   8   9
ENDBRANCH   2   8
BRANCH   4  23
ATOM     23  O   UNL     1      32.758 -12.201 -23.285  0.00  0.00    -0.452 OA
BRANCH  23  25
ATOM     24 CL   UNL     1      36.401  -9.662 -25.771  0.00  0.00    -0.082 Cl
ATOM     25  C   UNL     1      33.409 -10.999 -23.507  0.00  0.00    +0.147 C 
ATOM     26  C   UNL     1      33.005  -9.874 -22.810  0.00  0.00    +0.048 C 
ATOM     27  C   UNL     1      34.449 -10.953 -24.418  0.00  0.00    +0.049 C 
ATOM     28  C   UNL     1      33.662  -8.664 -23.032  0.00  0.00    +0.072 C 
ATOM     29  C   UNL     1      35.106  -9.743 -24.641  0.00  0.00    +0.061 C 
ATOM     30  C   UNL     1      34.712  -8.598 -23.948  0.00  0.00    +0.022 C 
BRANCH  28  32
ATOM     31  N   UNL     1      32.927  -6.535 -21.746  0.00  0.00    -0.191 NA
ATOM     32  C   UNL     1      33.257  -7.491 -22.323  0.00  0.00    +0.101 C 
ENDBRANCH  28  32
ENDBRANCH  23  25
ENDBRANCH   4  23
TORSDOF 6
ENDMDL
MODEL 3
REMARK VINA RESULT:     -11.3      6.136     11.117
REMARK  Name = 16045418
REMARK  6 active torsions:
REMARK  status: ('A' for Active; 'I' for Inactive)
REMARK    1  A    between atoms: C_2  and  O_8
REMARK    2  A    between atoms: C_4  and  O_23
REMARK    3  A    between atoms: O_8  and  C_9
REMARK    4  A    between atoms: C_9  and  C_14
REMARK    5  A    between atoms: O_23  and  C_25
REMARK    6  A    between atoms: C_28  and  C_32
REMARK                            x       y       z     vdW  Elec       q    Type
REMARK                         _______ _______ _______ _____ _____    ______ ____
ROOT
ATOM      1 CL   UNL     1      33.438 -14.802 -25.650  0.00  0.00    -0.079 Cl
ATOM      2  C   UNL     1      35.250 -18.255 -23.386  0.00  0.00    +0.142 C 
ATOM      3  C   UNL     1      35.663 -16.957 -23.098  0.00  0.00    +0.075 C 
ATOM      4  C   UNL     1      35.107 -15.882 -23.793  0.00  0.00    +0.159 C 
ATOM      5  C   UNL     1      34.287 -18.487 -24.363  0.00  0.00    +0.038 C 
ATOM      6  C   UNL     1      34.141 -16.110 -24.774  0.00  0.00    +0.092 C 
ATOM      7  C   UNL     1      33.732 -17.413 -25.059  0.00  0.00    +0.018 C 
ENDROOT
BRANCH   2   8
ATOM      8  O   UNL     1      35.795 -19.307 -22.704  0.00  0.00    -0.469 OA
BRANCH   8   9
ATOM      9  C   UNL     1      35.883 -19.171 -21.285  0.00  0.00    +0.249 C 
BRANCH   9  14
ATOM     10  N   UNL     1      33.479 -19.736 -21.024  0.00  0.00    -0.227 N 
ATOM     11  N   UNL     1      32.588 -20.475 -20.330  0.00  0.00    -0.115 NA
ATOM     12  N   UNL     1      32.947 -22.040 -18.512  0.00  0.00    -0.335 NA
ATOM     13  N   UNL     1      33.711 -23.479 -16.771  0.00  0.00    -0.332 N 
ATOM     14  C   UNL     1      34.781 -19.899 -20.636  0.00  0.00    +0.097 C 
ATOM     15  C   UNL     1      34.729 -20.812 -19.618  0.00  0.00    +0.090 C 
ATOM     16  C   UNL     1      33.350 -21.145 -19.458  0.00  0.00    +0.105 C 
ATOM     17  C   UNL     1      35.813 -21.297 -18.902  0.00  0.00    +0.016 C 
ATOM     18  C   UNL     1      35.379 -22.213 -17.939  0.00  0.00    +0.049 C 
ATOM     19  C   UNL     1      34.006 -22.532 -17.794  0.00  0.00    +0.189 C 
ATOM     20  H   UNL     1      33.213 -19.127 -21.751  0.00  0.00    +0.175 HD
ATOM     21  H   UNL     1      32.780 -23.753 -16.609  0.00  0.00    +0.145 HD
ATOM     22  H   UNL     1      34.438 -23.860 -16.228  0.00  0.00    +0.145 HD
ENDBRANCH   9  14
ENDBRANCH   8   9
ENDBRANCH   2   8
BRANCH   4  23
ATOM     23  O   UNL     1      35.525 -14.620 -23.493  0.00  0.00    -0.452 OA
BRANCH  23  25
ATOM     24 CL   UNL     1      32.174 -13.798 -19.753  0.00  0.00    -0.082 Cl
ATOM     25  C   UNL     1      34.611 -13.764 -22.904  0.00  0.00    +0.147 C 
ATOM     26  C   UNL     1      34.390 -12.520 -23.469  0.00  0.00    +0.048 C 
ATOM     27  C   UNL     1      33.940 -14.172 -21.764  0.00  0.00    +0.049 C 
ATOM     28  C   UNL     1      33.468 -11.658 -22.876  0.00  0.00    +0.072 C 
ATOM     29  C   UNL     1      33.019 -13.310 -21.171  0.00  0.00    +0.061 C 
ATOM     30  C   UNL     1      32.783 -12.053 -21.727  0.00  0.00    +0.022 C 
BRANCH  28  32
ATOM     31  N   UNL     1      33.030  -9.319 -23.907  0.00  0.00    -0.191 NA
ATOM     32  C   UNL     1      33.227 -10.370 -23.445  0.00  0.00    +0.101 C 
ENDBRANCH  28  32
ENDBRANCH  23  25
ENDBRANCH   4  23
TORSDOF 6
ENDMDL
MODEL 4
REMARK VINA RESULT:     -11.1      1.685      2.123
REMARK  Name = 16045418
REMARK  6 active torsions:
REMARK  status: ('A' for Active; 'I' for Inactive)
REMARK    1  A    between atoms: C_2  and  O_8
REMARK    2  A    between atoms: C_4  and  O_23
REMARK    3  A    between atoms: O_8  and  C_9
REMARK    4  A    between atoms: C_9  and  C_14
REMARK    5  A    between atoms: O_23  and  C_25
REMARK    6  A    between atoms: C_28  and  C_32
REMARK                            x       y       z     vdW  Elec       q    Type
REMARK                         _______ _______ _______ _____ _____    ______ ____
ROOT
ATOM      1 CL   UNL     1      30.810 -24.457 -12.690  0.00  0.00    -0.079 Cl
ATOM      2  C   UNL     1      31.784 -22.625 -16.692  0.00  0.00    +0.142 C 
ATOM      3  C   UNL     1      32.728 -23.432 -16.063  0.00  0.00    +0.075 C 
ATOM      4  C   UNL     1      32.434 -24.003 -14.824  0.00  0.00    +0.159 C 
ATOM      5  C   UNL     1      30.550 -22.384 -16.094  0.00  0.00    +0.038 C 
ATOM      6  C   UNL     1      31.200 -23.765 -14.221  0.00  0.00    +0.092 C 
ATOM      7  C   UNL     1      30.258 -22.955 -14.856  0.00  0.00    +0.018 C 
ENDROOT
BRANCH   2   8
ATOM      8  O   UNL     1      32.072 -22.065 -17.906  0.00  0.00    -0.469 OA
BRANCH   8   9
ATOM      9  C   UNL     1      33.387 -22.291 -18.417  0.00  0.00    +0.249 C 
BRANCH   9  14
ATOM     10  N   UNL     1      32.783 -20.624 -20.156  0.00  0.00    -0.227 N 
ATOM     11  N   UNL     1      33.265 -19.695 -21.008  0.00  0.00    -0.115 NA
ATOM     12  N   UNL     1      35.549 -18.976 -21.396  0.00  0.00    -0.335 NA
ATOM     13  N   UNL     1      37.895 -18.556 -21.480  0.00  0.00    -0.332 N 
ATOM     14  C   UNL     1      33.735 -21.251 -19.399  0.00  0.00    +0.097 C 
ATOM     15  C   UNL     1      34.918 -20.687 -19.789  0.00  0.00    +0.090 C 
ATOM     16  C   UNL     1      34.585 -19.725 -20.790  0.00  0.00    +0.105 C 
ATOM     17  C   UNL     1      36.175 -21.005 -19.296  0.00  0.00    +0.016 C 
ATOM     18  C   UNL     1      37.148 -20.226 -19.929  0.00  0.00    +0.049 C 
ATOM     19  C   UNL     1      36.799 -19.276 -20.920  0.00  0.00    +0.189 C 
ATOM     20  H   UNL     1      31.823 -20.833 -20.085  0.00  0.00    +0.175 HD
ATOM     21  H   UNL     1      37.734 -17.878 -22.175  0.00  0.00    +0.145 HD
ATOM     22  H   UNL     1      38.812 -18.737 -21.171  0.00  0.00    +0.145 HD
ENDBRANCH   9  14
ENDBRANCH   8   9
ENDBRANCH   2   8
BRANCH   4  23
ATOM     23  O   UNL     1      33.373 -24.790 -14.227  0.00  0.00    -0.452 OA
BRANCH  23  25
ATOM     24 CL   UNL     1      36.663 -23.551 -10.548  0.00  0.00    -0.082 Cl
ATOM     25  C   UNL     1      34.576 -24.202 -13.878  0.00  0.00    +0.147 C 
ATOM     26  C   UNL     1      35.369 -23.647 -14.868  0.00  0.00    +0.048 C 
ATOM     27  C   UNL     1      34.957 -24.181 -12.548  0.00  0.00    +0.049 C 
ATOM     28  C   UNL     1      36.580 -23.053 -14.516  0.00  0.00    +0.072 C 
ATOM     29  C   UNL     1      36.169 -23.587 -12.196  0.00  0.00    +0.061 C 
ATOM     30  C   UNL     1      36.981 -23.023 -13.181  0.00  0.00    +0.022 C 
BRANCH  28  32
ATOM     31  N   UNL     1      38.089 -22.008 -16.349  0.00  0.00    -0.191 NA
ATOM     32  C   UNL     1      37.412 -22.477 -15.525  0.00  0.00    +0.101 C 
ENDBRANCH  28  32
ENDBRANCH  23  25
ENDBRANCH   4  23
TORSDOF 6
ENDMDL
MODEL 5
REMARK VINA RESULT:     -11.1      1.651      1.845
REMARK  Name = 16045418
REMARK  6 active torsions:
REMARK  status: ('A' for Active; 'I' for Inactive)
REMARK    1  A    between atoms: C_2  and  O_8
REMARK    2  A    between atoms: C_4  and  O_23
REMARK    3  A    between atoms: O_8  and  C_9
REMARK    4  A    between atoms: C_9  and  C_14
REMARK    5  A    between atoms: O_23  and  C_25
REMARK    6  A    between atoms: C_28  and  C_32
REMARK                            x       y       z     vdW  Elec       q    Type
REMARK                         _______ _______ _______ _____ _____    ______ ____
ROOT
ATOM      1 CL   UNL     1      31.291 -23.495 -12.476  0.00  0.00    -0.079 Cl
ATOM      2  C   UNL     1      32.252 -22.783 -16.823  0.00  0.00    +0.142 C 
ATOM      3  C   UNL     1      33.279 -23.106 -15.940  0.00  0.00    +0.075 C 
ATOM      4  C   UNL     1      32.990 -23.329 -14.594  0.00  0.00    +0.159 C 
ATOM      5  C   UNL     1      30.940 -22.680 -16.371  0.00  0.00    +0.038 C 
ATOM      6  C   UNL     1      31.677 -23.226 -14.136  0.00  0.00    +0.092 C 
ATOM      7  C   UNL     1      30.652 -22.902 -15.024  0.00  0.00    +0.018 C 
ENDROOT
BRANCH   2   8
ATOM      8  O   UNL     1      32.535 -22.564 -18.143  0.00  0.00    -0.469 OA
BRANCH   8   9
ATOM      9  C   UNL     1      33.890 -22.239 -18.459  0.00  0.00    +0.249 C 
BRANCH   9  14
ATOM     10  N   UNL     1      32.796 -20.730 -20.099  0.00  0.00    -0.227 N 
ATOM     11  N   UNL     1      33.004 -19.774 -21.029  0.00  0.00    -0.115 NA
ATOM     12  N   UNL     1      35.076 -18.766 -21.787  0.00  0.00    -0.335 NA
ATOM     13  N   UNL     1      37.298 -18.036 -22.250  0.00  0.00    -0.332 N 
ATOM     14  C   UNL     1      33.932 -21.196 -19.496  0.00  0.00    +0.097 C 
ATOM     15  C   UNL     1      34.949 -20.490 -20.078  0.00  0.00    +0.090 C 
ATOM     16  C   UNL     1      34.333 -19.617 -21.025  0.00  0.00    +0.105 C 
ATOM     17  C   UNL     1      36.300 -20.618 -19.788  0.00  0.00    +0.016 C 
ATOM     18  C   UNL     1      37.044 -19.736 -20.579  0.00  0.00    +0.049 C 
ATOM     19  C   UNL     1      36.415 -18.877 -21.513  0.00  0.00    +0.189 C 
ATOM     20  H   UNL     1      31.897 -21.065 -19.873  0.00  0.00    +0.175 HD
ATOM     21  H   UNL     1      36.937 -17.410 -22.919  0.00  0.00    +0.145 HD
ATOM     22  H   UNL     1      38.268 -18.080 -22.090  0.00  0.00    +0.145 HD
ENDBRANCH   9  14
ENDBRANCH   8   9
ENDBRANCH   2   8
BRANCH   4  23
ATOM     23  O   UNL     1      34.011 -23.645 -13.748  0.00  0.00    -0.452 OA
BRANCH  23  25
ATOM     24 CL   UNL     1      37.622 -21.107 -16.281  0.00  0.00    -0.082 Cl
ATOM     25  C   UNL     1      35.297 -23.633 -14.262  0.00  0.00    +0.147 C 
ATOM     26  C   UNL     1      36.100 -24.748 -14.096  0.00  0.00    +0.048 C 
ATOM     27  C   UNL     1      35.747 -22.508 -14.929  0.00  0.00    +0.049 C 
ATOM     28  C   UNL     1      37.394 -24.736 -14.614  0.00  0.00    +0.072 C 
ATOM     29  C   UNL     1      37.041 -22.496 -15.448  0.00  0.00    +0.061 C 
ATOM     30  C   UNL     1      37.866 -23.611 -15.290  0.00  0.00    +0.022 C 
BRANCH  28  32
ATOM     31  N   UNL     1      38.926 -26.809 -14.319  0.00  0.00    -0.191 NA
ATOM     32  C   UNL     1      38.239 -25.878 -14.451  0.00  0.00    +0.101 C 
ENDBRANCH  28  32
ENDBRANCH  23  25
ENDBRANCH   4  23
TORSDOF 6
ENDMDL
MODEL 6
REMARK VINA RESULT:     -10.9     12.111     16.407
REMARK  Name = 16045418
REMARK  6 active torsions:
REMARK  status: ('A' for Active; 'I' for Inactive)
REMARK    1  A    between atoms: C_2  and  O_8
REMARK    2  A    between atoms: C_4  and  O_23
REMARK    3  A    between atoms: O_8  and  C_9
REMARK    4  A    between atoms: C_9  and  C_14
REMARK    5  A    between atoms: O_23  and  C_25
REMARK    6  A    between atoms: C_28  and  C_32
REMARK                            x       y       z     vdW  Elec       q    Type
REMARK                         _______ _______ _______ _____ _____    ______ ____
ROOT
ATOM      1 CL   UNL     1      32.306  -6.474 -20.583  0.00  0.00    -0.079 Cl
ATOM      2  C   UNL     1      33.257  -9.996 -23.232  0.00  0.00    +0.142 C 
ATOM      3  C   UNL     1      34.023  -8.838 -23.333  0.00  0.00    +0.075 C 
ATOM      4  C   UNL     1      33.736  -7.744 -22.517  0.00  0.00    +0.159 C 
ATOM      5  C   UNL     1      32.206 -10.069 -22.323  0.00  0.00    +0.038 C 
ATOM      6  C   UNL     1      32.684  -7.812 -21.604  0.00  0.00    +0.092 C 
ATOM      7  C   UNL     1      31.919  -8.974 -21.507  0.00  0.00    +0.018 C 
ENDROOT
BRANCH   2   8
ATOM      8  O   UNL     1      33.538 -11.068 -24.033  0.00  0.00    -0.469 OA
BRANCH   8   9
ATOM      9  C   UNL     1      34.271 -12.138 -23.432  0.00  0.00    +0.249 C 
BRANCH   9  14
ATOM     10  N   UNL     1      33.439 -13.388 -25.410  0.00  0.00    -0.227 N 
ATOM     11  N   UNL     1      33.343 -14.605 -25.986  0.00  0.00    -0.115 NA
ATOM     12  N   UNL     1      34.128 -16.762 -25.204  0.00  0.00    -0.335 NA
ATOM     13  N   UNL     1      35.040 -18.666 -24.096  0.00  0.00    -0.332 N 
ATOM     14  C   UNL     1      34.078 -13.378 -24.200  0.00  0.00    +0.097 C 
ATOM     15  C   UNL     1      34.421 -14.683 -23.977  0.00  0.00    +0.090 C 
ATOM     16  C   UNL     1      33.947 -15.414 -25.109  0.00  0.00    +0.105 C 
ATOM     17  C   UNL     1      35.092 -15.172 -22.867  0.00  0.00    +0.016 C 
ATOM     18  C   UNL     1      35.268 -16.554 -22.984  0.00  0.00    +0.049 C 
ATOM     19  C   UNL     1      34.792 -17.263 -24.114  0.00  0.00    +0.189 C 
ATOM     20  H   UNL     1      33.078 -12.572 -25.828  0.00  0.00    +0.175 HD
ATOM     21  H   UNL     1      34.740 -19.228 -24.846  0.00  0.00    +0.145 HD
ATOM     22  H   UNL     1      35.512 -19.073 -23.334  0.00  0.00    +0.145 HD
ENDBRANCH   9  14
ENDBRANCH   8   9
ENDBRANCH   2   8
BRANCH   4  23
ATOM     23  O   UNL     1      34.501  -6.622 -22.632  0.00  0.00    -0.452 OA
BRANCH  23  25
ATOM     24 CL   UNL     1      35.910  -4.818 -27.177  0.00  0.00    -0.082 Cl
ATOM     25  C   UNL     1      34.235  -5.770 -23.691  0.00  0.00    +0.147 C 
ATOM     26  C   UNL     1      33.104  -4.974 -23.649  0.00  0.00    +0.048 C 
ATOM     27  C   UNL     1      35.107  -5.735 -24.765  0.00  0.00    +0.049 C 
ATOM     28  C   UNL     1      32.837  -4.116 -24.715  0.00  0.00    +0.072 C 
ATOM     29  C   UNL     1      34.840  -4.877 -25.831  0.00  0.00    +0.061 C 
ATOM     30  C   UNL     1      33.704  -4.067 -25.806  0.00  0.00    +0.022 C 
BRANCH  28  32
ATOM     31  N   UNL     1      30.723  -2.613 -24.668  0.00  0.00    -0.191 NA
ATOM     32  C   UNL     1      31.672  -3.287 -24.689  0.00  0.00    +0.101 C 
ENDBRANCH  28  32
ENDBRANCH  23  25
ENDBRANCH   4  23
TORSDOF 6
ENDMDL
MODEL 7
REMARK VINA RESULT:     -10.8     12.028     16.467
REMARK  Name = 16045418
REMARK  6 active torsions:
REMARK  status: ('A' for Active; 'I' for Inactive)
REMARK    1  A    between atoms: C_2  and  O_8
REMARK    2  A    between atoms: C_4  and  O_23
REMARK    3  A    between atoms: O_8  and  C_9
REMARK    4  A    between atoms: C_9  and  C_14
REMARK    5  A    between atoms: O_23  and  C_25
REMARK    6  A    between atoms: C_28  and  C_32
REMARK                            x       y       z     vdW  Elec       q    Type
REMARK                         _______ _______ _______ _____ _____    ______ ____
ROOT
ATOM      1 CL   UNL     1      32.317  -6.409 -20.596  0.00  0.00    -0.079 Cl
ATOM      2  C   UNL     1      33.275  -9.935 -23.237  0.00  0.00    +0.142 C 
ATOM      3  C   UNL     1      34.042  -8.777 -23.338  0.00  0.00    +0.075 C 
ATOM      4  C   UNL     1      33.753  -7.681 -22.524  0.00  0.00    +0.159 C 
ATOM      5  C   UNL     1      32.222 -10.006 -22.330  0.00  0.00    +0.038 C 
ATOM      6  C   UNL     1      32.698  -7.748 -21.614  0.00  0.00    +0.092 C 
ATOM      7  C   UNL     1      31.933  -8.910 -21.517  0.00  0.00    +0.018 C 
ENDROOT
BRANCH   2   8
ATOM      8  O   UNL     1      33.559 -11.008 -24.036  0.00  0.00    -0.469 OA
BRANCH   8   9
ATOM      9  C   UNL     1      34.278 -12.083 -23.427  0.00  0.00    +0.249 C 
BRANCH   9  14
ATOM     10  N   UNL     1      33.429 -13.334 -25.397  0.00  0.00    -0.227 N 
ATOM     11  N   UNL     1      33.327 -14.551 -25.971  0.00  0.00    -0.115 NA
ATOM     12  N   UNL     1      34.116 -16.709 -25.194  0.00  0.00    -0.335 NA
ATOM     13  N   UNL     1      35.037 -18.612 -24.092  0.00  0.00    -0.332 N 
ATOM     14  C   UNL     1      34.078 -13.324 -24.192  0.00  0.00    +0.097 C 
ATOM     15  C   UNL     1      34.421 -14.629 -23.972  0.00  0.00    +0.090 C 
ATOM     16  C   UNL     1      33.938 -15.361 -25.099  0.00  0.00    +0.105 C 
ATOM     17  C   UNL     1      35.102 -15.117 -22.866  0.00  0.00    +0.016 C 
ATOM     18  C   UNL     1      35.276 -16.500 -22.984  0.00  0.00    +0.049 C 
ATOM     19  C   UNL     1      34.789 -17.209 -24.109  0.00  0.00    +0.189 C 
ATOM     20  H   UNL     1      33.064 -12.518 -25.812  0.00  0.00    +0.175 HD
ATOM     21  H   UNL     1      34.730 -19.175 -24.839  0.00  0.00    +0.145 HD
ATOM     22  H   UNL     1      35.515 -19.019 -23.334  0.00  0.00    +0.145 HD
ENDBRANCH   9  14
ENDBRANCH   8   9
ENDBRANCH   2   8
BRANCH   4  23
ATOM     23  O   UNL     1      34.517  -6.559 -22.640  0.00  0.00    -0.452 OA
BRANCH  23  25
ATOM     24 CL   UNL     1      31.556  -3.072 -24.869  0.00  0.00    -0.082 Cl
ATOM     25  C   UNL     1      34.289  -5.737 -23.730  0.00  0.00    +0.147 C 
ATOM     26  C   UNL     1      35.185  -5.750 -24.785  0.00  0.00    +0.048 C 
ATOM     27  C   UNL     1      33.171  -4.922 -23.739  0.00  0.00    +0.049 C 
ATOM     28  C   UNL     1      34.955  -4.923 -25.883  0.00  0.00    +0.072 C 
ATOM     29  C   UNL     1      32.940  -4.094 -24.838  0.00  0.00    +0.061 C 
ATOM     30  C   UNL     1      33.833  -4.094 -25.910  0.00  0.00    +0.022 C 
BRANCH  28  32
ATOM     31  N   UNL     1      36.616  -4.923 -27.875  0.00  0.00    -0.191 NA
ATOM     32  C   UNL     1      35.870  -4.922 -26.981  0.00  0.00    +0.101 C 
ENDBRANCH  28  32
ENDBRANCH  23  25
ENDBRANCH   4  23
TORSDOF 6
ENDMDL
MODEL 8
REMARK VINA RESULT:     -10.8      2.971      7.057
REMARK  Name = 16045418
REMARK  6 active torsions:
REMARK  status: ('A' for Active; 'I' for Inactive)
REMARK    1  A    between atoms: C_2  and  O_8
REMARK    2  A    between atoms: C_4  and  O_23
REMARK    3  A    between atoms: O_8  and  C_9
REMARK    4  A    between atoms: C_9  and  C_14
REMARK    5  A    between atoms: O_23  and  C_25
REMARK    6  A    between atoms: C_28  and  C_32
REMARK                            x       y       z     vdW  Elec       q    Type
REMARK                         _______ _______ _______ _____ _____    ______ ____
ROOT
ATOM      1 CL   UNL     1      29.313 -22.368 -16.696  0.00  0.00    -0.079 Cl
ATOM      2  C   UNL     1      32.804 -23.736 -14.192  0.00  0.00    +0.142 C 
ATOM      3  C   UNL     1      32.988 -23.501 -15.552  0.00  0.00    +0.075 C 
ATOM      4  C   UNL     1      31.914 -23.078 -16.334  0.00  0.00    +0.159 C 
ATOM      5  C   UNL     1      31.554 -23.550 -13.608  0.00  0.00    +0.038 C 
ATOM      6  C   UNL     1      30.659 -22.890 -15.753  0.00  0.00    +0.092 C 
ATOM      7  C   UNL     1      30.480 -23.127 -14.390  0.00  0.00    +0.018 C 
ENDROOT
BRANCH   2   8
ATOM      8  O   UNL     1      33.858 -24.151 -13.426  0.00  0.00    -0.469 OA
BRANCH   8   9
ATOM      9  C   UNL     1      35.146 -23.653 -13.790  0.00  0.00    +0.249 C 
BRANCH   9  14
ATOM     10  N   UNL     1      35.524 -25.746 -15.071  0.00  0.00    -0.227 N 
ATOM     11  N   UNL     1      36.434 -26.683 -15.412  0.00  0.00    -0.115 NA
ATOM     12  N   UNL     1      38.774 -26.871 -14.802  0.00  0.00    -0.335 NA
ATOM     13  N   UNL     1      41.007 -26.697 -13.984  0.00  0.00    -0.332 N 
ATOM     14  C   UNL     1      36.002 -24.755 -14.258  0.00  0.00    +0.097 C 
ATOM     15  C   UNL     1      37.317 -25.073 -14.058  0.00  0.00    +0.090 C 
ATOM     16  C   UNL     1      37.548 -26.277 -14.791  0.00  0.00    +0.105 C 
ATOM     17  C   UNL     1      38.222 -24.354 -13.292  0.00  0.00    +0.016 C 
ATOM     18  C   UNL     1      39.473 -24.979 -13.318  0.00  0.00    +0.049 C 
ATOM     19  C   UNL     1      39.684 -26.173 -14.050  0.00  0.00    +0.189 C 
ATOM     20  H   UNL     1      34.590 -25.775 -15.383  0.00  0.00    +0.175 HD
ATOM     21  H   UNL     1      41.233 -27.525 -14.466  0.00  0.00    +0.145 HD
ATOM     22  H   UNL     1      41.695 -26.232 -13.455  0.00  0.00    +0.145 HD
ENDBRANCH   9  14
ENDBRANCH   8   9
ENDBRANCH   2   8
BRANCH   4  23
ATOM     23  O   UNL     1      32.118 -22.853 -17.663  0.00  0.00    -0.452 OA
BRANCH  23  25
ATOM     24 CL   UNL     1      37.085 -22.280 -16.714  0.00  0.00    -0.082 Cl
ATOM     25  C   UNL     1      33.329 -22.299 -18.041  0.00  0.00    +0.147 C 
ATOM     26  C   UNL     1      33.385 -21.512 -19.178  0.00  0.00    +0.048 C 
ATOM     27  C   UNL     1      34.453 -22.545 -17.273  0.00  0.00    +0.049 C 
ATOM     28  C   UNL     1      34.605 -20.953 -19.558  0.00  0.00    +0.072 C 
ATOM     29  C   UNL     1      35.673 -21.986 -17.654  0.00  0.00    +0.061 C 
ATOM     30  C   UNL     1      35.749 -21.190 -18.797  0.00  0.00    +0.022 C 
BRANCH  28  32
ATOM     31  N   UNL     1      34.744 -19.473 -21.684  0.00  0.00    -0.191 NA
ATOM     32  C   UNL     1      34.682 -20.138 -20.730  0.00  0.00    +0.101 C 
ENDBRANCH  28  32
ENDBRANCH  23  25
ENDBRANCH   4  23
TORSDOF 6
ENDMDL
MODEL 9
REMARK VINA RESULT:     -10.7      5.458     10.605
REMARK  Name = 16045418
REMARK  6 active torsions:
REMARK  status: ('A' for Active; 'I' for Inactive)
REMARK    1  A    between atoms: C_2  and  O_8
REMARK    2  A    between atoms: C_4  and  O_23
REMARK    3  A    between atoms: O_8  and  C_9
REMARK    4  A    between atoms: C_9  and  C_14
REMARK    5  A    between atoms: O_23  and  C_25
REMARK    6  A    between atoms: C_28  and  C_32
REMARK                            x       y       z     vdW  Elec       q    Type
REMARK                         _______ _______ _______ _____ _____    ______ ____
ROOT
ATOM      1 CL   UNL     1      34.406 -16.923 -25.089  0.00  0.00    -0.079 Cl
ATOM      2  C   UNL     1      35.377 -19.020 -21.217  0.00  0.00    +0.142 C 
ATOM      3  C   UNL     1      35.821 -17.715 -21.418  0.00  0.00    +0.075 C 
ATOM      4  C   UNL     1      35.524 -17.059 -22.613  0.00  0.00    +0.159 C 
ATOM      5  C   UNL     1      34.640 -19.673 -22.200  0.00  0.00    +0.038 C 
ATOM      6  C   UNL     1      34.786 -17.709 -23.602  0.00  0.00    +0.092 C 
ATOM      7  C   UNL     1      34.344 -19.016 -23.395  0.00  0.00    +0.018 C 
ENDROOT
BRANCH   2   8
ATOM      8  O   UNL     1      35.668 -19.663 -20.046  0.00  0.00    -0.469 OA
BRANCH   8   9
ATOM      9  C   UNL     1      35.699 -21.090 -20.093  0.00  0.00    +0.249 C 
BRANCH   9  14
ATOM     10  N   UNL     1      33.437 -21.859 -19.414  0.00  0.00    -0.227 N 
ATOM     11  N   UNL     1      32.705 -22.378 -18.406  0.00  0.00    -0.115 NA
ATOM     12  N   UNL     1      33.369 -22.991 -16.155  0.00  0.00    -0.335 NA
ATOM     13  N   UNL     1      34.410 -23.460 -14.062  0.00  0.00    -0.332 N 
ATOM     14  C   UNL     1      34.755 -21.650 -19.112  0.00  0.00    +0.097 C 
ATOM     15  C   UNL     1      34.885 -22.064 -17.815  0.00  0.00    +0.090 C 
ATOM     16  C   UNL     1      33.590 -22.509 -17.411  0.00  0.00    +0.105 C 
ATOM     17  C   UNL     1      36.052 -22.044 -17.065  0.00  0.00    +0.016 C 
ATOM     18  C   UNL     1      35.805 -22.542 -15.782  0.00  0.00    +0.049 C 
ATOM     19  C   UNL     1      34.513 -22.980 -15.399  0.00  0.00    +0.189 C 
ATOM     20  H   UNL     1      33.053 -21.648 -20.296  0.00  0.00    +0.175 HD
ATOM     21  H   UNL     1      33.544 -23.782 -13.721  0.00  0.00    +0.145 HD
ATOM     22  H   UNL     1      35.204 -23.470 -13.480  0.00  0.00    +0.145 HD
ENDBRANCH   9  14
ENDBRANCH   8   9
ENDBRANCH   2   8
BRANCH   4  23
ATOM     23  O   UNL     1      35.969 -15.782 -22.787  0.00  0.00    -0.452 OA
BRANCH  23  25
ATOM     24 CL   UNL     1      32.352 -13.696 -19.879  0.00  0.00    -0.082 Cl
ATOM     25  C   UNL     1      35.059 -14.756 -22.602  0.00  0.00    +0.147 C 
ATOM     26  C   UNL     1      34.965 -13.757 -23.555  0.00  0.00    +0.048 C 
ATOM     27  C   UNL     1      34.265 -14.753 -21.468  0.00  0.00    +0.049 C 
ATOM     28  C   UNL     1      34.048 -12.723 -23.369  0.00  0.00    +0.072 C 
ATOM     29  C   UNL     1      33.348 -13.719 -21.282  0.00  0.00    +0.061 C 
ATOM     30  C   UNL     1      33.240 -12.704 -22.232  0.00  0.00    +0.022 C 
BRANCH  28  32
ATOM     31  N   UNL     1      33.849 -10.834 -25.135  0.00  0.00    -0.191 NA
ATOM     32  C   UNL     1      33.937 -11.683 -24.342  0.00  0.00    +0.101 C 
ENDBRANCH  28  32
ENDBRANCH  23  25
ENDBRANCH   4  23
TORSDOF 6
ENDMDL
