MODEL 1
REMARK VINA RESULT:     -12.0      0.000      0.000
REMARK  Name = 60870
REMARK  7 active torsions:
REMARK  status: ('A' for Active; 'I' for Inactive)
REMARK    1  A    between atoms: C_2  and  C_4
REMARK    2  A    between atoms: C_2  and  C_18
REMARK    3  A    between atoms: C_3  and  C_9
REMARK    4  A    between atoms: C_9  and  C_14
REMARK    5  A    between atoms: C_18  and  C_19
REMARK    6  A    between atoms: C_19  and  C_22
REMARK    7  A    between atoms: C_24  and  C_26
REMARK                            x       y       z     vdW  Elec       q    Type
REMARK                         _______ _______ _______ _____ _____    ______ ____
ROOT
ATOM      1  O   UNL     1      33.642 -24.102 -18.152  0.00  0.00    -0.291 OA
ATOM      2  C   UNL     1      33.452 -22.878 -17.997  0.00  0.00    +0.173 C 
ENDROOT
BRANCH   2   4
ATOM      3  C   UNL     1      35.269 -20.066 -20.579  0.00  0.00    -0.021 C 
ATOM      4  C   UNL     1      34.077 -21.910 -18.884  0.00  0.00    +0.035 C 
ATOM      5  C   UNL     1      33.886 -20.138 -20.516  0.00  0.00    -0.004 C 
ATOM      6  C   UNL     1      36.067 -20.899 -19.809  0.00  0.00    -0.004 C 
ATOM      7  C   UNL     1      33.286 -21.066 -19.663  0.00  0.00    +0.003 C 
ATOM      8  C   UNL     1      35.468 -21.827 -18.956  0.00  0.00    +0.003 C 
BRANCH   3   9
ATOM      9  C   UNL     1      35.917 -19.063 -21.499  0.00  0.00    +0.047 C 
BRANCH   9  14
ATOM     10  S   UNL     1      34.932 -18.245 -23.937  0.00  0.00    -0.048 S 
ATOM     11  O   UNL     1      35.314 -16.246 -20.658  0.00  0.00    -0.274 OA
ATOM     12  O   UNL     1      35.349 -16.019 -25.271  0.00  0.00    -0.263 OA
ATOM     13  N   UNL     1      35.355 -15.929 -22.948  0.00  0.00    -0.246 N 
ATOM     14  C   UNL     1      34.900 -18.124 -22.122  0.00  0.00    +0.137 C 
ATOM     15  C   UNL     1      35.211 -16.680 -21.800  0.00  0.00    +0.239 C 
ATOM     16  C   UNL     1      35.245 -16.539 -24.170  0.00  0.00    +0.279 C 
ATOM     17  H   UNL     1      35.535 -14.963 -22.890  0.00  0.00    +0.158 HD
ENDBRANCH   9  14
ENDBRANCH   3   9
ENDBRANCH   2   4
BRANCH   2  18
ATOM     18  C   UNL     1      32.542 -22.396 -16.851  0.00  0.00    +0.076 C 
BRANCH  18  19
ATOM     19  C   UNL     1      31.905 -23.539 -16.055  0.00  0.00    +0.066 C 
BRANCH  19  22
ATOM     20  O   UNL     1      33.244 -24.437 -12.778  0.00  0.00    -0.449 OA
ATOM     21  N   UNL     1      34.014 -23.695 -14.772  0.00  0.00    -0.373 NA
ATOM     22  C   UNL     1      32.666 -23.851 -14.801  0.00  0.00    +0.130 C 
ATOM     23  C   UNL     1      32.180 -24.295 -13.618  0.00  0.00    +0.216 C 
ATOM     24  C   UNL     1      34.304 -24.058 -13.542  0.00  0.00    +0.277 C 
ATOM     25  C   UNL     1      30.857 -24.633 -13.081  0.00  0.00    +0.055 C 
BRANCH  24  26
ATOM     26  C   UNL     1      35.581 -24.114 -12.886  0.00  0.00    +0.066 C 
ATOM     27  C   UNL     1      35.695 -23.772 -11.536  0.00  0.00    +0.006 C 
ATOM     28  C   UNL     1      36.719 -24.509 -13.597  0.00  0.00    +0.006 C 
ATOM     29  C   UNL     1      36.936 -23.826 -10.900  0.00  0.00    +0.000 C 
ATOM     30  C   UNL     1      37.960 -24.562 -12.961  0.00  0.00    +0.000 C 
ATOM     31  C   UNL     1      38.067 -24.220 -11.612  0.00  0.00    +0.000 C 
ENDBRANCH  24  26
ENDBRANCH  19  22
ENDBRANCH  18  19
ENDBRANCH   2  18
TORSDOF 7
ENDMDL
MODEL 2
REMARK VINA RESULT:     -11.9      5.023     13.036
REMARK  Name = 60870
REMARK  7 active torsions:
REMARK  status: ('A' for Active; 'I' for Inactive)
REMARK    1  A    between atoms: C_2  and  C_4
REMARK    2  A    between atoms: C_2  and  C_18
REMARK    3  A    between atoms: C_3  and  C_9
REMARK    4  A    between atoms: C_9  and  C_14
REMARK    5  A    between atoms: C_18  and  C_19
REMARK    6  A    between atoms: C_19  and  C_22
REMARK    7  A    between atoms: C_24  and  C_26
REMARK                            x       y       z     vdW  Elec       q    Type
REMARK                         _______ _______ _______ _____ _____    ______ ____
ROOT
ATOM      1  O   UNL     1      35.286 -15.922 -25.213  0.00  0.00    -0.291 OA
ATOM      2  C   UNL     1      35.146 -15.910 -23.973  0.00  0.00    +0.173 C 
ENDROOT
BRANCH   2   4
ATOM      3  C   UNL     1      35.409 -19.485 -21.731  0.00  0.00    -0.021 C 
ATOM      4  C   UNL     1      35.238 -17.140 -23.202  0.00  0.00    +0.035 C 
ATOM      5  C   UNL     1      35.043 -19.544 -23.067  0.00  0.00    -0.004 C 
ATOM      6  C   UNL     1      35.692 -18.274 -21.118  0.00  0.00    -0.004 C 
ATOM      7  C   UNL     1      34.957 -18.364 -23.807  0.00  0.00    +0.003 C 
ATOM      8  C   UNL     1      35.606 -17.094 -21.858  0.00  0.00    +0.003 C 
BRANCH   3   9
ATOM      9  C   UNL     1      35.503 -20.759 -20.932  0.00  0.00    +0.047 C 
BRANCH   9  14
ATOM     10  S   UNL     1      35.421 -21.870 -18.412  0.00  0.00    -0.048 S 
ATOM     11  O   UNL     1      32.563 -20.341 -20.506  0.00  0.00    -0.274 OA
ATOM     12  O   UNL     1      33.675 -23.520 -17.346  0.00  0.00    -0.263 OA
ATOM     13  N   UNL     1      32.919 -21.978 -18.912  0.00  0.00    -0.246 N 
ATOM     14  C   UNL     1      34.782 -20.649 -19.600  0.00  0.00    +0.137 C 
ATOM     15  C   UNL     1      33.307 -20.948 -19.745  0.00  0.00    +0.239 C 
ATOM     16  C   UNL     1      33.855 -22.598 -18.128  0.00  0.00    +0.279 C 
ATOM     17  H   UNL     1      31.978 -22.264 -18.882  0.00  0.00    +0.158 HD
ENDBRANCH   9  14
ENDBRANCH   3   9
ENDBRANCH   2   4
BRANCH   2  18
ATOM     18  C   UNL     1      34.876 -14.572 -23.259  0.00  0.00    +0.076 C 
BRANCH  18  19
ATOM     19  C   UNL     1      33.551 -13.920 -23.663  0.00  0.00    +0.066 C 
BRANCH  19  22
ATOM     20  O   UNL     1      33.978 -10.729 -25.385  0.00  0.00    -0.449 OA
ATOM     21  N   UNL     1      33.844 -11.497 -23.262  0.00  0.00    -0.373 NA
ATOM     22  C   UNL     1      33.735 -12.515 -24.153  0.00  0.00    +0.130 C 
ATOM     23  C   UNL     1      33.812 -12.080 -25.433  0.00  0.00    +0.216 C 
ATOM     24  C   UNL     1      33.988 -10.457 -24.052  0.00  0.00    +0.277 C 
ATOM     25  C   UNL     1      33.759 -12.699 -26.762  0.00  0.00    +0.055 C 
BRANCH  24  26
ATOM     26  C   UNL     1      34.153  -9.071 -23.712  0.00  0.00    +0.066 C 
ATOM     27  C   UNL     1      35.314  -8.388 -24.083  0.00  0.00    +0.006 C 
ATOM     28  C   UNL     1      33.153  -8.397 -23.004  0.00  0.00    +0.006 C 
ATOM     29  C   UNL     1      35.475  -7.042 -23.752  0.00  0.00    +0.000 C 
ATOM     30  C   UNL     1      33.313  -7.051 -22.672  0.00  0.00    +0.000 C 
ATOM     31  C   UNL     1      34.474  -6.374 -23.046  0.00  0.00    +0.000 C 
ENDBRANCH  24  26
ENDBRANCH  19  22
ENDBRANCH  18  19
ENDBRANCH   2  18
TORSDOF 7
ENDMDL
MODEL 3
REMARK VINA RESULT:     -11.7      6.113     10.384
REMARK  Name = 60870
REMARK  7 active torsions:
REMARK  status: ('A' for Active; 'I' for Inactive)
REMARK    1  A    between atoms: C_2  and  C_4
REMARK    2  A    between atoms: C_2  and  C_18
REMARK    3  A    between atoms: C_3  and  C_9
REMARK    4  A    between atoms: C_9  and  C_14
REMARK    5  A    between atoms: C_18  and  C_19
REMARK    6  A    between atoms: C_19  and  C_22
REMARK    7  A    between atoms: C_24  and  C_26
REMARK                            x       y       z     vdW  Elec       q    Type
REMARK                         _______ _______ _______ _____ _____    ______ ____
ROOT
ATOM      1  O   UNL     1      33.732 -14.693 -24.757  0.00  0.00    -0.291 OA
ATOM      2  C   UNL     1      34.027 -14.087 -23.706  0.00  0.00    +0.173 C 
ENDROOT
BRANCH   2   4
ATOM      3  C   UNL     1      33.493  -9.904 -23.398  0.00  0.00    -0.021 C 
ATOM      4  C   UNL     1      33.843 -12.647 -23.601  0.00  0.00    +0.035 C 
ATOM      5  C   UNL     1      34.293 -10.416 -24.408  0.00  0.00    -0.004 C 
ATOM      6  C   UNL     1      32.865 -10.740 -22.487  0.00  0.00    -0.004 C 
ATOM      7  C   UNL     1      34.469 -11.796 -24.511  0.00  0.00    +0.003 C 
ATOM      8  C   UNL     1      33.040 -12.120 -22.589  0.00  0.00    +0.003 C 
BRANCH   3   9
ATOM      9  C   UNL     1      33.303  -8.412 -23.288  0.00  0.00    +0.047 C 
BRANCH   9  14
ATOM     10  S   UNL     1      31.072  -6.798 -23.367  0.00  0.00    -0.048 S 
ATOM     11  O   UNL     1      33.108  -8.010 -20.320  0.00  0.00    -0.274 OA
ATOM     12  O   UNL     1      30.535  -4.587 -22.051  0.00  0.00    -0.263 OA
ATOM     13  N   UNL     1      31.838  -6.203 -21.004  0.00  0.00    -0.246 N 
ATOM     14  C   UNL     1      32.057  -8.056 -22.496  0.00  0.00    +0.137 C 
ATOM     15  C   UNL     1      32.408  -7.450 -21.156  0.00  0.00    +0.239 C 
ATOM     16  C   UNL     1      31.098  -5.671 -22.028  0.00  0.00    +0.279 C 
ATOM     17  H   UNL     1      31.961  -5.699 -20.168  0.00  0.00    +0.158 HD
ENDBRANCH   9  14
ENDBRANCH   3   9
ENDBRANCH   2   4
BRANCH   2  18
ATOM     18  C   UNL     1      34.590 -14.880 -22.512  0.00  0.00    +0.076 C 
BRANCH  18  19
ATOM     19  C   UNL     1      35.647 -15.914 -22.909  0.00  0.00    +0.066 C 
BRANCH  19  22
ATOM     20  O   UNL     1      34.438 -19.351 -22.664  0.00  0.00    -0.449 OA
ATOM     21  N   UNL     1      35.422 -17.808 -21.335  0.00  0.00    -0.373 NA
ATOM     22  C   UNL     1      35.223 -17.315 -22.583  0.00  0.00    +0.130 C 
ATOM     23  C   UNL     1      34.634 -18.220 -23.399  0.00  0.00    +0.216 C 
ATOM     24  C   UNL     1      34.935 -19.024 -21.441  0.00  0.00    +0.277 C 
ATOM     25  C   UNL     1      34.194 -18.250 -24.799  0.00  0.00    +0.055 C 
BRANCH  24  26
ATOM     26  C   UNL     1      34.852 -20.061 -20.450  0.00  0.00    +0.066 C 
ATOM     27  C   UNL     1      33.606 -20.531 -20.025  0.00  0.00    +0.006 C 
ATOM     28  C   UNL     1      36.018 -20.606 -19.904  0.00  0.00    +0.006 C 
ATOM     29  C   UNL     1      33.526 -21.538 -19.062  0.00  0.00    +0.000 C 
ATOM     30  C   UNL     1      35.938 -21.613 -18.941  0.00  0.00    +0.000 C 
ATOM     31  C   UNL     1      34.692 -22.078 -18.520  0.00  0.00    +0.000 C 
ENDBRANCH  24  26
ENDBRANCH  19  22
ENDBRANCH  18  19
ENDBRANCH   2  18
TORSDOF 7
ENDMDL
MODEL 4
REMARK VINA RESULT:     -11.7      1.811      2.743
REMARK  Name = 60870
REMARK  7 active torsions:
REMARK  status: ('A' for Active; 'I' for Inactive)
REMARK    1  A    between atoms: C_2  and  C_4
REMARK    2  A    between atoms: C_2  and  C_18
REMARK    3  A    between atoms: C_3  and  C_9
REMARK    4  A    between atoms: C_9  and  C_14
REMARK    5  A    between atoms: C_18  and  C_19
REMARK    6  A    between atoms: C_19  and  C_22
REMARK    7  A    between atoms: C_24  and  C_26
REMARK                            x       y       z     vdW  Elec       q    Type
REMARK                         _______ _______ _______ _____ _____    ______ ____
ROOT
ATOM      1  O   UNL     1      31.880 -22.373 -17.389  0.00  0.00    -0.291 OA
ATOM      2  C   UNL     1      33.097 -22.521 -17.623  0.00  0.00    +0.173 C 
ENDROOT
BRANCH   2   4
ATOM      3  C   UNL     1      35.021 -20.225 -20.606  0.00  0.00    -0.021 C 
ATOM      4  C   UNL     1      33.759 -21.732 -18.650  0.00  0.00    +0.035 C 
ATOM      5  C   UNL     1      35.778 -21.049 -19.787  0.00  0.00    -0.004 C 
ATOM      6  C   UNL     1      33.644 -20.142 -20.466  0.00  0.00    -0.004 C 
ATOM      7  C   UNL     1      35.143 -21.807 -18.803  0.00  0.00    +0.003 C 
ATOM      8  C   UNL     1      33.009 -20.900 -19.481  0.00  0.00    +0.003 C 
BRANCH   3   9
ATOM      9  C   UNL     1      35.707 -19.407 -21.671  0.00  0.00    +0.047 C 
BRANCH   9  14
ATOM     10  S   UNL     1      34.754 -18.382 -24.043  0.00  0.00    -0.048 S 
ATOM     11  O   UNL     1      35.508 -16.567 -20.721  0.00  0.00    -0.274 OA
ATOM     12  O   UNL     1      35.413 -16.183 -25.323  0.00  0.00    -0.263 OA
ATOM     13  N   UNL     1      35.511 -16.176 -23.000  0.00  0.00    -0.246 N 
ATOM     14  C   UNL     1      34.801 -18.322 -22.225  0.00  0.00    +0.137 C 
ATOM     15  C   UNL     1      35.310 -16.943 -21.871  0.00  0.00    +0.239 C 
ATOM     16  C   UNL     1      35.280 -16.723 -24.235  0.00  0.00    +0.279 C 
ATOM     17  H   UNL     1      35.819 -15.245 -22.920  0.00  0.00    +0.158 HD
ENDBRANCH   9  14
ENDBRANCH   3   9
ENDBRANCH   2   4
BRANCH   2  18
ATOM     18  C   UNL     1      33.900 -23.553 -16.808  0.00  0.00    +0.076 C 
BRANCH  18  19
ATOM     19  C   UNL     1      34.041 -23.186 -15.328  0.00  0.00    +0.066 C 
BRANCH  19  22
ATOM     20  O   UNL     1      36.509 -24.867 -13.228  0.00  0.00    -0.449 OA
ATOM     21  N   UNL     1      36.202 -24.385 -15.417  0.00  0.00    -0.373 NA
ATOM     22  C   UNL     1      35.173 -23.914 -14.668  0.00  0.00    +0.130 C 
ATOM     23  C   UNL     1      35.334 -24.190 -13.352  0.00  0.00    +0.216 C 
ATOM     24  C   UNL     1      36.969 -24.943 -14.506  0.00  0.00    +0.277 C 
ATOM     25  C   UNL     1      34.575 -23.940 -12.121  0.00  0.00    +0.055 C 
BRANCH  24  26
ATOM     26  C   UNL     1      38.224 -25.625 -14.666  0.00  0.00    +0.066 C 
ATOM     27  C   UNL     1      38.300 -26.789 -15.435  0.00  0.00    +0.006 C 
ATOM     28  C   UNL     1      39.376 -25.128 -14.050  0.00  0.00    +0.006 C 
ATOM     29  C   UNL     1      39.519 -27.451 -15.589  0.00  0.00    +0.000 C 
ATOM     30  C   UNL     1      40.595 -25.790 -14.203  0.00  0.00    +0.000 C 
ATOM     31  C   UNL     1      40.665 -26.952 -14.973  0.00  0.00    +0.000 C 
ENDBRANCH  24  26
ENDBRANCH  19  22
ENDBRANCH  18  19
ENDBRANCH   2  18
TORSDOF 7
ENDMDL
MODEL 5
REMARK VINA RESULT:     -11.6      3.194     11.641
REMARK  Name = 60870
REMARK  7 active torsions:
REMARK  status: ('A' for Active; 'I' for Inactive)
REMARK    1  A    between atoms: C_2  and  C_4
REMARK    2  A    between atoms: C_2  and  C_18
REMARK    3  A    between atoms: C_3  and  C_9
REMARK    4  A    between atoms: C_9  and  C_14
REMARK    5  A    between atoms: C_18  and  C_19
REMARK    6  A    between atoms: C_19  and  C_22
REMARK    7  A    between atoms: C_24  and  C_26
REMARK                            x       y       z     vdW  Elec       q    Type
REMARK                         _______ _______ _______ _____ _____    ______ ____
ROOT
ATOM      1  O   UNL     1      35.943 -18.136 -20.701  0.00  0.00    -0.291 OA
ATOM      2  C   UNL     1      35.370 -19.150 -21.150  0.00  0.00    +0.173 C 
ENDROOT
BRANCH   2   4
ATOM      3  C   UNL     1      33.993 -22.184 -18.548  0.00  0.00    -0.021 C 
ATOM      4  C   UNL     1      34.896 -20.195 -20.255  0.00  0.00    +0.035 C 
ATOM      5  C   UNL     1      33.073 -21.415 -19.245  0.00  0.00    -0.004 C 
ATOM      6  C   UNL     1      35.357 -21.976 -18.690  0.00  0.00    -0.004 C 
ATOM      7  C   UNL     1      33.528 -20.414 -20.104  0.00  0.00    +0.003 C 
ATOM      8  C   UNL     1      35.811 -20.975 -19.549  0.00  0.00    +0.003 C 
BRANCH   3   9
ATOM      9  C   UNL     1      33.502 -23.267 -17.620  0.00  0.00    +0.047 C 
BRANCH   9  14
ATOM     10  S   UNL     1      33.946 -23.575 -14.919  0.00  0.00    -0.048 S 
ATOM     11  O   UNL     1      30.728 -22.507 -16.763  0.00  0.00    -0.274 OA
ATOM     12  O   UNL     1      32.444 -24.691 -13.074  0.00  0.00    -0.263 OA
ATOM     13  N   UNL     1      31.393 -23.624 -14.851  0.00  0.00    -0.246 N 
ATOM     14  C   UNL     1      33.086 -22.711 -16.270  0.00  0.00    +0.137 C 
ATOM     15  C   UNL     1      31.609 -22.921 -16.018  0.00  0.00    +0.239 C 
ATOM     16  C   UNL     1      32.466 -24.059 -14.119  0.00  0.00    +0.279 C 
ATOM     17  H   UNL     1      30.476 -23.813 -14.548  0.00  0.00    +0.158 HD
ENDBRANCH   9  14
ENDBRANCH   3   9
ENDBRANCH   2   4
BRANCH   2  18
ATOM     18  C   UNL     1      35.164 -19.287 -22.670  0.00  0.00    +0.076 C 
BRANCH  18  19
ATOM     19  C   UNL     1      35.955 -18.262 -23.489  0.00  0.00    +0.066 C 
BRANCH  19  22
ATOM     20  O   UNL     1      33.480 -16.084 -25.059  0.00  0.00    -0.449 OA
ATOM     21  N   UNL     1      35.418 -15.885 -23.909  0.00  0.00    -0.373 NA
ATOM     22  C   UNL     1      35.076 -17.189 -24.060  0.00  0.00    +0.130 C 
ATOM     23  C   UNL     1      33.918 -17.336 -24.745  0.00  0.00    +0.216 C 
ATOM     24  C   UNL     1      34.432 -15.272 -24.525  0.00  0.00    +0.277 C 
ATOM     25  C   UNL     1      33.091 -18.463 -25.191  0.00  0.00    +0.055 C 
BRANCH  24  26
ATOM     26  C   UNL     1      34.212 -13.865 -24.715  0.00  0.00    +0.066 C 
ATOM     27  C   UNL     1      34.405 -12.972 -23.657  0.00  0.00    +0.006 C 
ATOM     28  C   UNL     1      33.800 -13.380 -25.960  0.00  0.00    +0.006 C 
ATOM     29  C   UNL     1      34.189 -11.606 -23.842  0.00  0.00    +0.000 C 
ATOM     30  C   UNL     1      33.584 -12.014 -26.145  0.00  0.00    +0.000 C 
ATOM     31  C   UNL     1      33.779 -11.127 -25.085  0.00  0.00    +0.000 C 
ENDBRANCH  24  26
ENDBRANCH  19  22
ENDBRANCH  18  19
ENDBRANCH   2  18
TORSDOF 7
ENDMDL
MODEL 6
REMARK VINA RESULT:     -11.5      3.683     11.342
REMARK  Name = 60870
REMARK  7 active torsions:
REMARK  status: ('A' for Active; 'I' for Inactive)
REMARK    1  A    between atoms: C_2  and  C_4
REMARK    2  A    between atoms: C_2  and  C_18
REMARK    3  A    between atoms: C_3  and  C_9
REMARK    4  A    between atoms: C_9  and  C_14
REMARK    5  A    between atoms: C_18  and  C_19
REMARK    6  A    between atoms: C_19  and  C_22
REMARK    7  A    between atoms: C_24  and  C_26
REMARK                            x       y       z     vdW  Elec       q    Type
REMARK                         _______ _______ _______ _____ _____    ______ ____
ROOT
ATOM      1  O   UNL     1      37.188 -18.557 -21.634  0.00  0.00    -0.291 OA
ATOM      2  C   UNL     1      35.948 -18.666 -21.544  0.00  0.00    +0.173 C 
ENDROOT
BRANCH   2   4
ATOM      3  C   UNL     1      34.213 -21.743 -19.220  0.00  0.00    -0.021 C 
ATOM      4  C   UNL     1      35.351 -19.724 -20.743  0.00  0.00    +0.035 C 
ATOM      5  C   UNL     1      35.593 -21.608 -19.251  0.00  0.00    -0.004 C 
ATOM      6  C   UNL     1      33.392 -20.885 -19.937  0.00  0.00    -0.004 C 
ATOM      7  C   UNL     1      36.165 -20.592 -20.017  0.00  0.00    +0.003 C 
ATOM      8  C   UNL     1      33.965 -19.870 -20.704  0.00  0.00    +0.003 C 
BRANCH   3   9
ATOM      9  C   UNL     1      33.594 -22.840 -18.391  0.00  0.00    +0.047 C 
BRANCH   9  14
ATOM     10  S   UNL     1      34.350 -23.368 -15.796  0.00  0.00    -0.048 S 
ATOM     11  O   UNL     1      30.947 -22.155 -17.154  0.00  0.00    -0.274 OA
ATOM     12  O   UNL     1      33.065 -24.634 -13.884  0.00  0.00    -0.263 OA
ATOM     13  N   UNL     1      31.822 -23.425 -15.432  0.00  0.00    -0.246 N 
ATOM     14  C   UNL     1      33.344 -22.397 -16.961  0.00  0.00    +0.137 C 
ATOM     15  C   UNL     1      31.906 -22.628 -16.554  0.00  0.00    +0.239 C 
ATOM     16  C   UNL     1      32.970 -23.918 -14.869  0.00  0.00    +0.279 C 
ATOM     17  H   UNL     1      30.946 -23.639 -15.038  0.00  0.00    +0.158 HD
ENDBRANCH   9  14
ENDBRANCH   3   9
ENDBRANCH   2   4
BRANCH   2  18
ATOM     18  C   UNL     1      35.047 -17.663 -22.289  0.00  0.00    +0.076 C 
BRANCH  18  19
ATOM     19  C   UNL     1      35.725 -16.317 -22.560  0.00  0.00    +0.066 C 
BRANCH  19  22
ATOM     20  O   UNL     1      33.236 -13.862 -23.613  0.00  0.00    -0.449 OA
ATOM     21  N   UNL     1      34.493 -14.317 -21.788  0.00  0.00    -0.373 NA
ATOM     22  C   UNL     1      34.732 -15.214 -22.777  0.00  0.00    +0.130 C 
ATOM     23  C   UNL     1      33.991 -14.963 -23.882  0.00  0.00    +0.216 C 
ATOM     24  C   UNL     1      33.594 -13.534 -22.342  0.00  0.00    +0.277 C 
ATOM     25  C   UNL     1      33.834 -15.573 -25.207  0.00  0.00    +0.055 C 
BRANCH  24  26
ATOM     26  C   UNL     1      32.931 -12.381 -21.798  0.00  0.00    +0.066 C 
ATOM     27  C   UNL     1      32.432 -12.406 -20.493  0.00  0.00    +0.006 C 
ATOM     28  C   UNL     1      32.779 -11.227 -22.573  0.00  0.00    +0.006 C 
ATOM     29  C   UNL     1      31.787 -11.287 -19.965  0.00  0.00    +0.000 C 
ATOM     30  C   UNL     1      32.134 -10.108 -22.046  0.00  0.00    +0.000 C 
ATOM     31  C   UNL     1      31.638 -10.138 -20.742  0.00  0.00    +0.000 C 
ENDBRANCH  24  26
ENDBRANCH  19  22
ENDBRANCH  18  19
ENDBRANCH   2  18
TORSDOF 7
ENDMDL
MODEL 7
REMARK VINA RESULT:     -11.2      6.338     10.537
REMARK  Name = 60870
REMARK  7 active torsions:
REMARK  status: ('A' for Active; 'I' for Inactive)
REMARK    1  A    between atoms: C_2  and  C_4
REMARK    2  A    between atoms: C_2  and  C_18
REMARK    3  A    between atoms: C_3  and  C_9
REMARK    4  A    between atoms: C_9  and  C_14
REMARK    5  A    between atoms: C_18  and  C_19
REMARK    6  A    between atoms: C_19  and  C_22
REMARK    7  A    between atoms: C_24  and  C_26
REMARK                            x       y       z     vdW  Elec       q    Type
REMARK                         _______ _______ _______ _____ _____    ______ ____
ROOT
ATOM      1  O   UNL     1      33.903 -14.293 -24.601  0.00  0.00    -0.291 OA
ATOM      2  C   UNL     1      33.975 -13.867 -23.430  0.00  0.00    +0.173 C 
ENDROOT
BRANCH   2   4
ATOM      3  C   UNL     1      32.471 -10.047 -22.419  0.00  0.00    -0.021 C 
ATOM      4  C   UNL     1      33.457 -12.553 -23.083  0.00  0.00    +0.035 C 
ATOM      5  C   UNL     1      33.412 -10.163 -23.431  0.00  0.00    -0.004 C 
ATOM      6  C   UNL     1      32.014 -11.162 -21.733  0.00  0.00    -0.004 C 
ATOM      7  C   UNL     1      33.908 -11.424 -23.765  0.00  0.00    +0.003 C 
ATOM      8  C   UNL     1      32.510 -12.423 -22.067  0.00  0.00    +0.003 C 
BRANCH   3   9
ATOM      9  C   UNL     1      31.935  -8.685 -22.059  0.00  0.00    +0.047 C 
BRANCH   9  14
ATOM     10  S   UNL     1      33.218  -6.274 -21.703  0.00  0.00    -0.048 S 
ATOM     11  O   UNL     1      31.073  -7.488 -24.673  0.00  0.00    -0.274 OA
ATOM     12  O   UNL     1      32.387  -3.827 -22.183  0.00  0.00    -0.263 OA
ATOM     13  N   UNL     1      31.623  -5.539 -23.558  0.00  0.00    -0.246 N 
ATOM     14  C   UNL     1      32.633  -7.578 -22.829  0.00  0.00    +0.137 C 
ATOM     15  C   UNL     1      31.689  -6.896 -23.794  0.00  0.00    +0.239 C 
ATOM     16  C   UNL     1      32.341  -5.000 -22.522  0.00  0.00    +0.279 C 
ATOM     17  H   UNL     1      31.065  -4.962 -24.127  0.00  0.00    +0.158 HD
ENDBRANCH   9  14
ENDBRANCH   3   9
ENDBRANCH   2   4
BRANCH   2  18
ATOM     18  C   UNL     1      34.620 -14.751 -22.346  0.00  0.00    +0.076 C 
BRANCH  18  19
ATOM     19  C   UNL     1      35.619 -15.769 -22.902  0.00  0.00    +0.066 C 
BRANCH  19  22
ATOM     20  O   UNL     1      34.474 -19.231 -22.705  0.00  0.00    -0.449 OA
ATOM     21  N   UNL     1      35.432 -17.689 -21.354  0.00  0.00    -0.373 NA
ATOM     22  C   UNL     1      35.221 -17.182 -22.595  0.00  0.00    +0.130 C 
ATOM     23  C   UNL     1      34.648 -18.087 -23.424  0.00  0.00    +0.216 C 
ATOM     24  C   UNL     1      34.967 -18.912 -21.477  0.00  0.00    +0.277 C 
ATOM     25  C   UNL     1      34.207 -18.105 -24.823  0.00  0.00    +0.055 C 
BRANCH  24  26
ATOM     26  C   UNL     1      34.904 -19.965 -20.501  0.00  0.00    +0.066 C 
ATOM     27  C   UNL     1      33.668 -20.463 -20.080  0.00  0.00    +0.006 C 
ATOM     28  C   UNL     1      36.081 -20.497 -19.965  0.00  0.00    +0.006 C 
ATOM     29  C   UNL     1      33.608 -21.485 -19.132  0.00  0.00    +0.000 C 
ATOM     30  C   UNL     1      36.021 -21.518 -19.016  0.00  0.00    +0.000 C 
ATOM     31  C   UNL     1      34.784 -22.011 -18.600  0.00  0.00    +0.000 C 
ENDBRANCH  24  26
ENDBRANCH  19  22
ENDBRANCH  18  19
ENDBRANCH   2  18
TORSDOF 7
ENDMDL
MODEL 8
REMARK VINA RESULT:     -11.2      3.676      9.876
REMARK  Name = 60870
REMARK  7 active torsions:
REMARK  status: ('A' for Active; 'I' for Inactive)
REMARK    1  A    between atoms: C_2  and  C_4
REMARK    2  A    between atoms: C_2  and  C_18
REMARK    3  A    between atoms: C_3  and  C_9
REMARK    4  A    between atoms: C_9  and  C_14
REMARK    5  A    between atoms: C_18  and  C_19
REMARK    6  A    between atoms: C_19  and  C_22
REMARK    7  A    between atoms: C_24  and  C_26
REMARK                            x       y       z     vdW  Elec       q    Type
REMARK                         _______ _______ _______ _____ _____    ______ ____
ROOT
ATOM      1  O   UNL     1      32.205 -23.522 -15.388  0.00  0.00    -0.291 OA
ATOM      2  C   UNL     1      33.228 -23.135 -15.990  0.00  0.00    +0.173 C 
ENDROOT
BRANCH   2   4
ATOM      3  C   UNL     1      37.078 -23.928 -14.433  0.00  0.00    -0.021 C 
ATOM      4  C   UNL     1      34.553 -23.408 -15.455  0.00  0.00    +0.035 C 
ATOM      5  C   UNL     1      36.293 -24.981 -14.878  0.00  0.00    -0.004 C 
ATOM      6  C   UNL     1      36.623 -22.619 -14.492  0.00  0.00    -0.004 C 
ATOM      7  C   UNL     1      35.023 -24.719 -15.392  0.00  0.00    +0.003 C 
ATOM      8  C   UNL     1      35.353 -22.358 -15.006  0.00  0.00    +0.003 C 
BRANCH   3   9
ATOM      9  C   UNL     1      38.451 -24.210 -13.879  0.00  0.00    +0.047 C 
BRANCH   9  14
ATOM     10  S   UNL     1      37.209 -25.734 -11.949  0.00  0.00    -0.048 S 
ATOM     11  O   UNL     1      38.552 -22.123 -11.726  0.00  0.00    -0.274 OA
ATOM     12  O   UNL     1      35.341 -25.081 -10.220  0.00  0.00    -0.263 OA
ATOM     13  N   UNL     1      36.879 -23.454 -10.846  0.00  0.00    -0.246 N 
ATOM     14  C   UNL     1      38.420 -24.446 -12.379  0.00  0.00    +0.137 C 
ATOM     15  C   UNL     1      37.983 -23.205 -11.634  0.00  0.00    +0.239 C 
ATOM     16  C   UNL     1      36.315 -24.703 -10.853  0.00  0.00    +0.279 C 
ATOM     17  H   UNL     1      36.499 -22.742 -10.284  0.00  0.00    +0.158 HD
ENDBRANCH   9  14
ENDBRANCH   3   9
ENDBRANCH   2   4
BRANCH   2  18
ATOM     18  C   UNL     1      33.076 -22.364 -17.315  0.00  0.00    +0.076 C 
BRANCH  18  19
ATOM     19  C   UNL     1      34.009 -22.862 -18.422  0.00  0.00    +0.066 C 
BRANCH  19  22
ATOM     20  O   UNL     1      36.247 -20.262 -19.673  0.00  0.00    -0.449 OA
ATOM     21  N   UNL     1      34.169 -21.049 -20.096  0.00  0.00    -0.373 NA
ATOM     22  C   UNL     1      34.753 -21.742 -19.086  0.00  0.00    +0.130 C 
ATOM     23  C   UNL     1      35.999 -21.290 -18.813  0.00  0.00    +0.216 C 
ATOM     24  C   UNL     1      35.104 -20.179 -20.406  0.00  0.00    +0.277 C 
ATOM     25  C   UNL     1      37.064 -21.638 -17.866  0.00  0.00    +0.055 C 
BRANCH  24  26
ATOM     26  C   UNL     1      35.096 -19.153 -21.412  0.00  0.00    +0.066 C 
ATOM     27  C   UNL     1      34.545 -19.404 -22.671  0.00  0.00    +0.006 C 
ATOM     28  C   UNL     1      35.642 -17.895 -21.136  0.00  0.00    +0.006 C 
ATOM     29  C   UNL     1      34.539 -18.408 -23.647  0.00  0.00    +0.000 C 
ATOM     30  C   UNL     1      35.635 -16.898 -22.112  0.00  0.00    +0.000 C 
ATOM     31  C   UNL     1      35.084 -17.155 -23.368  0.00  0.00    +0.000 C 
ENDBRANCH  24  26
ENDBRANCH  19  22
ENDBRANCH  18  19
ENDBRANCH   2  18
TORSDOF 7
ENDMDL
MODEL 9
REMARK VINA RESULT:     -11.1      1.625      2.545
REMARK  Name = 60870
REMARK  7 active torsions:
REMARK  status: ('A' for Active; 'I' for Inactive)
REMARK    1  A    between atoms: C_2  and  C_4
REMARK    2  A    between atoms: C_2  and  C_18
REMARK    3  A    between atoms: C_3  and  C_9
REMARK    4  A    between atoms: C_9  and  C_14
REMARK    5  A    between atoms: C_18  and  C_19
REMARK    6  A    between atoms: C_19  and  C_22
REMARK    7  A    between atoms: C_24  and  C_26
REMARK                            x       y       z     vdW  Elec       q    Type
REMARK                         _______ _______ _______ _____ _____    ______ ____
ROOT
ATOM      1  O   UNL     1      36.697 -21.837 -18.126  0.00  0.00    -0.291 OA
ATOM      2  C   UNL     1      35.799 -21.653 -18.974  0.00  0.00    +0.173 C 
ENDROOT
BRANCH   2   4
ATOM      3  C   UNL     1      36.058 -18.467 -21.741  0.00  0.00    -0.021 C 
ATOM      4  C   UNL     1      35.888 -20.557 -19.927  0.00  0.00    +0.035 C 
ATOM      5  C   UNL     1      37.189 -18.853 -21.039  0.00  0.00    -0.004 C 
ATOM      6  C   UNL     1      34.843 -19.108 -21.552  0.00  0.00    -0.004 C 
ATOM      7  C   UNL     1      37.104 -19.905 -20.126  0.00  0.00    +0.003 C 
ATOM      8  C   UNL     1      34.757 -20.160 -20.639  0.00  0.00    +0.003 C 
BRANCH   3   9
ATOM      9  C   UNL     1      36.150 -17.331 -22.728  0.00  0.00    +0.047 C 
BRANCH   9  14
ATOM     10  S   UNL     1      34.411 -16.620 -24.742  0.00  0.00    -0.048 S 
ATOM     11  O   UNL     1      35.065 -14.895 -21.352  0.00  0.00    -0.274 OA
ATOM     12  O   UNL     1      33.889 -14.259 -25.773  0.00  0.00    -0.263 OA
ATOM     13  N   UNL     1      34.450 -14.377 -23.520  0.00  0.00    -0.246 N 
ATOM     14  C   UNL     1      34.802 -16.675 -22.966  0.00  0.00    +0.137 C 
ATOM     15  C   UNL     1      34.797 -15.236 -22.499  0.00  0.00    +0.239 C 
ATOM     16  C   UNL     1      34.202 -14.882 -24.770  0.00  0.00    +0.279 C 
ATOM     17  H   UNL     1      34.382 -13.410 -23.354  0.00  0.00    +0.158 HD
ENDBRANCH   9  14
ENDBRANCH   3   9
ENDBRANCH   2   4
BRANCH   2  18
ATOM     18  C   UNL     1      34.587 -22.603 -19.005  0.00  0.00    +0.076 C 
BRANCH  18  19
ATOM     19  C   UNL     1      33.509 -22.253 -17.975  0.00  0.00    +0.066 C 
BRANCH  19  22
ATOM     20  O   UNL     1      33.447 -23.893 -14.713  0.00  0.00    -0.449 OA
ATOM     21  N   UNL     1      34.944 -23.442 -16.349  0.00  0.00    -0.373 NA
ATOM     22  C   UNL     1      33.715 -22.966 -16.672  0.00  0.00    +0.130 C 
ATOM     23  C   UNL     1      32.800 -23.223 -15.708  0.00  0.00    +0.216 C 
ATOM     24  C   UNL     1      34.725 -23.984 -15.171  0.00  0.00    +0.277 C 
ATOM     25  C   UNL     1      31.370 -22.960 -15.513  0.00  0.00    +0.055 C 
BRANCH  24  26
ATOM     26  C   UNL     1      35.642 -24.661 -14.296  0.00  0.00    +0.066 C 
ATOM     27  C   UNL     1      36.510 -25.633 -14.801  0.00  0.00    +0.006 C 
ATOM     28  C   UNL     1      35.669 -24.353 -12.932  0.00  0.00    +0.006 C 
ATOM     29  C   UNL     1      37.399 -26.291 -13.951  0.00  0.00    +0.000 C 
ATOM     30  C   UNL     1      36.557 -25.012 -12.082  0.00  0.00    +0.000 C 
ATOM     31  C   UNL     1      37.422 -25.981 -12.592  0.00  0.00    +0.000 C 
ENDBRANCH  24  26
ENDBRANCH  19  22
ENDBRANCH  18  19
ENDBRANCH   2  18
TORSDOF 7
ENDMDL
