MODEL 1
REMARK VINA RESULT:     -12.1      0.000      0.000
REMARK  Name = 11697676
REMARK  7 active torsions:
REMARK  status: ('A' for Active; 'I' for Inactive)
REMARK    1  A    between atoms: N_1  and  C_18
REMARK    2  A    between atoms: N_2  and  C_8
REMARK    3  A    between atoms: C_18  and  C_19
REMARK    4  A    between atoms: C_19  and  C_20
REMARK    5  A    between atoms: C_20  and  C_21
REMARK    6  A    between atoms: C_21  and  O_22
REMARK    7  A    between atoms: O_22  and  C_28
REMARK                            x       y       z     vdW  Elec       q    Type
REMARK                         _______ _______ _______ _____ _____    ______ ____
ROOT
ATOM      1  N   UNL     1      34.864 -16.131 -24.406  0.00  0.00    +0.389 N 
ATOM      2  N   UNL     1      33.975 -13.484 -23.801  0.00  0.00    -0.312 N 
ATOM      3  C   UNL     1      33.668 -15.582 -25.058  0.00  0.00    -0.055 C 
ATOM      4  C   UNL     1      34.975 -15.603 -23.041  0.00  0.00    -0.055 C 
ATOM      5  C   UNL     1      33.735 -14.054 -25.132  0.00  0.00    +0.068 C 
ATOM      6  C   UNL     1      35.085 -14.076 -23.048  0.00  0.00    +0.068 C 
ATOM      7  H   UNL     1      35.687 -15.847 -24.937  0.00  0.00    -0.080 HD
ENDROOT
BRANCH   2   8
ATOM      8  C   UNL     1      33.628 -12.146 -23.587  0.00  0.00    +0.048 C 
ATOM      9  C   UNL     1      32.913 -11.710 -22.436  0.00  0.00    +0.013 C 
ATOM     10  C   UNL     1      33.998 -11.181 -24.549  0.00  0.00    +0.015 C 
ATOM     11  C   UNL     1      32.586 -10.344 -22.269  0.00  0.00    +0.001 C 
ATOM     12  C   UNL     1      32.523 -12.635 -21.453  0.00  0.00    +0.001 C 
ATOM     13  C   UNL     1      33.677  -9.836 -24.384  0.00  0.00    +0.001 C 
ATOM     14  C   UNL     1      32.977  -9.419 -23.252  0.00  0.00    +0.000 C 
ATOM     15  C   UNL     1      31.880  -9.941 -21.124  0.00  0.00    +0.000 C 
ATOM     16  C   UNL     1      31.822 -12.218 -20.322  0.00  0.00    +0.000 C 
ATOM     17  C   UNL     1      31.500 -10.873 -20.158  0.00  0.00    +0.000 C 
ENDBRANCH   2   8
BRANCH   1  18
ATOM     18  C   UNL     1      34.813 -17.592 -24.389  0.00  0.00    -0.077 C 
BRANCH  18  19
ATOM     19  C   UNL     1      35.754 -18.143 -23.319  0.00  0.00    -0.019 C 
BRANCH  19  20
ATOM     20  C   UNL     1      35.175 -19.398 -22.668  0.00  0.00    +0.045 C 
BRANCH  20  21
ATOM     21  C   UNL     1      34.777 -19.147 -21.219  0.00  0.00    +0.208 C 
BRANCH  21  22
ATOM     22  O   UNL     1      33.669 -19.967 -20.875  0.00  0.00    -0.452 OA
BRANCH  22  28
ATOM     23  O   UNL     1      30.667 -23.371 -15.571  0.00  0.00    -0.275 OA
ATOM     24  N   UNL     1      31.691 -22.310 -17.332  0.00  0.00    -0.263 N 
ATOM     25  N   UNL     1      32.700 -21.131 -19.117  0.00  0.00    -0.357 NA
ATOM     26  C   UNL     1      34.085 -22.433 -17.624  0.00  0.00    +0.090 C 
ATOM     27  C   UNL     1      34.163 -23.415 -16.494  0.00  0.00    +0.022 C 
ATOM     28  C   UNL     1      33.822 -20.791 -19.790  0.00  0.00    +0.278 C 
ATOM     29  C   UNL     1      32.849 -21.937 -18.040  0.00  0.00    +0.170 C 
ATOM     30  C   UNL     1      33.054 -23.166 -15.484  0.00  0.00    +0.086 C 
ATOM     31  C   UNL     1      35.216 -22.069 -18.355  0.00  0.00    -0.012 C 
ATOM     32  C   UNL     1      35.091 -21.226 -19.452  0.00  0.00    +0.068 C 
ATOM     33  C   UNL     1      31.696 -22.998 -16.134  0.00  0.00    +0.228 C 
ATOM     34  H   UNL     1      30.819 -22.065 -17.717  0.00  0.00    +0.157 HD
ENDBRANCH  22  28
ENDBRANCH  21  22
ENDBRANCH  20  21
ENDBRANCH  19  20
ENDBRANCH  18  19
ENDBRANCH   1  18
TORSDOF 7
ENDMDL
MODEL 2
REMARK VINA RESULT:     -11.9      0.701      1.990
REMARK  Name = 11697676
REMARK  7 active torsions:
REMARK  status: ('A' for Active; 'I' for Inactive)
REMARK    1  A    between atoms: N_1  and  C_18
REMARK    2  A    between atoms: N_2  and  C_8
REMARK    3  A    between atoms: C_18  and  C_19
REMARK    4  A    between atoms: C_19  and  C_20
REMARK    5  A    between atoms: C_20  and  C_21
REMARK    6  A    between atoms: C_21  and  O_22
REMARK    7  A    between atoms: O_22  and  C_28
REMARK                            x       y       z     vdW  Elec       q    Type
REMARK                         _______ _______ _______ _____ _____    ______ ____
ROOT
ATOM      1  N   UNL     1      35.045 -15.592 -24.105  0.00  0.00    +0.389 N 
ATOM      2  N   UNL     1      33.658 -13.313 -23.085  0.00  0.00    -0.312 N 
ATOM      3  C   UNL     1      33.845 -15.088 -24.785  0.00  0.00    -0.055 C 
ATOM      4  C   UNL     1      34.925 -15.381 -22.657  0.00  0.00    -0.055 C 
ATOM      5  C   UNL     1      33.655 -13.592 -24.526  0.00  0.00    +0.068 C 
ATOM      6  C   UNL     1      34.771 -13.894 -22.329  0.00  0.00    +0.068 C 
ATOM      7  H   UNL     1      35.857 -15.077 -24.447  0.00  0.00    -0.080 HD
ENDROOT
BRANCH   2   8
ATOM      8  C   UNL     1      33.065 -12.124 -22.645  0.00  0.00    +0.048 C 
ATOM      9  C   UNL     1      33.505 -10.840 -23.070  0.00  0.00    +0.013 C 
ATOM     10  C   UNL     1      31.984 -12.194 -21.739  0.00  0.00    +0.015 C 
ATOM     11  C   UNL     1      32.870  -9.669 -22.593  0.00  0.00    +0.001 C 
ATOM     12  C   UNL     1      34.577 -10.722 -23.970  0.00  0.00    +0.001 C 
ATOM     13  C   UNL     1      31.358 -11.042 -21.270  0.00  0.00    +0.001 C 
ATOM     14  C   UNL     1      31.797  -9.788 -21.694  0.00  0.00    +0.000 C 
ATOM     15  C   UNL     1      33.325  -8.415 -23.030  0.00  0.00    +0.000 C 
ATOM     16  C   UNL     1      35.016  -9.467 -24.393  0.00  0.00    +0.000 C 
ATOM     17  C   UNL     1      34.392  -8.315 -23.924  0.00  0.00    +0.000 C 
ENDBRANCH   2   8
BRANCH   1  18
ATOM     18  C   UNL     1      35.246 -17.010 -24.403  0.00  0.00    -0.077 C 
BRANCH  18  19
ATOM     19  C   UNL     1      35.713 -17.753 -23.153  0.00  0.00    -0.019 C 
BRANCH  19  20
ATOM     20  C   UNL     1      34.785 -18.921 -22.825  0.00  0.00    +0.045 C 
BRANCH  20  21
ATOM     21  C   UNL     1      34.991 -19.422 -21.402  0.00  0.00    +0.208 C 
BRANCH  21  22
ATOM     22  O   UNL     1      33.799 -20.033 -20.929  0.00  0.00    -0.452 OA
BRANCH  22  28
ATOM     23  O   UNL     1      30.596 -23.307 -15.660  0.00  0.00    -0.275 OA
ATOM     24  N   UNL     1      31.687 -22.289 -17.407  0.00  0.00    -0.263 N 
ATOM     25  N   UNL     1      32.764 -21.154 -19.181  0.00  0.00    -0.357 NA
ATOM     26  C   UNL     1      34.090 -22.420 -17.606  0.00  0.00    +0.090 C 
ATOM     27  C   UNL     1      34.124 -23.375 -16.450  0.00  0.00    +0.022 C 
ATOM     28  C   UNL     1      33.910 -20.831 -19.819  0.00  0.00    +0.278 C 
ATOM     29  C   UNL     1      32.871 -21.934 -18.079  0.00  0.00    +0.170 C 
ATOM     30  C   UNL     1      32.979 -23.101 -15.489  0.00  0.00    +0.086 C 
ATOM     31  C   UNL     1      35.248 -22.075 -18.303  0.00  0.00    -0.012 C 
ATOM     32  C   UNL     1      35.165 -21.259 -19.423  0.00  0.00    +0.068 C 
ATOM     33  C   UNL     1      31.646 -22.948 -16.193  0.00  0.00    +0.228 C 
ATOM     34  H   UNL     1      30.830 -22.053 -17.830  0.00  0.00    +0.157 HD
ENDBRANCH  22  28
ENDBRANCH  21  22
ENDBRANCH  20  21
ENDBRANCH  19  20
ENDBRANCH  18  19
ENDBRANCH   1  18
TORSDOF 7
ENDMDL
MODEL 3
REMARK VINA RESULT:     -11.8      2.878      5.359
REMARK  Name = 11697676
REMARK  7 active torsions:
REMARK  status: ('A' for Active; 'I' for Inactive)
REMARK    1  A    between atoms: N_1  and  C_18
REMARK    2  A    between atoms: N_2  and  C_8
REMARK    3  A    between atoms: C_18  and  C_19
REMARK    4  A    between atoms: C_19  and  C_20
REMARK    5  A    between atoms: C_20  and  C_21
REMARK    6  A    between atoms: C_21  and  O_22
REMARK    7  A    between atoms: O_22  and  C_28
REMARK                            x       y       z     vdW  Elec       q    Type
REMARK                         _______ _______ _______ _____ _____    ______ ____
ROOT
ATOM      1  N   UNL     1      35.914 -20.847 -19.976  0.00  0.00    +0.389 N 
ATOM      2  N   UNL     1      35.490 -18.577 -21.657  0.00  0.00    -0.312 N 
ATOM      3  C   UNL     1      34.555 -20.345 -20.217  0.00  0.00    -0.055 C 
ATOM      4  C   UNL     1      36.865 -19.729 -19.970  0.00  0.00    -0.055 C 
ATOM      5  C   UNL     1      34.466 -19.626 -21.565  0.00  0.00    +0.068 C 
ATOM      6  C   UNL     1      36.853 -18.989 -21.309  0.00  0.00    +0.068 C 
ATOM      7  H   UNL     1      36.165 -21.490 -20.727  0.00  0.00    -0.080 HD
ENDROOT
BRANCH   2   8
ATOM      8  C   UNL     1      35.291 -17.544 -22.580  0.00  0.00    +0.048 C 
ATOM      9  C   UNL     1      35.022 -16.203 -22.189  0.00  0.00    +0.013 C 
ATOM     10  C   UNL     1      35.357 -17.838 -23.960  0.00  0.00    +0.015 C 
ATOM     11  C   UNL     1      34.829 -15.196 -23.164  0.00  0.00    +0.001 C 
ATOM     12  C   UNL     1      34.947 -15.864 -20.828  0.00  0.00    +0.001 C 
ATOM     13  C   UNL     1      35.167 -16.847 -24.919  0.00  0.00    +0.001 C 
ATOM     14  C   UNL     1      34.905 -15.535 -24.525  0.00  0.00    +0.000 C 
ATOM     15  C   UNL     1      34.565 -13.880 -22.750  0.00  0.00    +0.000 C 
ATOM     16  C   UNL     1      34.685 -14.552 -20.434  0.00  0.00    +0.000 C 
ATOM     17  C   UNL     1      34.494 -13.562 -21.394  0.00  0.00    +0.000 C 
ENDBRANCH   2   8
BRANCH   1  18
ATOM     18  C   UNL     1      35.973 -21.579 -18.711  0.00  0.00    -0.077 C 
BRANCH  18  19
ATOM     19  C   UNL     1      37.112 -21.047 -17.843  0.00  0.00    -0.019 C 
BRANCH  19  20
ATOM     20  C   UNL     1      37.453 -22.024 -16.720  0.00  0.00    +0.045 C 
BRANCH  20  21
ATOM     21  C   UNL     1      36.286 -22.207 -15.759  0.00  0.00    +0.208 C 
BRANCH  21  22
ATOM     22  O   UNL     1      35.645 -23.450 -16.012  0.00  0.00    -0.452 OA
BRANCH  22  28
ATOM     23  O   UNL     1      28.875 -22.016 -16.932  0.00  0.00    -0.275 OA
ATOM     24  N   UNL     1      31.086 -22.556 -16.616  0.00  0.00    -0.263 N 
ATOM     25  N   UNL     1      33.385 -23.013 -16.301  0.00  0.00    -0.357 NA
ATOM     26  C   UNL     1      31.781 -23.836 -14.691  0.00  0.00    +0.090 C 
ATOM     27  C   UNL     1      30.343 -24.034 -14.315  0.00  0.00    +0.022 C 
ATOM     28  C   UNL     1      34.359 -23.586 -15.558  0.00  0.00    +0.278 C 
ATOM     29  C   UNL     1      32.114 -23.137 -15.851  0.00  0.00    +0.170 C 
ATOM     30  C   UNL     1      29.498 -22.857 -14.775  0.00  0.00    +0.086 C 
ATOM     31  C   UNL     1      32.815 -24.425 -13.962  0.00  0.00    -0.012 C 
ATOM     32  C   UNL     1      34.128 -24.293 -14.392  0.00  0.00    +0.068 C 
ATOM     33  C   UNL     1      29.767 -22.468 -16.213  0.00  0.00    +0.228 C 
ATOM     34  H   UNL     1      31.321 -22.187 -17.498  0.00  0.00    +0.157 HD
ENDBRANCH  22  28
ENDBRANCH  21  22
ENDBRANCH  20  21
ENDBRANCH  19  20
ENDBRANCH  18  19
ENDBRANCH   1  18
TORSDOF 7
ENDMDL
MODEL 4
REMARK VINA RESULT:     -11.7      1.972      2.274
REMARK  Name = 11697676
REMARK  7 active torsions:
REMARK  status: ('A' for Active; 'I' for Inactive)
REMARK    1  A    between atoms: N_1  and  C_18
REMARK    2  A    between atoms: N_2  and  C_8
REMARK    3  A    between atoms: C_18  and  C_19
REMARK    4  A    between atoms: C_19  and  C_20
REMARK    5  A    between atoms: C_20  and  C_21
REMARK    6  A    between atoms: C_21  and  O_22
REMARK    7  A    between atoms: O_22  and  C_28
REMARK                            x       y       z     vdW  Elec       q    Type
REMARK                         _______ _______ _______ _____ _____    ______ ____
ROOT
ATOM      1  N   UNL     1      34.863 -16.182 -24.422  0.00  0.00    +0.389 N 
ATOM      2  N   UNL     1      34.015 -13.521 -23.825  0.00  0.00    -0.312 N 
ATOM      3  C   UNL     1      33.679 -15.616 -25.080  0.00  0.00    -0.055 C 
ATOM      4  C   UNL     1      34.976 -15.654 -23.057  0.00  0.00    -0.055 C 
ATOM      5  C   UNL     1      33.771 -14.090 -25.156  0.00  0.00    +0.068 C 
ATOM      6  C   UNL     1      35.111 -14.130 -23.066  0.00  0.00    +0.068 C 
ATOM      7  H   UNL     1      35.694 -15.913 -24.949  0.00  0.00    -0.080 HD
ENDROOT
BRANCH   2   8
ATOM      8  C   UNL     1      33.687 -12.177 -23.615  0.00  0.00    +0.048 C 
ATOM      9  C   UNL     1      32.946 -11.732 -22.485  0.00  0.00    +0.013 C 
ATOM     10  C   UNL     1      34.107 -11.215 -24.560  0.00  0.00    +0.015 C 
ATOM     11  C   UNL     1      32.642 -10.360 -22.321  0.00  0.00    +0.001 C 
ATOM     12  C   UNL     1      32.508 -12.653 -21.520  0.00  0.00    +0.001 C 
ATOM     13  C   UNL     1      33.808  -9.865 -24.398  0.00  0.00    +0.001 C 
ATOM     14  C   UNL     1      33.081  -9.439 -23.287  0.00  0.00    +0.000 C 
ATOM     15  C   UNL     1      31.909  -9.949 -21.196  0.00  0.00    +0.000 C 
ATOM     16  C   UNL     1      31.780 -12.227 -20.408  0.00  0.00    +0.000 C 
ATOM     17  C   UNL     1      31.481 -10.877 -20.247  0.00  0.00    +0.000 C 
ENDBRANCH   2   8
BRANCH   1  18
ATOM     18  C   UNL     1      34.789 -17.643 -24.403  0.00  0.00    -0.077 C 
BRANCH  18  19
ATOM     19  C   UNL     1      35.630 -18.202 -23.257  0.00  0.00    -0.019 C 
BRANCH  19  20
ATOM     20  C   UNL     1      34.944 -19.398 -22.600  0.00  0.00    +0.045 C 
BRANCH  20  21
ATOM     21  C   UNL     1      35.028 -19.330 -21.081  0.00  0.00    +0.208 C 
BRANCH  21  22
ATOM     22  O   UNL     1      35.973 -20.279 -20.607  0.00  0.00    -0.452 OA
BRANCH  22  28
ATOM     23  O   UNL     1      37.974 -22.965 -14.483  0.00  0.00    -0.275 OA
ATOM     24  N   UNL     1      37.257 -22.056 -16.466  0.00  0.00    -0.263 N 
ATOM     25  N   UNL     1      36.598 -21.164 -18.556  0.00  0.00    -0.357 NA
ATOM     26  C   UNL     1      34.990 -22.386 -17.228  0.00  0.00    +0.090 C 
ATOM     27  C   UNL     1      34.661 -23.055 -15.927  0.00  0.00    +0.022 C 
ATOM     28  C   UNL     1      35.631 -20.986 -19.483  0.00  0.00    +0.278 C 
ATOM     29  C   UNL     1      36.266 -21.869 -17.448  0.00  0.00    +0.170 C 
ATOM     30  C   UNL     1      35.884 -23.752 -15.354  0.00  0.00    +0.086 C 
ATOM     31  C   UNL     1      34.018 -22.168 -18.204  0.00  0.00    -0.012 C 
ATOM     32  C   UNL     1      34.340 -21.465 -19.358  0.00  0.00    +0.068 C 
ATOM     33  C   UNL     1      37.117 -22.874 -15.362  0.00  0.00    +0.228 C 
ATOM     34  H   UNL     1      38.107 -21.570 -16.573  0.00  0.00    +0.157 HD
ENDBRANCH  22  28
ENDBRANCH  21  22
ENDBRANCH  20  21
ENDBRANCH  19  20
ENDBRANCH  18  19
ENDBRANCH   1  18
TORSDOF 7
ENDMDL
MODEL 5
REMARK VINA RESULT:     -11.7      4.083      7.731
REMARK  Name = 11697676
REMARK  7 active torsions:
REMARK  status: ('A' for Active; 'I' for Inactive)
REMARK    1  A    between atoms: N_1  and  C_18
REMARK    2  A    between atoms: N_2  and  C_8
REMARK    3  A    between atoms: C_18  and  C_19
REMARK    4  A    between atoms: C_19  and  C_20
REMARK    5  A    between atoms: C_20  and  C_21
REMARK    6  A    between atoms: C_21  and  O_22
REMARK    7  A    between atoms: O_22  and  C_28
REMARK                            x       y       z     vdW  Elec       q    Type
REMARK                         _______ _______ _______ _____ _____    ______ ____
ROOT
ATOM      1  N   UNL     1      31.842  -9.174 -20.355  0.00  0.00    +0.389 N 
ATOM      2  N   UNL     1      32.294  -6.900 -22.023  0.00  0.00    -0.312 N 
ATOM      3  C   UNL     1      32.683  -8.066 -19.886  0.00  0.00    -0.055 C 
ATOM      4  C   UNL     1      31.990  -9.335 -21.807  0.00  0.00    -0.055 C 
ATOM      5  C   UNL     1      32.286  -6.751 -20.563  0.00  0.00    +0.068 C 
ATOM      6  C   UNL     1      31.570  -8.062 -22.546  0.00  0.00    +0.068 C 
ATOM      7  H   UNL     1      30.867  -8.959 -20.145  0.00  0.00    -0.080 HD
ENDROOT
BRANCH   2   8
ATOM      8  C   UNL     1      32.403  -5.742 -22.801  0.00  0.00    +0.048 C 
ATOM      9  C   UNL     1      33.419  -5.565 -23.781  0.00  0.00    +0.013 C 
ATOM     10  C   UNL     1      31.469  -4.701 -22.611  0.00  0.00    +0.015 C 
ATOM     11  C   UNL     1      33.484  -4.374 -24.541  0.00  0.00    +0.001 C 
ATOM     12  C   UNL     1      34.370  -6.574 -24.004  0.00  0.00    +0.001 C 
ATOM     13  C   UNL     1      31.532  -3.528 -23.360  0.00  0.00    +0.001 C 
ATOM     14  C   UNL     1      32.532  -3.365 -24.318  0.00  0.00    +0.000 C 
ATOM     15  C   UNL     1      34.497  -4.225 -25.502  0.00  0.00    +0.000 C 
ATOM     16  C   UNL     1      35.370  -6.410 -24.963  0.00  0.00    +0.000 C 
ATOM     17  C   UNL     1      35.434  -5.238 -25.710  0.00  0.00    +0.000 C 
ENDBRANCH   2   8
BRANCH   1  18
ATOM     18  C   UNL     1      32.194 -10.413 -19.663  0.00  0.00    -0.077 C 
BRANCH  18  19
ATOM     19  C   UNL     1      31.547 -11.611 -20.355  0.00  0.00    -0.019 C 
BRANCH  19  20
ATOM     20  C   UNL     1      32.578 -12.695 -20.664  0.00  0.00    +0.045 C 
BRANCH  20  21
ATOM     21  C   UNL     1      32.777 -12.870 -22.164  0.00  0.00    +0.208 C 
BRANCH  21  22
ATOM     22  O   UNL     1      34.153 -13.082 -22.446  0.00  0.00    -0.452 OA
BRANCH  22  28
ATOM     23  O   UNL     1      36.651 -19.259 -20.363  0.00  0.00    -0.275 OA
ATOM     24  N   UNL     1      35.779 -17.261 -21.085  0.00  0.00    -0.263 N 
ATOM     25  N   UNL     1      34.958 -15.155 -21.783  0.00  0.00    -0.357 NA
ATOM     26  C   UNL     1      35.277 -16.905 -23.420  0.00  0.00    +0.090 C 
ATOM     27  C   UNL     1      35.600 -18.342 -23.699  0.00  0.00    +0.022 C 
ATOM     28  C   UNL     1      34.526 -14.357 -22.785  0.00  0.00    +0.278 C 
ATOM     29  C   UNL     1      35.336 -16.412 -22.117  0.00  0.00    +0.170 C 
ATOM     30  C   UNL     1      36.648 -18.859 -22.727  0.00  0.00    +0.086 C 
ATOM     31  C   UNL     1      34.812 -16.053 -24.422  0.00  0.00    -0.012 C 
ATOM     32  C   UNL     1      34.438 -14.753 -24.108  0.00  0.00    +0.068 C 
ATOM     33  C   UNL     1      36.336 -18.509 -21.287  0.00  0.00    +0.228 C 
ATOM     34  H   UNL     1      35.685 -16.944 -20.157  0.00  0.00    +0.157 HD
ENDBRANCH  22  28
ENDBRANCH  21  22
ENDBRANCH  20  21
ENDBRANCH  19  20
ENDBRANCH  18  19
ENDBRANCH   1  18
TORSDOF 7
ENDMDL
MODEL 6
REMARK VINA RESULT:     -11.5      4.069      7.719
REMARK  Name = 11697676
REMARK  7 active torsions:
REMARK  status: ('A' for Active; 'I' for Inactive)
REMARK    1  A    between atoms: N_1  and  C_18
REMARK    2  A    between atoms: N_2  and  C_8
REMARK    3  A    between atoms: C_18  and  C_19
REMARK    4  A    between atoms: C_19  and  C_20
REMARK    5  A    between atoms: C_20  and  C_21
REMARK    6  A    between atoms: C_21  and  O_22
REMARK    7  A    between atoms: O_22  and  C_28
REMARK                            x       y       z     vdW  Elec       q    Type
REMARK                         _______ _______ _______ _____ _____    ______ ____
ROOT
ATOM      1  N   UNL     1      32.508  -9.116 -20.989  0.00  0.00    +0.389 N 
ATOM      2  N   UNL     1      33.315  -7.150 -22.897  0.00  0.00    -0.312 N 
ATOM      3  C   UNL     1      31.960  -9.135 -22.351  0.00  0.00    -0.055 C 
ATOM      4  C   UNL     1      32.756  -7.732 -20.569  0.00  0.00    -0.055 C 
ATOM      5  C   UNL     1      32.934  -8.496 -23.343  0.00  0.00    +0.068 C 
ATOM      6  C   UNL     1      33.756  -7.045 -21.503  0.00  0.00    +0.068 C 
ATOM      7  H   UNL     1      33.391  -9.627 -20.982  0.00  0.00    -0.080 HD
ENDROOT
BRANCH   2   8
ATOM      8  C   UNL     1      33.814  -6.257 -23.852  0.00  0.00    +0.048 C 
ATOM      9  C   UNL     1      33.101  -5.099 -24.270  0.00  0.00    +0.013 C 
ATOM     10  C   UNL     1      35.077  -6.510 -24.430  0.00  0.00    +0.015 C 
ATOM     11  C   UNL     1      33.653  -4.229 -25.240  0.00  0.00    +0.001 C 
ATOM     12  C   UNL     1      31.842  -4.807 -23.723  0.00  0.00    +0.001 C 
ATOM     13  C   UNL     1      35.620  -5.654 -25.384  0.00  0.00    +0.001 C 
ATOM     14  C   UNL     1      34.913  -4.521 -25.787  0.00  0.00    +0.000 C 
ATOM     15  C   UNL     1      32.928  -3.093 -25.635  0.00  0.00    +0.000 C 
ATOM     16  C   UNL     1      31.135  -3.674 -24.126  0.00  0.00    +0.000 C 
ATOM     17  C   UNL     1      31.677  -2.818 -25.081  0.00  0.00    +0.000 C 
ENDBRANCH   2   8
BRANCH   1  18
ATOM     18  C   UNL     1      31.592  -9.778 -20.059  0.00  0.00    -0.077 C 
BRANCH  18  19
ATOM     19  C   UNL     1      31.096 -11.096 -20.651  0.00  0.00    -0.019 C 
BRANCH  19  20
ATOM     20  C   UNL     1      32.164 -12.184 -20.549  0.00  0.00    +0.045 C 
BRANCH  20  21
ATOM     21  C   UNL     1      32.605 -12.670 -21.923  0.00  0.00    +0.208 C 
BRANCH  21  22
ATOM     22  O   UNL     1      34.006 -12.908 -21.924  0.00  0.00    -0.452 OA
BRANCH  22  28
ATOM     23  O   UNL     1      36.537 -19.245 -20.451  0.00  0.00    -0.275 OA
ATOM     24  N   UNL     1      35.657 -17.190 -20.979  0.00  0.00    -0.263 N 
ATOM     25  N   UNL     1      34.824 -15.030 -21.468  0.00  0.00    -0.357 NA
ATOM     26  C   UNL     1      35.270 -16.567 -23.280  0.00  0.00    +0.090 C 
ATOM     27  C   UNL     1      35.640 -17.955 -23.708  0.00  0.00    +0.022 C 
ATOM     28  C   UNL     1      34.426 -14.126 -22.391  0.00  0.00    +0.278 C 
ATOM     29  C   UNL     1      35.248 -16.232 -21.926  0.00  0.00    +0.170 C 
ATOM     30  C   UNL     1      36.649 -18.565 -22.748  0.00  0.00    +0.086 C 
ATOM     31  C   UNL     1      34.838 -15.610 -24.198  0.00  0.00    -0.012 C 
ATOM     32  C   UNL     1      34.417 -14.363 -23.753  0.00  0.00    +0.068 C 
ATOM     33  C   UNL     1      36.253 -18.395 -21.296  0.00  0.00    +0.228 C 
ATOM     34  H   UNL     1      35.507 -16.988 -20.027  0.00  0.00    +0.157 HD
ENDBRANCH  22  28
ENDBRANCH  21  22
ENDBRANCH  20  21
ENDBRANCH  19  20
ENDBRANCH  18  19
ENDBRANCH   1  18
TORSDOF 7
ENDMDL
MODEL 7
REMARK VINA RESULT:     -11.5      2.114      3.418
REMARK  Name = 11697676
REMARK  7 active torsions:
REMARK  status: ('A' for Active; 'I' for Inactive)
REMARK    1  A    between atoms: N_1  and  C_18
REMARK    2  A    between atoms: N_2  and  C_8
REMARK    3  A    between atoms: C_18  and  C_19
REMARK    4  A    between atoms: C_19  and  C_20
REMARK    5  A    between atoms: C_20  and  C_21
REMARK    6  A    between atoms: C_21  and  O_22
REMARK    7  A    between atoms: O_22  and  C_28
REMARK                            x       y       z     vdW  Elec       q    Type
REMARK                         _______ _______ _______ _____ _____    ______ ____
ROOT
ATOM      1  N   UNL     1      33.927 -13.555 -25.209  0.00  0.00    +0.389 N 
ATOM      2  N   UNL     1      34.120 -10.859 -24.284  0.00  0.00    -0.312 N 
ATOM      3  C   UNL     1      33.696 -12.435 -26.131  0.00  0.00    -0.055 C 
ATOM      4  C   UNL     1      33.466 -13.196 -23.862  0.00  0.00    -0.055 C 
ATOM      5  C   UNL     1      34.453 -11.185 -25.676  0.00  0.00    +0.068 C 
ATOM      6  C   UNL     1      34.215 -11.970 -23.333  0.00  0.00    +0.068 C 
ATOM      7  H   UNL     1      34.928 -13.751 -25.174  0.00  0.00    -0.080 HD
ENDROOT
BRANCH   2   8
ATOM      8  C   UNL     1      34.341  -9.549 -23.844  0.00  0.00    +0.048 C 
ATOM      9  C   UNL     1      33.526  -8.918 -22.864  0.00  0.00    +0.013 C 
ATOM     10  C   UNL     1      35.416  -8.816 -24.393  0.00  0.00    +0.015 C 
ATOM     11  C   UNL     1      33.793  -7.590 -22.455  0.00  0.00    +0.001 C 
ATOM     12  C   UNL     1      32.445  -9.608 -22.291  0.00  0.00    +0.001 C 
ATOM     13  C   UNL     1      35.679  -7.509 -23.990  0.00  0.00    +0.001 C 
ATOM     14  C   UNL     1      34.875  -6.900 -23.028  0.00  0.00    +0.000 C 
ATOM     15  C   UNL     1      32.973  -6.991 -21.486  0.00  0.00    +0.000 C 
ATOM     16  C   UNL     1      31.640  -8.998 -21.329  0.00  0.00    +0.000 C 
ATOM     17  C   UNL     1      31.903  -7.692 -20.927  0.00  0.00    +0.000 C 
ENDBRANCH   2   8
BRANCH   1  18
ATOM     18  C   UNL     1      33.244 -14.758 -25.683  0.00  0.00    -0.077 C 
BRANCH  18  19
ATOM     19  C   UNL     1      33.565 -15.943 -24.774  0.00  0.00    -0.019 C 
BRANCH  19  20
ATOM     20  C   UNL     1      35.066 -16.219 -24.735  0.00  0.00    +0.045 C 
BRANCH  20  21
ATOM     21  C   UNL     1      35.385 -17.493 -23.964  0.00  0.00    +0.208 C 
BRANCH  21  22
ATOM     22  O   UNL     1      35.743 -17.170 -22.627  0.00  0.00    -0.452 OA
BRANCH  22  28
ATOM     23  O   UNL     1      32.775 -22.310 -18.953  0.00  0.00    -0.275 OA
ATOM     24  N   UNL     1      33.802 -20.665 -20.184  0.00  0.00    -0.263 N 
ATOM     25  N   UNL     1      34.793 -18.903 -21.413  0.00  0.00    -0.357 NA
ATOM     26  C   UNL     1      36.186 -20.318 -20.035  0.00  0.00    +0.090 C 
ATOM     27  C   UNL     1      36.301 -21.541 -19.176  0.00  0.00    +0.022 C 
ATOM     28  C   UNL     1      35.906 -18.219 -21.760  0.00  0.00    +0.278 C 
ATOM     29  C   UNL     1      34.948 -19.934 -20.549  0.00  0.00    +0.170 C 
ATOM     30  C   UNL     1      35.032 -21.753 -18.366  0.00  0.00    +0.086 C 
ATOM     31  C   UNL     1      37.312 -19.594 -20.429  0.00  0.00    -0.012 C 
ATOM     32  C   UNL     1      37.175 -18.519 -21.299  0.00  0.00    +0.068 C 
ATOM     33  C   UNL     1      33.776 -21.639 -19.205  0.00  0.00    +0.228 C 
ATOM     34  H   UNL     1      32.962 -20.469 -20.659  0.00  0.00    +0.157 HD
ENDBRANCH  22  28
ENDBRANCH  21  22
ENDBRANCH  20  21
ENDBRANCH  19  20
ENDBRANCH  18  19
ENDBRANCH   1  18
TORSDOF 7
ENDMDL
MODEL 8
REMARK VINA RESULT:     -11.5      1.896      2.747
REMARK  Name = 11697676
REMARK  7 active torsions:
REMARK  status: ('A' for Active; 'I' for Inactive)
REMARK    1  A    between atoms: N_1  and  C_18
REMARK    2  A    between atoms: N_2  and  C_8
REMARK    3  A    between atoms: C_18  and  C_19
REMARK    4  A    between atoms: C_19  and  C_20
REMARK    5  A    between atoms: C_20  and  C_21
REMARK    6  A    between atoms: C_21  and  O_22
REMARK    7  A    between atoms: O_22  and  C_28
REMARK                            x       y       z     vdW  Elec       q    Type
REMARK                         _______ _______ _______ _____ _____    ______ ____
ROOT
ATOM      1  N   UNL     1      33.610 -14.607 -24.450  0.00  0.00    +0.389 N 
ATOM      2  N   UNL     1      34.249 -11.828 -24.279  0.00  0.00    -0.312 N 
ATOM      3  C   UNL     1      34.583 -14.129 -23.459  0.00  0.00    -0.055 C 
ATOM      4  C   UNL     1      33.690 -13.786 -25.665  0.00  0.00    -0.055 C 
ATOM      5  C   UNL     1      34.308 -12.672 -23.079  0.00  0.00    +0.068 C 
ATOM      6  C   UNL     1      33.386 -12.318 -25.357  0.00  0.00    +0.068 C 
ATOM      7  H   UNL     1      32.673 -14.524 -24.057  0.00  0.00    -0.080 HD
ENDROOT
BRANCH   2   8
ATOM      8  C   UNL     1      34.457 -10.453 -24.127  0.00  0.00    +0.048 C 
ATOM      9  C   UNL     1      33.619  -9.633 -23.320  0.00  0.00    +0.013 C 
ATOM     10  C   UNL     1      35.540  -9.846 -24.798  0.00  0.00    +0.015 C 
ATOM     11  C   UNL     1      33.873  -8.246 -23.200  0.00  0.00    +0.001 C 
ATOM     12  C   UNL     1      32.529 -10.193 -22.634  0.00  0.00    +0.001 C 
ATOM     13  C   UNL     1      35.791  -8.481 -24.679  0.00  0.00    +0.001 C 
ATOM     14  C   UNL     1      34.964  -7.686 -23.886  0.00  0.00    +0.000 C 
ATOM     15  C   UNL     1      33.030  -7.460 -22.398  0.00  0.00    +0.000 C 
ATOM     16  C   UNL     1      31.702  -9.397 -21.841  0.00  0.00    +0.000 C 
ATOM     17  C   UNL     1      31.952  -8.033 -21.723  0.00  0.00    +0.000 C 
ENDBRANCH   2   8
BRANCH   1  18
ATOM     18  C   UNL     1      33.850 -16.015 -24.765  0.00  0.00    -0.077 C 
BRANCH  18  19
ATOM     19  C   UNL     1      35.207 -16.457 -24.221  0.00  0.00    -0.019 C 
BRANCH  19  20
ATOM     20  C   UNL     1      35.118 -17.832 -23.563  0.00  0.00    +0.045 C 
BRANCH  20  21
ATOM     21  C   UNL     1      35.605 -17.799 -22.121  0.00  0.00    +0.208 C 
BRANCH  21  22
ATOM     22  O   UNL     1      36.054 -19.090 -21.733  0.00  0.00    -0.452 OA
BRANCH  22  28
ATOM     23  O   UNL     1      35.557 -23.298 -16.186  0.00  0.00    -0.275 OA
ATOM     24  N   UNL     1      35.668 -21.873 -17.984  0.00  0.00    -0.263 N 
ATOM     25  N   UNL     1      35.851 -20.468 -19.879  0.00  0.00    -0.357 NA
ATOM     26  C   UNL     1      33.667 -21.220 -19.167  0.00  0.00    +0.090 C 
ATOM     27  C   UNL     1      32.838 -21.927 -18.137  0.00  0.00    +0.022 C 
ATOM     28  C   UNL     1      35.245 -19.798 -20.884  0.00  0.00    +0.278 C 
ATOM     29  C   UNL     1      35.055 -21.177 -19.043  0.00  0.00    +0.170 C 
ATOM     30  C   UNL     1      33.596 -23.109 -17.553  0.00  0.00    +0.086 C 
ATOM     31  C   UNL     1      33.080 -20.502 -20.209  0.00  0.00    -0.012 C 
ATOM     32  C   UNL     1      33.877 -19.785 -21.092  0.00  0.00    +0.068 C 
ATOM     33  C   UNL     1      35.011 -22.754 -17.147  0.00  0.00    +0.228 C 
ATOM     34  H   UNL     1      36.628 -21.722 -17.830  0.00  0.00    +0.157 HD
ENDBRANCH  22  28
ENDBRANCH  21  22
ENDBRANCH  20  21
ENDBRANCH  19  20
ENDBRANCH  18  19
ENDBRANCH   1  18
TORSDOF 7
ENDMDL
MODEL 9
REMARK VINA RESULT:     -11.4      4.156     11.803
REMARK  Name = 11697676
REMARK  7 active torsions:
REMARK  status: ('A' for Active; 'I' for Inactive)
REMARK    1  A    between atoms: N_1  and  C_18
REMARK    2  A    between atoms: N_2  and  C_8
REMARK    3  A    between atoms: C_18  and  C_19
REMARK    4  A    between atoms: C_19  and  C_20
REMARK    5  A    between atoms: C_20  and  C_21
REMARK    6  A    between atoms: C_21  and  O_22
REMARK    7  A    between atoms: O_22  and  C_28
REMARK                            x       y       z     vdW  Elec       q    Type
REMARK                         _______ _______ _______ _____ _____    ______ ____
ROOT
ATOM      1  N   UNL     1      34.956 -16.170 -24.285  0.00  0.00    +0.389 N 
ATOM      2  N   UNL     1      35.456 -18.089 -22.229  0.00  0.00    -0.312 N 
ATOM      3  C   UNL     1      34.886 -15.779 -22.872  0.00  0.00    -0.055 C 
ATOM      4  C   UNL     1      34.510 -17.560 -24.441  0.00  0.00    -0.055 C 
ATOM      5  C   UNL     1      35.779 -16.674 -22.009  0.00  0.00    +0.068 C 
ATOM      6  C   UNL     1      35.391 -18.514 -23.630  0.00  0.00    +0.068 C 
ATOM      7  H   UNL     1      35.924 -16.097 -24.599  0.00  0.00    -0.080 HD
ENDROOT
BRANCH   2   8
ATOM      8  C   UNL     1      35.825 -19.009 -21.241  0.00  0.00    +0.048 C 
ATOM      9  C   UNL     1      34.884 -19.847 -20.579  0.00  0.00    +0.013 C 
ATOM     10  C   UNL     1      37.185 -19.115 -20.880  0.00  0.00    +0.015 C 
ATOM     11  C   UNL     1      35.311 -20.760 -19.586  0.00  0.00    +0.001 C 
ATOM     12  C   UNL     1      33.520 -19.775 -20.905  0.00  0.00    +0.001 C 
ATOM     13  C   UNL     1      37.606 -20.015 -19.904  0.00  0.00    +0.001 C 
ATOM     14  C   UNL     1      36.676 -20.832 -19.261  0.00  0.00    +0.000 C 
ATOM     15  C   UNL     1      34.362 -21.575 -18.949  0.00  0.00    +0.000 C 
ATOM     16  C   UNL     1      32.591 -20.593 -20.262  0.00  0.00    +0.000 C 
ATOM     17  C   UNL     1      33.011 -21.491 -19.285  0.00  0.00    +0.000 C 
ENDBRANCH   2   8
BRANCH   1  18
ATOM     18  C   UNL     1      34.142 -15.275 -25.106  0.00  0.00    -0.077 C 
BRANCH  18  19
ATOM     19  C   UNL     1      33.614 -14.115 -24.263  0.00  0.00    -0.019 C 
BRANCH  19  20
ATOM     20  C   UNL     1      33.845 -12.776 -24.960  0.00  0.00    +0.045 C 
BRANCH  20  21
ATOM     21  C   UNL     1      34.400 -11.731 -24.001  0.00  0.00    +0.208 C 
BRANCH  21  22
ATOM     22  O   UNL     1      33.361 -10.855 -23.588  0.00  0.00    -0.452 OA
BRANCH  22  28
ATOM     23  O   UNL     1      30.931  -4.334 -23.035  0.00  0.00    -0.275 OA
ATOM     24  N   UNL     1      31.787  -6.460 -23.178  0.00  0.00    -0.263 N 
ATOM     25  N   UNL     1      32.592  -8.675 -23.389  0.00  0.00    -0.357 NA
ATOM     26  C   UNL     1      34.092  -6.824 -23.801  0.00  0.00    +0.090 C 
ATOM     27  C   UNL     1      34.327  -5.344 -23.759  0.00  0.00    +0.022 C 
ATOM     28  C   UNL     1      33.619  -9.510 -23.664  0.00  0.00    +0.278 C 
ATOM     29  C   UNL     1      32.841  -7.346 -23.471  0.00  0.00    +0.170 C 
ATOM     30  C   UNL     1      33.058  -4.585 -24.113  0.00  0.00    +0.086 C 
ATOM     31  C   UNL     1      35.127  -7.721 -24.064  0.00  0.00    -0.012 C 
ATOM     32  C   UNL     1      34.891  -9.088 -24.005  0.00  0.00    +0.068 C 
ATOM     33  C   UNL     1      31.843  -5.093 -23.364  0.00  0.00    +0.228 C 
ATOM     34  H   UNL     1      30.954  -6.841 -22.816  0.00  0.00    +0.157 HD
ENDBRANCH  22  28
ENDBRANCH  21  22
ENDBRANCH  20  21
ENDBRANCH  19  20
ENDBRANCH  18  19
ENDBRANCH   1  18
TORSDOF 7
ENDMDL
