MODEL 1
REMARK VINA RESULT:     -12.6      0.000      0.000
REMARK  Name = 9800765
REMARK  5 active torsions:
REMARK  status: ('A' for Active; 'I' for Inactive)
REMARK    1  A    between atoms: C_3  and  C_17
REMARK    2  A    between atoms: C_5  and  N_8
REMARK    3  A    between atoms: N_8  and  C_14
REMARK    4  A    between atoms: C_17  and  C_20
REMARK    5  A    between atoms: C_23  and  C_26
REMARK                            x       y       z     vdW  Elec       q    Type
REMARK                         _______ _______ _______ _____ _____    ______ ____
ROOT
ATOM      1  O   UNL     1      36.747 -22.460 -15.779  0.00  0.00    -0.337 OA
ATOM      2  N   UNL     1      36.006 -22.415 -16.954  0.00  0.00    -0.079 NA
ATOM      3  C   UNL     1      34.770 -22.776 -16.597  0.00  0.00    +0.106 C 
ATOM      4  C   UNL     1      34.673 -23.057 -15.223  0.00  0.00    +0.076 C 
ATOM      5  C   UNL     1      35.939 -22.842 -14.765  0.00  0.00    +0.252 C 
ENDROOT
BRANCH   3   6
ATOM      6  C   UNL     1      33.702 -22.838 -17.608  0.00  0.00    +0.066 C 
ATOM      7  C   UNL     1      32.276 -22.723 -17.018  0.00  0.00    +0.011 C 
BRANCH   6   9
ATOM      8  F   UNL     1      36.937 -20.476 -20.362  0.00  0.00    -0.204 F 
ATOM      9  C   UNL     1      34.035 -21.807 -18.691  0.00  0.00    -0.015 C 
ATOM     10  C   UNL     1      35.352 -21.615 -19.032  0.00  0.00    +0.026 C 
ATOM     11  C   UNL     1      33.003 -21.113 -19.278  0.00  0.00    -0.004 C 
ATOM     12  C   UNL     1      34.632 -19.956 -20.633  0.00  0.00    +0.027 C 
ATOM     13  C   UNL     1      35.656 -20.676 -20.018  0.00  0.00    +0.140 C 
ATOM     14  C   UNL     1      33.306 -20.175 -20.263  0.00  0.00    +0.002 C 
BRANCH  12  15
ATOM     15  C   UNL     1      34.942 -18.981 -21.657  0.00  0.00    +0.002 C 
ATOM     16  C   UNL     1      34.741 -19.297 -23.001  0.00  0.00    +0.000 C 
ATOM     17  C   UNL     1      35.438 -17.728 -21.301  0.00  0.00    +0.000 C 
ATOM     18  C   UNL     1      35.038 -18.358 -23.989  0.00  0.00    +0.000 C 
ATOM     19  C   UNL     1      35.735 -16.789 -22.290  0.00  0.00    +0.000 C 
ATOM     20  C   UNL     1      35.536 -17.104 -23.634  0.00  0.00    +0.000 C 
ENDBRANCH  12  15
ENDBRANCH   6   9
ENDBRANCH   3   6
BRANCH   5  21
ATOM     21  N   UNL     1      36.430 -22.963 -13.500  0.00  0.00    -0.147 NA
BRANCH  21  29
ATOM     22  O   UNL     1      39.525 -26.536 -14.436  0.00  0.00    -0.350 OA
ATOM     23  N   UNL     1      37.526 -24.977 -13.244  0.00  0.00    -0.277 N 
ATOM     24  N   UNL     1      35.555 -24.772 -12.155  0.00  0.00    -0.373 N 
ATOM     25  C   UNL     1      37.396 -26.432 -13.280  0.00  0.00    +0.125 C 
ATOM     26  C   UNL     1      38.897 -24.479 -13.315  0.00  0.00    +0.125 C 
ATOM     27  C   UNL     1      38.166 -26.978 -14.476  0.00  0.00    +0.164 C 
ATOM     28  C   UNL     1      39.601 -25.110 -14.510  0.00  0.00    +0.164 C 
ATOM     29  C   UNL     1      36.478 -24.165 -12.983  0.00  0.00    +0.182 C 
ATOM     30  H   UNL     1      35.710 -25.689 -11.833  0.00  0.00    +0.158 HD
ATOM     31  H   UNL     1      34.741 -24.288 -11.886  0.00  0.00    +0.158 HD
ENDBRANCH  21  29
ENDBRANCH   5  21
TORSDOF 5
ENDMDL
MODEL 2
REMARK VINA RESULT:     -12.4      0.976      1.191
REMARK  Name = 9800765
REMARK  5 active torsions:
REMARK  status: ('A' for Active; 'I' for Inactive)
REMARK    1  A    between atoms: C_3  and  C_17
REMARK    2  A    between atoms: C_5  and  N_8
REMARK    3  A    between atoms: N_8  and  C_14
REMARK    4  A    between atoms: C_17  and  C_20
REMARK    5  A    between atoms: C_23  and  C_26
REMARK                            x       y       z     vdW  Elec       q    Type
REMARK                         _______ _______ _______ _____ _____    ______ ____
ROOT
ATOM      1  O   UNL     1      36.625 -22.772 -16.079  0.00  0.00    -0.337 OA
ATOM      2  N   UNL     1      35.720 -22.322 -17.033  0.00  0.00    -0.079 NA
ATOM      3  C   UNL     1      34.611 -23.035 -16.821  0.00  0.00    +0.106 C 
ATOM      4  C   UNL     1      34.755 -23.942 -15.757  0.00  0.00    +0.076 C 
ATOM      5  C   UNL     1      36.034 -23.731 -15.333  0.00  0.00    +0.252 C 
ENDROOT
BRANCH   3   6
ATOM      6  C   UNL     1      33.425 -22.816 -17.665  0.00  0.00    +0.066 C 
ATOM      7  C   UNL     1      32.146 -22.466 -16.866  0.00  0.00    +0.011 C 
BRANCH   6   9
ATOM      8  F   UNL     1      36.770 -20.629 -20.431  0.00  0.00    -0.204 F 
ATOM      9  C   UNL     1      33.810 -21.796 -18.741  0.00  0.00    -0.015 C 
ATOM     10  C   UNL     1      35.132 -21.682 -19.095  0.00  0.00    +0.026 C 
ATOM     11  C   UNL     1      32.816 -21.034 -19.309  0.00  0.00    -0.004 C 
ATOM     12  C   UNL     1      34.499 -19.964 -20.671  0.00  0.00    +0.027 C 
ATOM     13  C   UNL     1      35.483 -20.753 -20.074  0.00  0.00    +0.140 C 
ATOM     14  C   UNL     1      33.166 -20.105 -20.288  0.00  0.00    +0.002 C 
BRANCH  12  15
ATOM     15  C   UNL     1      34.858 -19.000 -21.689  0.00  0.00    +0.002 C 
ATOM     16  C   UNL     1      34.615 -19.284 -23.033  0.00  0.00    +0.000 C 
ATOM     17  C   UNL     1      35.443 -17.787 -21.326  0.00  0.00    +0.000 C 
ATOM     18  C   UNL     1      34.959 -18.355 -24.014  0.00  0.00    +0.000 C 
ATOM     19  C   UNL     1      35.787 -16.858 -22.309  0.00  0.00    +0.000 C 
ATOM     20  C   UNL     1      35.546 -17.142 -23.653  0.00  0.00    +0.000 C 
ENDBRANCH  12  15
ENDBRANCH   6   9
ENDBRANCH   3   6
BRANCH   5  21
ATOM     21  N   UNL     1      36.717 -24.337 -14.321  0.00  0.00    -0.147 NA
BRANCH  21  29
ATOM     22  O   UNL     1      41.120 -26.276 -14.598  0.00  0.00    -0.350 OA
ATOM     23  N   UNL     1      38.345 -25.972 -14.366  0.00  0.00    -0.277 N 
ATOM     24  N   UNL     1      36.231 -26.659 -14.783  0.00  0.00    -0.373 N 
ATOM     25  C   UNL     1      38.897 -27.100 -15.112  0.00  0.00    +0.125 C 
ATOM     26  C   UNL     1      39.229 -25.414 -13.347  0.00  0.00    +0.125 C 
ATOM     27  C   UNL     1      40.269 -26.720 -15.657  0.00  0.00    +0.164 C 
ATOM     28  C   UNL     1      40.586 -25.108 -13.969  0.00  0.00    +0.164 C 
ATOM     29  C   UNL     1      37.053 -25.592 -14.486  0.00  0.00    +0.182 C 
ATOM     30  H   UNL     1      36.613 -27.562 -14.883  0.00  0.00    +0.158 HD
ATOM     31  H   UNL     1      35.264 -26.520 -14.898  0.00  0.00    +0.158 HD
ENDBRANCH  21  29
ENDBRANCH   5  21
TORSDOF 5
ENDMDL
MODEL 3
REMARK VINA RESULT:     -12.4      0.881      1.257
REMARK  Name = 9800765
REMARK  5 active torsions:
REMARK  status: ('A' for Active; 'I' for Inactive)
REMARK    1  A    between atoms: C_3  and  C_17
REMARK    2  A    between atoms: C_5  and  N_8
REMARK    3  A    between atoms: N_8  and  C_14
REMARK    4  A    between atoms: C_17  and  C_20
REMARK    5  A    between atoms: C_23  and  C_26
REMARK                            x       y       z     vdW  Elec       q    Type
REMARK                         _______ _______ _______ _____ _____    ______ ____
ROOT
ATOM      1  O   UNL     1      36.778 -22.434 -15.688  0.00  0.00    -0.337 OA
ATOM      2  N   UNL     1      36.043 -22.412 -16.867  0.00  0.00    -0.079 NA
ATOM      3  C   UNL     1      34.822 -22.829 -16.521  0.00  0.00    +0.106 C 
ATOM      4  C   UNL     1      34.728 -23.126 -15.151  0.00  0.00    +0.076 C 
ATOM      5  C   UNL     1      35.980 -22.860 -14.682  0.00  0.00    +0.252 C 
ENDROOT
BRANCH   3   6
ATOM      6  C   UNL     1      33.765 -22.929 -17.540  0.00  0.00    +0.066 C 
ATOM      7  C   UNL     1      32.331 -22.841 -16.963  0.00  0.00    +0.011 C 
BRANCH   6   9
ATOM      8  F   UNL     1      32.321 -19.646 -20.821  0.00  0.00    -0.204 F 
ATOM      9  C   UNL     1      34.082 -21.903 -18.632  0.00  0.00    -0.015 C 
ATOM     10  C   UNL     1      33.039 -21.238 -19.232  0.00  0.00    +0.026 C 
ATOM     11  C   UNL     1      35.398 -21.688 -18.970  0.00  0.00    -0.004 C 
ATOM     12  C   UNL     1      34.651 -20.062 -20.593  0.00  0.00    +0.027 C 
ATOM     13  C   UNL     1      33.328 -20.304 -20.226  0.00  0.00    +0.140 C 
ATOM     14  C   UNL     1      35.686 -20.754 -19.965  0.00  0.00    +0.002 C 
BRANCH  12  15
ATOM     15  C   UNL     1      34.956 -19.092 -21.623  0.00  0.00    +0.002 C 
ATOM     16  C   UNL     1      34.741 -19.411 -22.964  0.00  0.00    +0.000 C 
ATOM     17  C   UNL     1      35.462 -17.841 -21.275  0.00  0.00    +0.000 C 
ATOM     18  C   UNL     1      35.033 -18.477 -23.958  0.00  0.00    +0.000 C 
ATOM     19  C   UNL     1      35.755 -16.907 -22.270  0.00  0.00    +0.000 C 
ATOM     20  C   UNL     1      35.541 -17.224 -23.611  0.00  0.00    +0.000 C 
ENDBRANCH  12  15
ENDBRANCH   6   9
ENDBRANCH   3   6
BRANCH   5  21
ATOM     21  N   UNL     1      36.468 -22.970 -13.415  0.00  0.00    -0.147 NA
BRANCH  21  29
ATOM     22  O   UNL     1      39.527 -26.553 -14.425  0.00  0.00    -0.350 OA
ATOM     23  N   UNL     1      37.568 -24.985 -13.181  0.00  0.00    -0.277 N 
ATOM     24  N   UNL     1      35.631 -24.770 -12.034  0.00  0.00    -0.373 N 
ATOM     25  C   UNL     1      37.434 -26.439 -13.205  0.00  0.00    +0.125 C 
ATOM     26  C   UNL     1      38.937 -24.489 -13.296  0.00  0.00    +0.125 C 
ATOM     27  C   UNL     1      38.167 -26.992 -14.421  0.00  0.00    +0.164 C 
ATOM     28  C   UNL     1      39.604 -25.128 -14.508  0.00  0.00    +0.164 C 
ATOM     29  C   UNL     1      36.529 -24.169 -12.893  0.00  0.00    +0.182 C 
ATOM     30  H   UNL     1      35.794 -25.686 -11.713  0.00  0.00    +0.158 HD
ATOM     31  H   UNL     1      34.826 -24.283 -11.744  0.00  0.00    +0.158 HD
ENDBRANCH  21  29
ENDBRANCH   5  21
TORSDOF 5
ENDMDL
MODEL 4
REMARK VINA RESULT:     -12.3      1.522      2.280
REMARK  Name = 9800765
REMARK  5 active torsions:
REMARK  status: ('A' for Active; 'I' for Inactive)
REMARK    1  A    between atoms: C_3  and  C_17
REMARK    2  A    between atoms: C_5  and  N_8
REMARK    3  A    between atoms: N_8  and  C_14
REMARK    4  A    between atoms: C_17  and  C_20
REMARK    5  A    between atoms: C_23  and  C_26
REMARK                            x       y       z     vdW  Elec       q    Type
REMARK                         _______ _______ _______ _____ _____    ______ ____
ROOT
ATOM      1  O   UNL     1      37.504 -21.758 -16.843  0.00  0.00    -0.337 OA
ATOM      2  N   UNL     1      36.621 -21.653 -17.910  0.00  0.00    -0.079 NA
ATOM      3  C   UNL     1      35.501 -22.248 -17.492  0.00  0.00    +0.106 C 
ATOM      4  C   UNL     1      35.617 -22.742 -16.181  0.00  0.00    +0.076 C 
ATOM      5  C   UNL     1      36.890 -22.406 -15.828  0.00  0.00    +0.252 C 
ENDROOT
BRANCH   3   6
ATOM      6  C   UNL     1      34.332 -22.323 -18.383  0.00  0.00    +0.066 C 
ATOM      7  C   UNL     1      32.975 -22.304 -17.636  0.00  0.00    +0.011 C 
BRANCH   6   9
ATOM      8  F   UNL     1      37.148 -19.503 -21.166  0.00  0.00    -0.204 F 
ATOM      9  C   UNL     1      34.495 -21.232 -19.446  0.00  0.00    -0.015 C 
ATOM     10  C   UNL     1      35.765 -20.865 -19.820  0.00  0.00    +0.026 C 
ATOM     11  C   UNL     1      33.364 -20.662 -19.982  0.00  0.00    -0.004 C 
ATOM     12  C   UNL     1      34.788 -19.274 -21.352  0.00  0.00    +0.027 C 
ATOM     13  C   UNL     1      35.915 -19.872 -20.789  0.00  0.00    +0.140 C 
ATOM     14  C   UNL     1      33.513 -19.669 -20.949  0.00  0.00    +0.002 C 
BRANCH  12  15
ATOM     15  C   UNL     1      34.938 -18.244 -22.358  0.00  0.00    +0.002 C 
ATOM     16  C   UNL     1      35.362 -16.967 -21.989  0.00  0.00    +0.000 C 
ATOM     17  C   UNL     1      34.659 -18.527 -23.695  0.00  0.00    +0.000 C 
ATOM     18  C   UNL     1      35.507 -15.974 -22.958  0.00  0.00    +0.000 C 
ATOM     19  C   UNL     1      34.804 -17.534 -24.663  0.00  0.00    +0.000 C 
ATOM     20  C   UNL     1      35.228 -16.256 -24.295  0.00  0.00    +0.000 C 
ENDBRANCH  12  15
ENDBRANCH   6   9
ENDBRANCH   3   6
BRANCH   5  21
ATOM     21  N   UNL     1      37.550 -22.637 -14.658  0.00  0.00    -0.147 NA
BRANCH  21  29
ATOM     22  O   UNL     1      36.273 -25.329 -10.871  0.00  0.00    -0.350 OA
ATOM     23  N   UNL     1      37.282 -24.523 -13.357  0.00  0.00    -0.277 N 
ATOM     24  N   UNL     1      38.801 -24.673 -15.025  0.00  0.00    -0.373 N 
ATOM     25  C   UNL     1      37.963 -25.567 -12.595  0.00  0.00    +0.125 C 
ATOM     26  C   UNL     1      35.860 -24.371 -13.061  0.00  0.00    +0.125 C 
ATOM     27  C   UNL     1      37.682 -25.370 -11.110  0.00  0.00    +0.164 C 
ATOM     28  C   UNL     1      35.671 -24.228 -11.556  0.00  0.00    +0.164 C 
ATOM     29  C   UNL     1      37.877 -23.875 -14.383  0.00  0.00    +0.182 C 
ATOM     30  H   UNL     1      38.955 -25.595 -14.715  0.00  0.00    +0.158 HD
ATOM     31  H   UNL     1      39.308 -24.321 -15.792  0.00  0.00    +0.158 HD
ENDBRANCH  21  29
ENDBRANCH   5  21
TORSDOF 5
ENDMDL
MODEL 5
REMARK VINA RESULT:     -12.0      3.848      7.071
REMARK  Name = 9800765
REMARK  5 active torsions:
REMARK  status: ('A' for Active; 'I' for Inactive)
REMARK    1  A    between atoms: C_3  and  C_17
REMARK    2  A    between atoms: C_5  and  N_8
REMARK    3  A    between atoms: N_8  and  C_14
REMARK    4  A    between atoms: C_17  and  C_20
REMARK    5  A    between atoms: C_23  and  C_26
REMARK                            x       y       z     vdW  Elec       q    Type
REMARK                         _______ _______ _______ _____ _____    ______ ____
ROOT
ATOM      1  O   UNL     1      36.258 -19.086 -20.423  0.00  0.00    -0.337 OA
ATOM      2  N   UNL     1      36.573 -18.316 -21.537  0.00  0.00    -0.079 NA
ATOM      3  C   UNL     1      35.573 -18.528 -22.397  0.00  0.00    +0.106 C 
ATOM      4  C   UNL     1      34.608 -19.413 -21.886  0.00  0.00    +0.076 C 
ATOM      5  C   UNL     1      35.089 -19.728 -20.650  0.00  0.00    +0.252 C 
ENDROOT
BRANCH   3   6
ATOM      6  C   UNL     1      35.578 -17.858 -23.708  0.00  0.00    +0.066 C 
ATOM      7  C   UNL     1      34.879 -18.669 -24.826  0.00  0.00    +0.011 C 
BRANCH   6   9
ATOM      8  F   UNL     1      34.923 -13.929 -20.923  0.00  0.00    -0.204 F 
ATOM      9  C   UNL     1      35.029 -16.443 -23.501  0.00  0.00    -0.015 C 
ATOM     10  C   UNL     1      35.233 -15.830 -22.289  0.00  0.00    +0.026 C 
ATOM     11  C   UNL     1      34.352 -15.843 -24.538  0.00  0.00    -0.004 C 
ATOM     12  C   UNL     1      34.042 -13.904 -23.131  0.00  0.00    +0.027 C 
ATOM     13  C   UNL     1      34.733 -14.541 -22.101  0.00  0.00    +0.140 C 
ATOM     14  C   UNL     1      33.852 -14.555 -24.350  0.00  0.00    +0.002 C 
BRANCH  12  15
ATOM     15  C   UNL     1      33.523 -12.567 -22.942  0.00  0.00    +0.002 C 
ATOM     16  C   UNL     1      32.556 -12.328 -21.965  0.00  0.00    +0.000 C 
ATOM     17  C   UNL     1      33.989 -11.518 -23.734  0.00  0.00    +0.000 C 
ATOM     18  C   UNL     1      32.055 -11.039 -21.781  0.00  0.00    +0.000 C 
ATOM     19  C   UNL     1      33.488 -10.229 -23.549  0.00  0.00    +0.000 C 
ATOM     20  C   UNL     1      32.520  -9.989 -22.573  0.00  0.00    +0.000 C 
ENDBRANCH  12  15
ENDBRANCH   6   9
ENDBRANCH   3   6
BRANCH   5  21
ATOM     21  N   UNL     1      34.560 -20.552 -19.702  0.00  0.00    -0.147 NA
BRANCH  21  29
ATOM     22  O   UNL     1      33.685 -23.327 -15.862  0.00  0.00    -0.350 OA
ATOM     23  N   UNL     1      34.924 -22.156 -18.084  0.00  0.00    -0.277 N 
ATOM     24  N   UNL     1      36.761 -21.392 -19.158  0.00  0.00    -0.373 N 
ATOM     25  C   UNL     1      35.718 -22.529 -16.917  0.00  0.00    +0.125 C 
ATOM     26  C   UNL     1      33.681 -22.904 -18.251  0.00  0.00    +0.125 C 
ATOM     27  C   UNL     1      34.834 -22.498 -15.676  0.00  0.00    +0.164 C 
ATOM     28  C   UNL     1      32.887 -22.857 -16.951  0.00  0.00    +0.164 C 
ATOM     29  C   UNL     1      35.389 -21.313 -19.034  0.00  0.00    +0.182 C 
ATOM     30  H   UNL     1      37.273 -22.011 -18.588  0.00  0.00    +0.158 HD
ATOM     31  H   UNL     1      37.230 -20.829 -19.816  0.00  0.00    +0.158 HD
ENDBRANCH  21  29
ENDBRANCH   5  21
TORSDOF 5
ENDMDL
MODEL 6
REMARK VINA RESULT:     -12.0      1.801      2.544
REMARK  Name = 9800765
REMARK  5 active torsions:
REMARK  status: ('A' for Active; 'I' for Inactive)
REMARK    1  A    between atoms: C_3  and  C_17
REMARK    2  A    between atoms: C_5  and  N_8
REMARK    3  A    between atoms: N_8  and  C_14
REMARK    4  A    between atoms: C_17  and  C_20
REMARK    5  A    between atoms: C_23  and  C_26
REMARK                            x       y       z     vdW  Elec       q    Type
REMARK                         _______ _______ _______ _____ _____    ______ ____
ROOT
ATOM      1  O   UNL     1      35.055 -23.439 -14.493  0.00  0.00    -0.337 OA
ATOM      2  N   UNL     1      34.021 -22.764 -15.131  0.00  0.00    -0.079 NA
ATOM      3  C   UNL     1      33.812 -23.443 -16.262  0.00  0.00    +0.106 C 
ATOM      4  C   UNL     1      34.676 -24.544 -16.391  0.00  0.00    +0.076 C 
ATOM      5  C   UNL     1      35.429 -24.490 -15.256  0.00  0.00    +0.252 C 
ENDROOT
BRANCH   3   6
ATOM      6  C   UNL     1      32.767 -23.002 -17.200  0.00  0.00    +0.066 C 
ATOM      7  C   UNL     1      31.531 -22.376 -16.509  0.00  0.00    +0.011 C 
BRANCH   6   9
ATOM      8  F   UNL     1      36.743 -21.445 -19.525  0.00  0.00    -0.204 F 
ATOM      9  C   UNL     1      33.439 -22.107 -18.247  0.00  0.00    -0.015 C 
ATOM     10  C   UNL     1      34.801 -22.190 -18.405  0.00  0.00    +0.026 C 
ATOM     11  C   UNL     1      32.652 -21.256 -18.987  0.00  0.00    -0.004 C 
ATOM     12  C   UNL     1      34.644 -20.502 -20.125  0.00  0.00    +0.027 C 
ATOM     13  C   UNL     1      35.413 -21.376 -19.358  0.00  0.00    +0.140 C 
ATOM     14  C   UNL     1      33.263 -20.441 -19.939  0.00  0.00    +0.002 C 
BRANCH  12  15
ATOM     15  C   UNL     1      35.274 -19.656 -21.116  0.00  0.00    +0.002 C 
ATOM     16  C   UNL     1      36.559 -19.160 -20.893  0.00  0.00    +0.000 C 
ATOM     17  C   UNL     1      34.597 -19.337 -22.293  0.00  0.00    +0.000 C 
ATOM     18  C   UNL     1      37.167 -18.346 -21.849  0.00  0.00    +0.000 C 
ATOM     19  C   UNL     1      35.206 -18.523 -23.248  0.00  0.00    +0.000 C 
ATOM     20  C   UNL     1      36.491 -18.026 -23.026  0.00  0.00    +0.000 C 
ENDBRANCH  12  15
ENDBRANCH   6   9
ENDBRANCH   3   6
BRANCH   5  21
ATOM     21  N   UNL     1      36.433 -25.316 -14.847  0.00  0.00    -0.147 NA
BRANCH  21  29
ATOM     22  O   UNL     1      36.945 -23.604 -10.372  0.00  0.00    -0.350 OA
ATOM     23  N   UNL     1      37.495 -24.498 -12.969  0.00  0.00    -0.277 N 
ATOM     24  N   UNL     1      38.662 -24.381 -14.902  0.00  0.00    -0.373 N 
ATOM     25  C   UNL     1      38.251 -23.383 -12.404  0.00  0.00    +0.125 C 
ATOM     26  C   UNL     1      36.917 -25.412 -11.988  0.00  0.00    +0.125 C 
ATOM     27  C   UNL     1      37.398 -22.674 -11.359  0.00  0.00    +0.164 C 
ATOM     28  C   UNL     1      36.123 -24.614 -10.962  0.00  0.00    +0.164 C 
ATOM     29  C   UNL     1      37.483 -24.762 -14.295  0.00  0.00    +0.182 C 
ATOM     30  H   UNL     1      39.380 -23.970 -14.369  0.00  0.00    +0.158 HD
ATOM     31  H   UNL     1      38.784 -24.518 -15.870  0.00  0.00    +0.158 HD
ENDBRANCH  21  29
ENDBRANCH   5  21
TORSDOF 5
ENDMDL
MODEL 7
REMARK VINA RESULT:     -11.5      5.650     11.171
REMARK  Name = 9800765
REMARK  5 active torsions:
REMARK  status: ('A' for Active; 'I' for Inactive)
REMARK    1  A    between atoms: C_3  and  C_17
REMARK    2  A    between atoms: C_5  and  N_8
REMARK    3  A    between atoms: N_8  and  C_14
REMARK    4  A    between atoms: C_17  and  C_20
REMARK    5  A    between atoms: C_23  and  C_26
REMARK                            x       y       z     vdW  Elec       q    Type
REMARK                         _______ _______ _______ _____ _____    ______ ____
ROOT
ATOM      1  O   UNL     1      35.309 -15.868 -21.160  0.00  0.00    -0.337 OA
ATOM      2  N   UNL     1      35.207 -17.253 -21.098  0.00  0.00    -0.079 NA
ATOM      3  C   UNL     1      34.966 -17.638 -22.354  0.00  0.00    +0.106 C 
ATOM      4  C   UNL     1      34.906 -16.551 -23.243  0.00  0.00    +0.076 C 
ATOM      5  C   UNL     1      35.127 -15.472 -22.440  0.00  0.00    +0.252 C 
ENDROOT
BRANCH   3   6
ATOM      6  C   UNL     1      34.800 -19.067 -22.664  0.00  0.00    +0.066 C 
ATOM      7  C   UNL     1      35.715 -19.568 -23.808  0.00  0.00    +0.011 C 
BRANCH   6   9
ATOM      8  F   UNL     1      32.810 -21.168 -18.759  0.00  0.00    -0.204 F 
ATOM      9  C   UNL     1      34.934 -19.841 -21.349  0.00  0.00    -0.015 C 
ATOM     10  C   UNL     1      33.793 -20.152 -20.650  0.00  0.00    +0.026 C 
ATOM     11  C   UNL     1      36.193 -20.192 -20.918  0.00  0.00    -0.004 C 
ATOM     12  C   UNL     1      35.176 -21.228 -18.988  0.00  0.00    +0.027 C 
ATOM     13  C   UNL     1      33.915 -20.857 -19.453  0.00  0.00    +0.140 C 
ATOM     14  C   UNL     1      36.315 -20.895 -19.721  0.00  0.00    +0.002 C 
BRANCH  12  15
ATOM     15  C   UNL     1      35.308 -21.960 -17.747  0.00  0.00    +0.002 C 
ATOM     16  C   UNL     1      36.507 -21.912 -17.034  0.00  0.00    +0.000 C 
ATOM     17  C   UNL     1      34.239 -22.712 -17.262  0.00  0.00    +0.000 C 
ATOM     18  C   UNL     1      36.635 -22.616 -15.837  0.00  0.00    +0.000 C 
ATOM     19  C   UNL     1      34.367 -23.416 -16.065  0.00  0.00    +0.000 C 
ATOM     20  C   UNL     1      35.566 -23.369 -15.352  0.00  0.00    +0.000 C 
ENDBRANCH  12  15
ENDBRANCH   6   9
ENDBRANCH   3   6
BRANCH   5  21
ATOM     21  N   UNL     1      35.180 -14.150 -22.766  0.00  0.00    -0.147 NA
BRANCH  21  29
ATOM     22  O   UNL     1      33.588 -10.172 -24.970  0.00  0.00    -0.350 OA
ATOM     23  N   UNL     1      33.746 -12.429 -23.319  0.00  0.00    -0.277 N 
ATOM     24  N   UNL     1      33.312 -13.500 -21.376  0.00  0.00    -0.373 N 
ATOM     25  C   UNL     1      33.076 -11.221 -22.844  0.00  0.00    +0.125 C 
ATOM     26  C   UNL     1      33.788 -12.581 -24.771  0.00  0.00    +0.125 C 
ATOM     27  C   UNL     1      33.665 -10.007 -23.552  0.00  0.00    +0.164 C 
ATOM     28  C   UNL     1      34.346 -11.307 -25.394  0.00  0.00    +0.164 C 
ATOM     29  C   UNL     1      34.134 -13.416 -22.480  0.00  0.00    +0.182 C 
ATOM     30  H   UNL     1      32.552 -12.881 -21.278  0.00  0.00    +0.158 HD
ATOM     31  H   UNL     1      33.484 -14.179 -20.684  0.00  0.00    +0.158 HD
ENDBRANCH  21  29
ENDBRANCH   5  21
TORSDOF 5
ENDMDL
MODEL 8
REMARK VINA RESULT:     -11.3     10.233     14.321
REMARK  Name = 9800765
REMARK  5 active torsions:
REMARK  status: ('A' for Active; 'I' for Inactive)
REMARK    1  A    between atoms: C_3  and  C_17
REMARK    2  A    between atoms: C_5  and  N_8
REMARK    3  A    between atoms: N_8  and  C_14
REMARK    4  A    between atoms: C_17  and  C_20
REMARK    5  A    between atoms: C_23  and  C_26
REMARK                            x       y       z     vdW  Elec       q    Type
REMARK                         _______ _______ _______ _____ _____    ______ ____
ROOT
ATOM      1  O   UNL     1      32.315 -12.282 -20.531  0.00  0.00    -0.337 OA
ATOM      2  N   UNL     1      32.026 -11.091 -19.876  0.00  0.00    -0.079 NA
ATOM      3  C   UNL     1      31.963 -10.171 -20.843  0.00  0.00    +0.106 C 
ATOM      4  C   UNL     1      32.201 -10.718 -22.115  0.00  0.00    +0.076 C 
ATOM      5  C   UNL     1      32.415 -12.040 -21.857  0.00  0.00    +0.252 C 
ENDROOT
BRANCH   3   6
ATOM      6  C   UNL     1      31.668  -8.770 -20.505  0.00  0.00    +0.066 C 
ATOM      7  C   UNL     1      32.070  -8.378 -19.061  0.00  0.00    +0.011 C 
BRANCH   6   9
ATOM      8  F   UNL     1      31.357  -6.515 -24.800  0.00  0.00    -0.204 F 
ATOM      9  C   UNL     1      32.282  -7.895 -21.602  0.00  0.00    -0.015 C 
ATOM     10  C   UNL     1      31.525  -7.605 -22.711  0.00  0.00    +0.026 C 
ATOM     11  C   UNL     1      33.567  -7.434 -21.434  0.00  0.00    -0.004 C 
ATOM     12  C   UNL     1      33.384  -6.325 -23.571  0.00  0.00    +0.027 C 
ATOM     13  C   UNL     1      32.083  -6.808 -23.710  0.00  0.00    +0.140 C 
ATOM     14  C   UNL     1      34.126  -6.638 -22.432  0.00  0.00    +0.002 C 
BRANCH  12  15
ATOM     15  C   UNL     1      33.968  -5.496 -24.604  0.00  0.00    +0.002 C 
ATOM     16  C   UNL     1      33.330  -4.319 -24.996  0.00  0.00    +0.000 C 
ATOM     17  C   UNL     1      35.167  -5.874 -25.207  0.00  0.00    +0.000 C 
ATOM     18  C   UNL     1      33.892  -3.519 -25.990  0.00  0.00    +0.000 C 
ATOM     19  C   UNL     1      35.729  -5.073 -26.202  0.00  0.00    +0.000 C 
ATOM     20  C   UNL     1      35.092  -3.896 -26.595  0.00  0.00    +0.000 C 
ENDBRANCH  12  15
ENDBRANCH   6   9
ENDBRANCH   3   6
BRANCH   5  21
ATOM     21  N   UNL     1      32.695 -13.054 -22.724  0.00  0.00    -0.147 NA
BRANCH  21  29
ATOM     22  O   UNL     1      34.508 -16.757 -25.217  0.00  0.00    -0.350 OA
ATOM     23  N   UNL     1      34.284 -14.444 -23.654  0.00  0.00    -0.277 N 
ATOM     24  N   UNL     1      34.991 -13.111 -21.970  0.00  0.00    -0.373 N 
ATOM     25  C   UNL     1      35.345 -15.410 -23.382  0.00  0.00    +0.125 C 
ATOM     26  C   UNL     1      33.777 -14.453 -25.024  0.00  0.00    +0.125 C 
ATOM     27  C   UNL     1      34.897 -16.792 -23.842  0.00  0.00    +0.164 C 
ATOM     28  C   UNL     1      33.398 -15.877 -25.411  0.00  0.00    +0.164 C 
ATOM     29  C   UNL     1      33.927 -13.494 -22.760  0.00  0.00    +0.182 C 
ATOM     30  H   UNL     1      35.875 -13.525 -22.099  0.00  0.00    +0.158 HD
ATOM     31  H   UNL     1      34.867 -12.424 -21.275  0.00  0.00    +0.158 HD
ENDBRANCH  21  29
ENDBRANCH   5  21
TORSDOF 5
ENDMDL
MODEL 9
REMARK VINA RESULT:     -11.2      9.510     13.489
REMARK  Name = 9800765
REMARK  5 active torsions:
REMARK  status: ('A' for Active; 'I' for Inactive)
REMARK    1  A    between atoms: C_3  and  C_17
REMARK    2  A    between atoms: C_5  and  N_8
REMARK    3  A    between atoms: N_8  and  C_14
REMARK    4  A    between atoms: C_17  and  C_20
REMARK    5  A    between atoms: C_23  and  C_26
REMARK                            x       y       z     vdW  Elec       q    Type
REMARK                         _______ _______ _______ _____ _____    ______ ____
ROOT
ATOM      1  O   UNL     1      32.454 -13.193 -20.758  0.00  0.00    -0.337 OA
ATOM      2  N   UNL     1      31.868 -12.122 -20.095  0.00  0.00    -0.079 NA
ATOM      3  C   UNL     1      31.888 -11.117 -20.975  0.00  0.00    +0.106 C 
ATOM      4  C   UNL     1      32.470 -11.492 -22.199  0.00  0.00    +0.076 C 
ATOM      5  C   UNL     1      32.803 -12.799 -22.004  0.00  0.00    +0.252 C 
ENDROOT
BRANCH   3   6
ATOM      6  C   UNL     1      31.336  -9.805 -20.604  0.00  0.00    +0.066 C 
ATOM      7  C   UNL     1      31.481  -9.469 -19.099  0.00  0.00    +0.011 C 
BRANCH   6   9
ATOM      8  F   UNL     1      31.213  -7.277 -24.754  0.00  0.00    -0.204 F 
ATOM      9  C   UNL     1      31.941  -8.767 -21.555  0.00  0.00    -0.015 C 
ATOM     10  C   UNL     1      31.288  -8.497 -22.734  0.00  0.00    +0.026 C 
ATOM     11  C   UNL     1      33.114  -8.147 -21.192  0.00  0.00    -0.004 C 
ATOM     12  C   UNL     1      33.026  -6.906 -23.262  0.00  0.00    +0.027 C 
ATOM     13  C   UNL     1      31.838  -7.552 -23.600  0.00  0.00    +0.140 C 
ATOM     14  C   UNL     1      33.664  -7.203 -22.058  0.00  0.00    +0.002 C 
BRANCH  12  15
ATOM     15  C   UNL     1      33.600  -5.923 -24.156  0.00  0.00    +0.002 C 
ATOM     16  C   UNL     1      34.832  -6.171 -24.763  0.00  0.00    +0.000 C 
ATOM     17  C   UNL     1      32.923  -4.732 -24.412  0.00  0.00    +0.000 C 
ATOM     18  C   UNL     1      35.386  -5.226 -25.626  0.00  0.00    +0.000 C 
ATOM     19  C   UNL     1      33.478  -3.786 -25.275  0.00  0.00    +0.000 C 
ATOM     20  C   UNL     1      34.710  -4.032 -25.882  0.00  0.00    +0.000 C 
ENDBRANCH  12  15
ENDBRANCH   6   9
ENDBRANCH   3   6
BRANCH   5  21
ATOM     21  N   UNL     1      33.402 -13.674 -22.861  0.00  0.00    -0.147 NA
BRANCH  21  29
ATOM     22  O   UNL     1      35.067 -17.961 -24.296  0.00  0.00    -0.350 OA
ATOM     23  N   UNL     1      34.852 -15.457 -23.059  0.00  0.00    -0.277 N 
ATOM     24  N   UNL     1      35.216 -14.069 -21.312  0.00  0.00    -0.373 N 
ATOM     25  C   UNL     1      35.501 -16.564 -22.362  0.00  0.00    +0.125 C 
ATOM     26  C   UNL     1      34.864 -15.554 -24.517  0.00  0.00    +0.125 C 
ATOM     27  C   UNL     1      34.937 -17.883 -22.874  0.00  0.00    +0.164 C 
ATOM     28  C   UNL     1      34.328 -16.918 -24.935  0.00  0.00    +0.164 C 
ATOM     29  C   UNL     1      34.435 -14.344 -22.415  0.00  0.00    +0.182 C 
ATOM     30  H   UNL     1      35.970 -14.660 -21.083  0.00  0.00    +0.158 HD
ATOM     31  H   UNL     1      35.019 -13.284 -20.752  0.00  0.00    +0.158 HD
ENDBRANCH  21  29
ENDBRANCH   5  21
TORSDOF 5
ENDMDL
