MODEL 1
REMARK VINA RESULT:     -12.7      0.000      0.000
REMARK  Name = 5288710
REMARK  3 active torsions:
REMARK  status: ('A' for Active; 'I' for Inactive)
REMARK    1  A    between atoms: C_6  and  N_18
REMARK    2  A    between atoms: C_9  and  C_15
REMARK    3  A    between atoms: N_18  and  C_29
REMARK                            x       y       z     vdW  Elec       q    Type
REMARK                         _______ _______ _______ _____ _____    ______ ____
ROOT
ATOM      1  O   UNL     1      35.310 -23.719 -16.035  0.00  0.00    -0.270 OA
ATOM      2  N   UNL     1      33.370 -23.919 -14.702  0.00  0.00    -0.280 N 
ATOM      3  C   UNL     1      31.812 -22.978 -16.108  0.00  0.00    +0.019 C 
ATOM      4  C   UNL     1      33.117 -22.952 -16.760  0.00  0.00    +0.069 C 
ATOM      5  C   UNL     1      32.023 -23.576 -14.862  0.00  0.00    +0.051 C 
ATOM      6  C   UNL     1      33.435 -22.477 -17.968  0.00  0.00    +0.066 C 
ATOM      7  C   UNL     1      34.120 -23.568 -15.829  0.00  0.00    +0.251 C 
ATOM      8  C   UNL     1      30.550 -22.557 -16.485  0.00  0.00    +0.005 C 
ATOM      9  C   UNL     1      29.501 -22.747 -15.580  0.00  0.00    +0.036 C 
ATOM     10  C   UNL     1      31.001 -23.774 -13.954  0.00  0.00    +0.015 C 
ATOM     11  C   UNL     1      29.723 -23.350 -14.327  0.00  0.00    +0.004 C 
ATOM     12  H   UNL     1      33.741 -24.351 -13.899  0.00  0.00    +0.155 HD
ENDROOT
BRANCH   9  15
ATOM     13  O   UNL     1      27.991 -21.936 -17.225  0.00  0.00    -0.431 OA
ATOM     14  N   UNL     1      26.019 -21.729 -16.136  0.00  0.00    -0.203 NA
ATOM     15  C   UNL     1      28.169 -22.319 -15.935  0.00  0.00    +0.166 C 
ATOM     16  C   UNL     1      26.981 -22.196 -15.276  0.00  0.00    +0.140 C 
ATOM     17  C   UNL     1      26.673 -21.596 -17.267  0.00  0.00    +0.285 C 
ENDBRANCH   9  15
BRANCH   6  18
ATOM     18  N   UNL     1      34.649 -22.459 -18.558  0.00  0.00    -0.311 N 
ATOM     19  H   UNL     1      35.187 -23.277 -18.453  0.00  0.00    +0.152 HD
BRANCH  18  29
ATOM     20  S   UNL     1      35.617 -17.792 -22.614  0.00  0.00    -0.002 S 
ATOM     21  O   UNL     1      35.843 -18.309 -23.949  0.00  0.00    -0.172 OA
ATOM     22  O   UNL     1      35.335 -16.390 -22.380  0.00  0.00    -0.172 OA
ATOM     23  C   UNL     1      34.322 -18.761 -21.856  0.00  0.00    +0.177 C 
ATOM     24  C   UNL     1      37.003 -18.266 -21.593  0.00  0.00    +0.177 C 
ATOM     25  C   UNL     1      35.076 -19.638 -20.914  0.00  0.00    +0.000 C 
ATOM     26  C   UNL     1      36.446 -19.385 -20.780  0.00  0.00    -0.001 C 
ATOM     27  C   UNL     1      34.475 -20.656 -20.177  0.00  0.00    +0.012 C 
ATOM     28  C   UNL     1      37.218 -20.150 -19.908  0.00  0.00    -0.002 C 
ATOM     29  C   UNL     1      35.249 -21.424 -19.307  0.00  0.00    +0.048 C 
ATOM     30  C   UNL     1      36.617 -21.172 -19.172  0.00  0.00    +0.014 C 
ENDBRANCH  18  29
ENDBRANCH   6  18
TORSDOF 3
ENDMDL
MODEL 2
REMARK VINA RESULT:     -11.6      3.489      8.957
REMARK  Name = 5288710
REMARK  3 active torsions:
REMARK  status: ('A' for Active; 'I' for Inactive)
REMARK    1  A    between atoms: C_6  and  N_18
REMARK    2  A    between atoms: C_9  and  C_15
REMARK    3  A    between atoms: N_18  and  C_29
REMARK                            x       y       z     vdW  Elec       q    Type
REMARK                         _______ _______ _______ _____ _____    ______ ____
ROOT
ATOM      1  O   UNL     1      36.493 -22.084 -17.678  0.00  0.00    -0.270 OA
ATOM      2  N   UNL     1      37.325 -20.334 -19.029  0.00  0.00    -0.280 N 
ATOM      3  C   UNL     1      35.584 -20.104 -20.514  0.00  0.00    +0.019 C 
ATOM      4  C   UNL     1      35.262 -21.165 -19.566  0.00  0.00    +0.069 C 
ATOM      5  C   UNL     1      36.846 -19.633 -20.142  0.00  0.00    +0.051 C 
ATOM      6  C   UNL     1      34.164 -21.923 -19.505  0.00  0.00    +0.066 C 
ATOM      7  C   UNL     1      36.408 -21.301 -18.607  0.00  0.00    +0.251 C 
ATOM      8  C   UNL     1      34.915 -19.555 -21.592  0.00  0.00    +0.005 C 
ATOM      9  C   UNL     1      35.544 -18.521 -22.292  0.00  0.00    +0.036 C 
ATOM     10  C   UNL     1      37.485 -18.612 -20.819  0.00  0.00    +0.015 C 
ATOM     11  C   UNL     1      36.816 -18.053 -21.910  0.00  0.00    +0.004 C 
ATOM     12  H   UNL     1      38.195 -20.167 -18.599  0.00  0.00    +0.155 HD
ENDROOT
BRANCH   9  15
ATOM     13  O   UNL     1      35.062 -16.586 -23.585  0.00  0.00    -0.431 OA
ATOM     14  N   UNL     1      33.729 -17.333 -25.253  0.00  0.00    -0.203 NA
ATOM     15  C   UNL     1      34.879 -17.922 -23.426  0.00  0.00    +0.166 C 
ATOM     16  C   UNL     1      34.076 -18.375 -24.431  0.00  0.00    +0.140 C 
ATOM     17  C   UNL     1      34.339 -16.307 -24.705  0.00  0.00    +0.285 C 
ENDBRANCH   9  15
BRANCH   6  18
ATOM     18  N   UNL     1      33.880 -22.903 -18.621  0.00  0.00    -0.311 N 
ATOM     19  H   UNL     1      34.297 -23.776 -18.803  0.00  0.00    +0.152 HD
BRANCH  18  29
ATOM     20  S   UNL     1      31.708 -23.528 -12.785  0.00  0.00    -0.002 S 
ATOM     21  O   UNL     1      31.164 -24.857 -12.578  0.00  0.00    -0.172 OA
ATOM     22  O   UNL     1      31.984 -22.639 -11.675  0.00  0.00    -0.172 OA
ATOM     23  C   UNL     1      33.192 -23.684 -13.766  0.00  0.00    +0.177 C 
ATOM     24  C   UNL     1      30.653 -22.673 -13.944  0.00  0.00    +0.177 C 
ATOM     25  C   UNL     1      32.745 -23.234 -15.115  0.00  0.00    +0.000 C 
ATOM     26  C   UNL     1      31.447 -22.717 -15.206  0.00  0.00    -0.001 C 
ATOM     27  C   UNL     1      33.556 -23.296 -16.246  0.00  0.00    +0.012 C 
ATOM     28  C   UNL     1      30.958 -22.261 -16.429  0.00  0.00    -0.002 C 
ATOM     29  C   UNL     1      33.066 -22.842 -17.470  0.00  0.00    +0.048 C 
ATOM     30  C   UNL     1      31.770 -22.326 -17.562  0.00  0.00    +0.014 C 
ENDBRANCH  18  29
ENDBRANCH   6  18
TORSDOF 3
ENDMDL
MODEL 3
REMARK VINA RESULT:     -11.4      1.577      2.200
REMARK  Name = 5288710
REMARK  3 active torsions:
REMARK  status: ('A' for Active; 'I' for Inactive)
REMARK    1  A    between atoms: C_6  and  N_18
REMARK    2  A    between atoms: C_9  and  C_15
REMARK    3  A    between atoms: N_18  and  C_29
REMARK                            x       y       z     vdW  Elec       q    Type
REMARK                         _______ _______ _______ _____ _____    ______ ____
ROOT
ATOM      1  O   UNL     1      37.232 -22.045 -17.327  0.00  0.00    -0.270 OA
ATOM      2  N   UNL     1      35.703 -22.743 -15.667  0.00  0.00    -0.280 N 
ATOM      3  C   UNL     1      33.730 -22.583 -16.836  0.00  0.00    +0.019 C 
ATOM      4  C   UNL     1      34.831 -22.184 -17.707  0.00  0.00    +0.069 C 
ATOM      5  C   UNL     1      34.315 -22.913 -15.611  0.00  0.00    +0.051 C 
ATOM      6  C   UNL     1      34.783 -21.779 -18.979  0.00  0.00    +0.066 C 
ATOM      7  C   UNL     1      36.109 -22.294 -16.927  0.00  0.00    +0.251 C 
ATOM      8  C   UNL     1      32.362 -22.676 -17.014  0.00  0.00    +0.005 C 
ATOM      9  C   UNL     1      31.591 -23.107 -15.930  0.00  0.00    +0.036 C 
ATOM     10  C   UNL     1      33.573 -23.342 -14.528  0.00  0.00    +0.015 C 
ATOM     11  C   UNL     1      32.190 -23.438 -14.699  0.00  0.00    +0.004 C 
ATOM     12  H   UNL     1      36.315 -22.918 -14.915  0.00  0.00    +0.155 HD
ENDROOT
BRANCH   9  15
ATOM     13  O   UNL     1      29.562 -22.258 -16.829  0.00  0.00    -0.431 OA
ATOM     14  N   UNL     1      27.971 -23.684 -16.088  0.00  0.00    -0.203 NA
ATOM     15  C   UNL     1      30.159 -23.216 -16.074  0.00  0.00    +0.166 C 
ATOM     16  C   UNL     1      29.201 -24.078 -15.626  0.00  0.00    +0.140 C 
ATOM     17  C   UNL     1      28.247 -22.609 -16.789  0.00  0.00    +0.285 C 
ENDBRANCH   9  15
BRANCH   6  18
ATOM     18  N   UNL     1      35.813 -21.412 -19.772  0.00  0.00    -0.311 N 
ATOM     19  H   UNL     1      36.581 -22.028 -19.786  0.00  0.00    +0.152 HD
BRANCH  18  29
ATOM     20  S   UNL     1      34.829 -17.042 -24.142  0.00  0.00    -0.002 S 
ATOM     21  O   UNL     1      35.325 -17.483 -25.432  0.00  0.00    -0.172 OA
ATOM     22  O   UNL     1      33.949 -15.898 -24.018  0.00  0.00    -0.172 OA
ATOM     23  C   UNL     1      34.057 -18.437 -23.339  0.00  0.00    +0.177 C 
ATOM     24  C   UNL     1      36.231 -16.795 -23.065  0.00  0.00    +0.177 C 
ATOM     25  C   UNL     1      35.071 -18.835 -22.322  0.00  0.00    +0.000 C 
ATOM     26  C   UNL     1      36.183 -17.996 -22.181  0.00  0.00    -0.001 C 
ATOM     27  C   UNL     1      34.944 -19.969 -21.522  0.00  0.00    +0.012 C 
ATOM     28  C   UNL     1      37.169 -18.289 -21.241  0.00  0.00    -0.002 C 
ATOM     29  C   UNL     1      35.933 -20.264 -20.584  0.00  0.00    +0.048 C 
ATOM     30  C   UNL     1      37.042 -19.427 -20.444  0.00  0.00    +0.014 C 
ENDBRANCH  18  29
ENDBRANCH   6  18
TORSDOF 3
ENDMDL
MODEL 4
REMARK VINA RESULT:     -11.4      3.532      6.883
REMARK  Name = 5288710
REMARK  3 active torsions:
REMARK  status: ('A' for Active; 'I' for Inactive)
REMARK    1  A    between atoms: C_6  and  N_18
REMARK    2  A    between atoms: C_9  and  C_15
REMARK    3  A    between atoms: N_18  and  C_29
REMARK                            x       y       z     vdW  Elec       q    Type
REMARK                         _______ _______ _______ _____ _____    ______ ____
ROOT
ATOM      1  O   UNL     1      32.562 -22.696 -14.871  0.00  0.00    -0.270 OA
ATOM      2  N   UNL     1      34.019 -23.634 -13.266  0.00  0.00    -0.280 N 
ATOM      3  C   UNL     1      35.777 -24.242 -14.619  0.00  0.00    +0.019 C 
ATOM      4  C   UNL     1      34.739 -23.626 -15.438  0.00  0.00    +0.069 C 
ATOM      5  C   UNL     1      35.289 -24.221 -13.309  0.00  0.00    +0.051 C 
ATOM      6  C   UNL     1      34.734 -23.416 -16.757  0.00  0.00    +0.066 C 
ATOM      7  C   UNL     1      33.601 -23.237 -14.540  0.00  0.00    +0.251 C 
ATOM      8  C   UNL     1      37.020 -24.778 -14.901  0.00  0.00    +0.005 C 
ATOM      9  C   UNL     1      37.764 -25.295 -13.836  0.00  0.00    +0.036 C 
ATOM     10  C   UNL     1      36.008 -24.726 -12.243  0.00  0.00    +0.015 C 
ATOM     11  C   UNL     1      37.265 -25.270 -12.520  0.00  0.00    +0.004 C 
ATOM     12  H   UNL     1      33.489 -23.516 -12.445  0.00  0.00    +0.155 HD
ENDROOT
BRANCH   9  15
ATOM     13  O   UNL     1      39.099 -26.913 -14.952  0.00  0.00    -0.431 OA
ATOM     14  N   UNL     1      41.209 -26.492 -14.251  0.00  0.00    -0.203 NA
ATOM     15  C   UNL     1      39.066 -25.865 -14.089  0.00  0.00    +0.166 C 
ATOM     16  C   UNL     1      40.338 -25.609 -13.665  0.00  0.00    +0.140 C 
ATOM     17  C   UNL     1      40.422 -27.233 -14.997  0.00  0.00    +0.285 C 
ENDBRANCH   9  15
BRANCH   6  18
ATOM     18  N   UNL     1      33.764 -22.844 -17.502  0.00  0.00    -0.311 N 
ATOM     19  H   UNL     1      32.844 -23.132 -17.300  0.00  0.00    +0.152 HD
BRANCH  18  29
ATOM     20  S   UNL     1      36.120 -18.749 -21.607  0.00  0.00    -0.002 S 
ATOM     21  O   UNL     1      36.374 -17.471 -20.971  0.00  0.00    -0.172 OA
ATOM     22  O   UNL     1      36.664 -19.069 -22.911  0.00  0.00    -0.172 OA
ATOM     23  C   UNL     1      36.593 -20.040 -20.467  0.00  0.00    +0.177 C 
ATOM     24  C   UNL     1      34.353 -19.003 -21.654  0.00  0.00    +0.177 C 
ATOM     25  C   UNL     1      35.280 -20.527 -19.958  0.00  0.00    +0.000 C 
ATOM     26  C   UNL     1      34.135 -19.998 -20.565  0.00  0.00    -0.001 C 
ATOM     27  C   UNL     1      35.161 -21.474 -18.943  0.00  0.00    +0.012 C 
ATOM     28  C   UNL     1      32.869 -20.414 -20.157  0.00  0.00    -0.002 C 
ATOM     29  C   UNL     1      33.893 -21.888 -18.532  0.00  0.00    +0.048 C 
ATOM     30  C   UNL     1      32.750 -21.359 -19.138  0.00  0.00    +0.014 C 
ENDBRANCH  18  29
ENDBRANCH   6  18
TORSDOF 3
ENDMDL
MODEL 5
REMARK VINA RESULT:     -11.1      2.495      5.270
REMARK  Name = 5288710
REMARK  3 active torsions:
REMARK  status: ('A' for Active; 'I' for Inactive)
REMARK    1  A    between atoms: C_6  and  N_18
REMARK    2  A    between atoms: C_9  and  C_15
REMARK    3  A    between atoms: N_18  and  C_29
REMARK                            x       y       z     vdW  Elec       q    Type
REMARK                         _______ _______ _______ _____ _____    ______ ____
ROOT
ATOM      1  O   UNL     1      31.615 -22.318 -17.630  0.00  0.00    -0.270 OA
ATOM      2  N   UNL     1      31.682 -23.070 -15.391  0.00  0.00    -0.280 N 
ATOM      3  C   UNL     1      33.949 -23.357 -15.126  0.00  0.00    +0.019 C 
ATOM      4  C   UNL     1      33.686 -22.883 -16.481  0.00  0.00    +0.069 C 
ATOM      5  C   UNL     1      32.698 -23.453 -14.508  0.00  0.00    +0.051 C 
ATOM      6  C   UNL     1      34.559 -22.635 -17.461  0.00  0.00    +0.066 C 
ATOM      7  C   UNL     1      32.204 -22.702 -16.635  0.00  0.00    +0.251 C 
ATOM      8  C   UNL     1      35.102 -23.686 -14.440  0.00  0.00    +0.005 C 
ATOM      9  C   UNL     1      34.974 -24.115 -13.115  0.00  0.00    +0.036 C 
ATOM     10  C   UNL     1      32.549 -23.873 -13.201  0.00  0.00    +0.015 C 
ATOM     11  C   UNL     1      33.711 -24.208 -12.501  0.00  0.00    +0.004 C 
ATOM     12  H   UNL     1      30.724 -23.061 -15.165  0.00  0.00    +0.155 HD
ENDROOT
BRANCH   9  15
ATOM     13  O   UNL     1      36.957 -25.410 -12.926  0.00  0.00    -0.431 OA
ATOM     14  N   UNL     1      37.868 -24.772 -10.956  0.00  0.00    -0.203 NA
ATOM     15  C   UNL     1      36.155 -24.470 -12.364  0.00  0.00    +0.166 C 
ATOM     16  C   UNL     1      36.703 -24.082 -11.176  0.00  0.00    +0.140 C 
ATOM     17  C   UNL     1      37.965 -25.537 -12.019  0.00  0.00    +0.285 C 
ENDBRANCH   9  15
BRANCH   6  18
ATOM     18  N   UNL     1      34.300 -22.196 -18.711  0.00  0.00    -0.311 N 
ATOM     19  H   UNL     1      33.524 -22.608 -19.155  0.00  0.00    +0.152 HD
BRANCH  18  29
ATOM     20  S   UNL     1      35.715 -17.717 -22.847  0.00  0.00    -0.002 S 
ATOM     21  O   UNL     1      35.947 -18.285 -24.161  0.00  0.00    -0.172 OA
ATOM     22  O   UNL     1      35.524 -16.293 -22.657  0.00  0.00    -0.172 OA
ATOM     23  C   UNL     1      34.334 -18.575 -22.108  0.00  0.00    +0.177 C 
ATOM     24  C   UNL     1      37.033 -18.258 -21.769  0.00  0.00    +0.177 C 
ATOM     25  C   UNL     1      34.995 -19.475 -21.121  0.00  0.00    +0.000 C 
ATOM     26  C   UNL     1      36.374 -19.313 -20.947  0.00  0.00    -0.001 C 
ATOM     27  C   UNL     1      34.302 -20.430 -20.379  0.00  0.00    +0.012 C 
ATOM     28  C   UNL     1      37.064 -20.106 -20.032  0.00  0.00    -0.002 C 
ATOM     29  C   UNL     1      34.993 -21.226 -19.465  0.00  0.00    +0.048 C 
ATOM     30  C   UNL     1      36.370 -21.064 -19.292  0.00  0.00    +0.014 C 
ENDBRANCH  18  29
ENDBRANCH   6  18
TORSDOF 3
ENDMDL
MODEL 6
REMARK VINA RESULT:     -11.0      3.166      8.700
REMARK  Name = 5288710
REMARK  3 active torsions:
REMARK  status: ('A' for Active; 'I' for Inactive)
REMARK    1  A    between atoms: C_6  and  N_18
REMARK    2  A    between atoms: C_9  and  C_15
REMARK    3  A    between atoms: N_18  and  C_29
REMARK                            x       y       z     vdW  Elec       q    Type
REMARK                         _______ _______ _______ _____ _____    ______ ____
ROOT
ATOM      1  O   UNL     1      37.029 -21.740 -17.617  0.00  0.00    -0.270 OA
ATOM      2  N   UNL     1      37.591 -20.006 -19.119  0.00  0.00    -0.280 N 
ATOM      3  C   UNL     1      35.744 -20.040 -20.489  0.00  0.00    +0.019 C 
ATOM      4  C   UNL     1      35.592 -21.066 -19.463  0.00  0.00    +0.069 C 
ATOM      5  C   UNL     1      36.974 -19.427 -20.234  0.00  0.00    +0.051 C 
ATOM      6  C   UNL     1      34.583 -21.922 -19.283  0.00  0.00    +0.066 C 
ATOM      7  C   UNL     1      36.806 -21.030 -18.580  0.00  0.00    +0.251 C 
ATOM      8  C   UNL     1      34.955 -19.629 -21.547  0.00  0.00    +0.005 C 
ATOM      9  C   UNL     1      35.430 -18.585 -22.347  0.00  0.00    +0.036 C 
ATOM     10  C   UNL     1      37.460 -18.394 -21.011  0.00  0.00    +0.015 C 
ATOM     11  C   UNL     1      36.670 -17.973 -22.083  0.00  0.00    +0.004 C 
ATOM     12  H   UNL     1      38.465 -19.728 -18.762  0.00  0.00    +0.155 HD
ENDROOT
BRANCH   9  15
ATOM     13  O   UNL     1      34.704 -16.798 -23.734  0.00  0.00    -0.431 OA
ATOM     14  N   UNL     1      33.309 -17.767 -25.229  0.00  0.00    -0.203 NA
ATOM     15  C   UNL     1      34.637 -18.126 -23.464  0.00  0.00    +0.166 C 
ATOM     16  C   UNL     1      33.797 -18.714 -24.364  0.00  0.00    +0.140 C 
ATOM     17  C   UNL     1      33.878 -16.661 -24.809  0.00  0.00    +0.285 C 
ENDBRANCH   9  15
BRANCH   6  18
ATOM     18  N   UNL     1      34.457 -22.867 -18.327  0.00  0.00    -0.311 N 
ATOM     19  H   UNL     1      35.076 -23.630 -18.396  0.00  0.00    +0.152 HD
BRANCH  18  29
ATOM     20  S   UNL     1      29.232 -22.888 -14.881  0.00  0.00    -0.002 S 
ATOM     21  O   UNL     1      28.737 -21.539 -14.690  0.00  0.00    -0.172 OA
ATOM     22  O   UNL     1      28.416 -24.047 -14.582  0.00  0.00    -0.172 OA
ATOM     23  C   UNL     1      29.818 -23.030 -16.562  0.00  0.00    +0.177 C 
ATOM     24  C   UNL     1      30.776 -23.042 -13.996  0.00  0.00    +0.177 C 
ATOM     25  C   UNL     1      31.299 -22.978 -16.400  0.00  0.00    +0.000 C 
ATOM     26  C   UNL     1      31.789 -22.984 -15.089  0.00  0.00    -0.001 C 
ATOM     27  C   UNL     1      32.182 -22.942 -17.478  0.00  0.00    +0.012 C 
ATOM     28  C   UNL     1      33.162 -22.954 -14.853  0.00  0.00    -0.002 C 
ATOM     29  C   UNL     1      33.557 -22.907 -17.241  0.00  0.00    +0.048 C 
ATOM     30  C   UNL     1      34.045 -22.913 -15.932  0.00  0.00    +0.014 C 
ENDBRANCH  18  29
ENDBRANCH   6  18
TORSDOF 3
ENDMDL
MODEL 7
REMARK VINA RESULT:     -10.9      7.267     11.453
REMARK  Name = 5288710
REMARK  3 active torsions:
REMARK  status: ('A' for Active; 'I' for Inactive)
REMARK    1  A    between atoms: C_6  and  N_18
REMARK    2  A    between atoms: C_9  and  C_15
REMARK    3  A    between atoms: N_18  and  C_29
REMARK                            x       y       z     vdW  Elec       q    Type
REMARK                         _______ _______ _______ _____ _____    ______ ____
ROOT
ATOM      1  O   UNL     1      33.031 -13.796 -26.059  0.00  0.00    -0.270 OA
ATOM      2  N   UNL     1      33.222 -16.114 -25.647  0.00  0.00    -0.280 N 
ATOM      3  C   UNL     1      34.593 -16.088 -23.801  0.00  0.00    +0.019 C 
ATOM      4  C   UNL     1      34.345 -14.715 -24.228  0.00  0.00    +0.069 C 
ATOM      5  C   UNL     1      33.887 -16.896 -24.696  0.00  0.00    +0.051 C 
ATOM      6  C   UNL     1      34.803 -13.580 -23.691  0.00  0.00    +0.066 C 
ATOM      7  C   UNL     1      33.450 -14.752 -25.432  0.00  0.00    +0.251 C 
ATOM      8  C   UNL     1      35.327 -16.647 -22.772  0.00  0.00    +0.005 C 
ATOM      9  C   UNL     1      35.339 -18.041 -22.661  0.00  0.00    +0.036 C 
ATOM     10  C   UNL     1      33.885 -18.275 -24.604  0.00  0.00    +0.015 C 
ATOM     11  C   UNL     1      34.625 -18.847 -23.567  0.00  0.00    +0.004 C 
ATOM     12  H   UNL     1      32.664 -16.477 -26.373  0.00  0.00    +0.155 HD
ENDROOT
BRANCH   9  15
ATOM     13  O   UNL     1      35.527 -19.754 -21.026  0.00  0.00    -0.431 OA
ATOM     14  N   UNL     1      37.518 -19.370 -20.024  0.00  0.00    -0.203 NA
ATOM     15  C   UNL     1      36.096 -18.664 -21.601  0.00  0.00    +0.166 C 
ATOM     16  C   UNL     1      37.298 -18.430 -20.999  0.00  0.00    +0.140 C 
ATOM     17  C   UNL     1      36.442 -20.121 -20.087  0.00  0.00    +0.285 C 
ENDBRANCH   9  15
BRANCH   6  18
ATOM     18  N   UNL     1      34.564 -12.315 -24.098  0.00  0.00    -0.311 N 
ATOM     19  H   UNL     1      34.969 -12.060 -24.959  0.00  0.00    +0.152 HD
BRANCH  18  29
ATOM     20  S   UNL     1      32.322  -6.769 -22.257  0.00  0.00    -0.002 S 
ATOM     21  O   UNL     1      33.179  -6.178 -21.247  0.00  0.00    -0.172 OA
ATOM     22  O   UNL     1      31.303  -5.996 -22.936  0.00  0.00    -0.172 OA
ATOM     23  C   UNL     1      33.364  -7.535 -23.488  0.00  0.00    +0.177 C 
ATOM     24  C   UNL     1      31.553  -8.218 -21.551  0.00  0.00    +0.177 C 
ATOM     25  C   UNL     1      33.246  -8.985 -23.165  0.00  0.00    +0.000 C 
ATOM     26  C   UNL     1      32.320  -9.335 -22.174  0.00  0.00    -0.001 C 
ATOM     27  C   UNL     1      33.991  -9.972 -23.807  0.00  0.00    +0.012 C 
ATOM     28  C   UNL     1      32.138 -10.671 -21.825  0.00  0.00    -0.002 C 
ATOM     29  C   UNL     1      33.812 -11.310 -23.455  0.00  0.00    +0.048 C 
ATOM     30  C   UNL     1      32.888 -11.658 -22.466  0.00  0.00    +0.014 C 
ENDBRANCH  18  29
ENDBRANCH   6  18
TORSDOF 3
ENDMDL
MODEL 8
REMARK VINA RESULT:     -10.7      7.963     12.293
REMARK  Name = 5288710
REMARK  3 active torsions:
REMARK  status: ('A' for Active; 'I' for Inactive)
REMARK    1  A    between atoms: C_6  and  N_18
REMARK    2  A    between atoms: C_9  and  C_15
REMARK    3  A    between atoms: N_18  and  C_29
REMARK                            x       y       z     vdW  Elec       q    Type
REMARK                         _______ _______ _______ _____ _____    ______ ____
ROOT
ATOM      1  O   UNL     1      32.586 -12.851 -26.716  0.00  0.00    -0.270 OA
ATOM      2  N   UNL     1      32.793 -15.154 -26.234  0.00  0.00    -0.280 N 
ATOM      3  C   UNL     1      34.288 -15.073 -24.488  0.00  0.00    +0.019 C 
ATOM      4  C   UNL     1      34.018 -13.714 -24.946  0.00  0.00    +0.069 C 
ATOM      5  C   UNL     1      33.518 -15.907 -25.303  0.00  0.00    +0.051 C 
ATOM      6  C   UNL     1      34.517 -12.564 -24.483  0.00  0.00    +0.066 C 
ATOM      7  C   UNL     1      33.042 -13.787 -26.085  0.00  0.00    +0.251 C 
ATOM      8  C   UNL     1      35.088 -15.600 -23.492  0.00  0.00    +0.005 C 
ATOM      9  C   UNL     1      35.100 -16.989 -23.332  0.00  0.00    +0.036 C 
ATOM     10  C   UNL     1      33.515 -17.281 -25.162  0.00  0.00    +0.015 C 
ATOM     11  C   UNL     1      34.322 -17.822 -24.158  0.00  0.00    +0.004 C 
ATOM     12  H   UNL     1      32.185 -15.539 -26.906  0.00  0.00    +0.155 HD
ENDROOT
BRANCH   9  15
ATOM     13  O   UNL     1      37.073 -18.168 -22.728  0.00  0.00    -0.431 OA
ATOM     14  N   UNL     1      36.944 -18.378 -20.480  0.00  0.00    -0.203 NA
ATOM     15  C   UNL     1      35.925 -17.580 -22.305  0.00  0.00    +0.166 C 
ATOM     16  C   UNL     1      35.845 -17.705 -20.948  0.00  0.00    +0.140 C 
ATOM     17  C   UNL     1      37.630 -18.623 -21.573  0.00  0.00    +0.285 C 
ENDBRANCH   9  15
BRANCH   6  18
ATOM     18  N   UNL     1      34.257 -11.313 -24.919  0.00  0.00    -0.311 N 
ATOM     19  H   UNL     1      34.114 -11.219 -25.888  0.00  0.00    +0.152 HD
BRANCH  18  29
ATOM     20  S   UNL     1      32.279  -6.832 -21.022  0.00  0.00    -0.002 S 
ATOM     21  O   UNL     1      31.268  -6.008 -21.657  0.00  0.00    -0.172 OA
ATOM     22  O   UNL     1      32.509  -6.786 -19.593  0.00  0.00    -0.172 OA
ATOM     23  C   UNL     1      31.984  -8.530 -21.491  0.00  0.00    +0.177 C 
ATOM     24  C   UNL     1      33.832  -6.541 -21.854  0.00  0.00    +0.177 C 
ATOM     25  C   UNL     1      33.045  -8.780 -22.508  0.00  0.00    +0.000 C 
ATOM     26  C   UNL     1      33.990  -7.763 -22.694  0.00  0.00    -0.001 C 
ATOM     27  C   UNL     1      33.132  -9.960 -23.243  0.00  0.00    +0.012 C 
ATOM     28  C   UNL     1      35.023  -7.926 -23.614  0.00  0.00    -0.002 C 
ATOM     29  C   UNL     1      34.164 -10.121 -24.168  0.00  0.00    +0.048 C 
ATOM     30  C   UNL     1      35.107  -9.107 -24.353  0.00  0.00    +0.014 C 
ENDBRANCH  18  29
ENDBRANCH   6  18
TORSDOF 3
ENDMDL
MODEL 9
REMARK VINA RESULT:     -10.6      3.245      5.529
REMARK  Name = 5288710
REMARK  3 active torsions:
REMARK  status: ('A' for Active; 'I' for Inactive)
REMARK    1  A    between atoms: C_6  and  N_18
REMARK    2  A    between atoms: C_9  and  C_15
REMARK    3  A    between atoms: N_18  and  C_29
REMARK                            x       y       z     vdW  Elec       q    Type
REMARK                         _______ _______ _______ _____ _____    ______ ____
ROOT
ATOM      1  O   UNL     1      32.741 -21.629 -20.099  0.00  0.00    -0.270 OA
ATOM      2  N   UNL     1      32.509 -22.362 -17.865  0.00  0.00    -0.280 N 
ATOM      3  C   UNL     1      34.716 -22.403 -17.219  0.00  0.00    +0.019 C 
ATOM      4  C   UNL     1      34.636 -21.964 -18.609  0.00  0.00    +0.069 C 
ATOM      5  C   UNL     1      33.396 -22.630 -16.817  0.00  0.00    +0.051 C 
ATOM      6  C   UNL     1      35.631 -21.628 -19.434  0.00  0.00    +0.066 C 
ATOM      7  C   UNL     1      33.190 -21.944 -19.012  0.00  0.00    +0.251 C 
ATOM      8  C   UNL     1      35.766 -22.603 -16.343  0.00  0.00    +0.005 C 
ATOM      9  C   UNL     1      35.462 -23.040 -15.049  0.00  0.00    +0.036 C 
ATOM     10  C   UNL     1      33.074 -23.060 -15.544  0.00  0.00    +0.015 C 
ATOM     11  C   UNL     1      34.130 -23.266 -14.653  0.00  0.00    +0.004 C 
ATOM     12  H   UNL     1      31.531 -22.455 -17.802  0.00  0.00    +0.155 HD
ENDROOT
BRANCH   9  15
ATOM     13  O   UNL     1      36.233 -23.022 -12.802  0.00  0.00    -0.431 OA
ATOM     14  N   UNL     1      38.385 -23.706 -12.932  0.00  0.00    -0.203 NA
ATOM     15  C   UNL     1      36.531 -23.263 -14.105  0.00  0.00    +0.166 C 
ATOM     16  C   UNL     1      37.828 -23.676 -14.186  0.00  0.00    +0.140 C 
ATOM     17  C   UNL     1      37.398 -23.312 -12.160  0.00  0.00    +0.285 C 
ENDBRANCH   9  15
BRANCH   6  18
ATOM     18  N   UNL     1      35.541 -21.224 -20.719  0.00  0.00    -0.311 N 
ATOM     19  H   UNL     1      35.466 -21.942 -21.388  0.00  0.00    +0.152 HD
BRANCH  18  29
ATOM     20  S   UNL     1      34.683 -16.231 -24.395  0.00  0.00    -0.002 S 
ATOM     21  O   UNL     1      35.693 -16.178 -25.434  0.00  0.00    -0.172 OA
ATOM     22  O   UNL     1      33.488 -15.415 -24.455  0.00  0.00    -0.172 OA
ATOM     23  C   UNL     1      34.192 -17.936 -24.188  0.00  0.00    +0.177 C 
ATOM     24  C   UNL     1      35.485 -15.942 -22.826  0.00  0.00    +0.177 C 
ATOM     25  C   UNL     1      34.883 -18.326 -22.926  0.00  0.00    +0.000 C 
ATOM     26  C   UNL     1      35.544 -17.308 -22.230  0.00  0.00    -0.001 C 
ATOM     27  C   UNL     1      34.878 -19.627 -22.427  0.00  0.00    +0.012 C 
ATOM     28  C   UNL     1      36.201 -17.588 -21.034  0.00  0.00    -0.002 C 
ATOM     29  C   UNL     1      35.539 -19.908 -21.231  0.00  0.00    +0.048 C 
ATOM     30  C   UNL     1      36.199 -18.891 -20.536  0.00  0.00    +0.014 C 
ENDBRANCH  18  29
ENDBRANCH   6  18
TORSDOF 3
ENDMDL
