MODEL 1
REMARK VINA RESULT:     -11.9      0.000      0.000
REMARK  Name = 10138993
REMARK  4 active torsions:
REMARK  status: ('A' for Active; 'I' for Inactive)
REMARK    1  A    between atoms: C_5  and  N_18
REMARK    2  A    between atoms: C_12  and  C_22
REMARK    3  A    between atoms: C_22  and  C_26
REMARK    4  A    between atoms: C_23  and  N_29
REMARK                            x       y       z     vdW  Elec       q    Type
REMARK                         _______ _______ _______ _____ _____    ______ ____
ROOT
ATOM      1  O   UNL     1      32.266 -22.481 -14.858  0.00  0.00    -0.274 OA
ATOM      2  N   UNL     1      35.138 -23.513 -11.968  0.00  0.00    -0.275 N 
ATOM      3  N   UNL     1      34.157 -23.818 -15.249  0.00  0.00    -0.268 N 
ATOM      4  N   UNL     1      34.260 -23.224 -12.943  0.00  0.00    -0.157 NA
ATOM      5  C   UNL     1      37.979 -25.863 -13.756  0.00  0.00    +0.069 C 
ATOM      6  C   UNL     1      36.871 -25.340 -14.434  0.00  0.00    +0.020 C 
ATOM      7  C   UNL     1      38.179 -25.602 -12.399  0.00  0.00    +0.018 C 
ATOM      8  C   UNL     1      35.959 -24.545 -13.719  0.00  0.00    +0.052 A 
ATOM      9  C   UNL     1      36.182 -24.303 -12.368  0.00  0.00    +0.077 A 
ATOM     10  C   UNL     1      37.280 -24.814 -11.672  0.00  0.00    +0.020 C 
ATOM     11  C   UNL     1      34.771 -23.854 -13.990  0.00  0.00    +0.155 A 
ATOM     12  C   UNL     1      32.982 -23.155 -15.591  0.00  0.00    +0.232 C 
ATOM     13  H   UNL     1      35.038 -23.186 -11.044  0.00  0.00    +0.189 HD
ATOM     14  H   UNL     1      34.605 -24.316 -15.970  0.00  0.00    +0.156 HD
ENDROOT
BRANCH   5  18
ATOM     15  S   UNL     1      40.600 -26.185 -14.502  0.00  0.00    +0.057 S 
ATOM     16  O   UNL     1      40.696 -24.749 -14.674  0.00  0.00    -0.154 OA
ATOM     17  O   UNL     1      41.328 -26.888 -13.467  0.00  0.00    -0.154 OA
ATOM     18  N   UNL     1      38.934 -26.686 -14.476  0.00  0.00    -0.194 N 
ATOM     19  C   UNL     1      40.943 -26.951 -16.079  0.00  0.00    +0.174 C 
ATOM     20  C   UNL     1      39.845 -27.985 -16.267  0.00  0.00    +0.051 C 
ATOM     21  C   UNL     1      38.559 -27.330 -15.768  0.00  0.00    +0.117 C 
ENDBRANCH   5  18
BRANCH  12  22
ATOM     22  C   UNL     1      32.651 -23.363 -17.067  0.00  0.00    +0.112 C 
BRANCH  22  26
ATOM     23  C   UNL     1      34.753 -20.701 -19.723  0.00  0.00    +0.048 C 
ATOM     24  C   UNL     1      33.346 -20.696 -19.657  0.00  0.00    +0.014 C 
ATOM     25  C   UNL     1      35.453 -21.600 -18.896  0.00  0.00    +0.014 C 
ATOM     26  C   UNL     1      33.379 -22.441 -17.986  0.00  0.00    -0.013 C 
ATOM     27  C   UNL     1      32.665 -21.558 -18.798  0.00  0.00    -0.003 C 
ATOM     28  C   UNL     1      34.772 -22.462 -18.036  0.00  0.00    -0.003 C 
BRANCH  23  29
ATOM     29  N   UNL     1      35.436 -19.835 -20.586  0.00  0.00    -0.307 N 
ATOM     30  C   UNL     1      36.831 -18.152 -22.471  0.00  0.00    +0.004 C 
ATOM     31  C   UNL     1      37.417 -18.464 -21.100  0.00  0.00    +0.021 C 
ATOM     32  C   UNL     1      35.308 -18.185 -22.412  0.00  0.00    +0.021 C 
ATOM     33  C   UNL     1      36.903 -19.797 -20.557  0.00  0.00    +0.091 C 
ATOM     34  C   UNL     1      34.800 -19.521 -21.874  0.00  0.00    +0.091 C 
ENDBRANCH  23  29
ENDBRANCH  22  26
ENDBRANCH  12  22
TORSDOF 4
ENDMDL
MODEL 2
REMARK VINA RESULT:     -11.9      2.876      4.997
REMARK  Name = 10138993
REMARK  4 active torsions:
REMARK  status: ('A' for Active; 'I' for Inactive)
REMARK    1  A    between atoms: C_5  and  N_18
REMARK    2  A    between atoms: C_12  and  C_22
REMARK    3  A    between atoms: C_22  and  C_26
REMARK    4  A    between atoms: C_23  and  N_29
REMARK                            x       y       z     vdW  Elec       q    Type
REMARK                         _______ _______ _______ _____ _____    ______ ____
ROOT
ATOM      1  O   UNL     1      33.485 -20.923 -20.441  0.00  0.00    -0.274 OA
ATOM      2  N   UNL     1      32.378 -23.044 -16.985  0.00  0.00    -0.275 N 
ATOM      3  N   UNL     1      34.932 -21.485 -18.678  0.00  0.00    -0.268 N 
ATOM      4  N   UNL     1      32.804 -22.362 -18.061  0.00  0.00    -0.157 NA
ATOM      5  C   UNL     1      35.691 -23.448 -14.606  0.00  0.00    +0.069 C 
ATOM      6  C   UNL     1      35.703 -22.789 -15.841  0.00  0.00    +0.020 C 
ATOM      7  C   UNL     1      34.516 -24.016 -14.107  0.00  0.00    +0.018 C 
ATOM      8  C   UNL     1      34.506 -22.711 -16.573  0.00  0.00    +0.052 A 
ATOM      9  C   UNL     1      33.352 -23.286 -16.053  0.00  0.00    +0.077 A 
ATOM     10  C   UNL     1      33.317 -23.947 -14.824  0.00  0.00    +0.020 C 
ATOM     11  C   UNL     1      34.088 -22.171 -17.796  0.00  0.00    +0.155 A 
ATOM     12  C   UNL     1      34.588 -20.923 -19.905  0.00  0.00    +0.232 C 
ATOM     13  H   UNL     1      31.447 -23.345 -16.876  0.00  0.00    +0.189 HD
ATOM     14  H   UNL     1      35.872 -21.390 -18.401  0.00  0.00    +0.156 HD
ENDROOT
BRANCH   5  18
ATOM     15  S   UNL     1      38.171 -24.604 -14.399  0.00  0.00    +0.057 S 
ATOM     16  O   UNL     1      37.602 -25.842 -14.896  0.00  0.00    -0.154 OA
ATOM     17  O   UNL     1      39.139 -23.842 -15.160  0.00  0.00    -0.154 OA
ATOM     18  N   UNL     1      36.917 -23.540 -13.832  0.00  0.00    -0.194 N 
ATOM     19  C   UNL     1      38.826 -24.916 -12.767  0.00  0.00    +0.174 C 
ATOM     20  C   UNL     1      38.320 -23.769 -11.909  0.00  0.00    +0.051 C 
ATOM     21  C   UNL     1      36.877 -23.523 -12.342  0.00  0.00    +0.117 C 
ENDBRANCH   5  18
BRANCH  12  22
ATOM     22  C   UNL     1      35.799 -20.262 -20.558  0.00  0.00    +0.112 C 
BRANCH  22  26
ATOM     23  C   UNL     1      34.852 -16.716 -22.812  0.00  0.00    +0.048 C 
ATOM     24  C   UNL     1      34.670 -17.997 -23.368  0.00  0.00    +0.014 C 
ATOM     25  C   UNL     1      35.352 -16.626 -21.499  0.00  0.00    +0.014 C 
ATOM     26  C   UNL     1      35.471 -19.034 -21.338  0.00  0.00    -0.013 C 
ATOM     27  C   UNL     1      34.977 -19.145 -22.638  0.00  0.00    -0.003 C 
ATOM     28  C   UNL     1      35.659 -17.775 -20.770  0.00  0.00    -0.003 C 
BRANCH  23  29
ATOM     29  N   UNL     1      34.543 -15.562 -23.545  0.00  0.00    -0.307 N 
ATOM     30  C   UNL     1      34.022 -13.216 -25.143  0.00  0.00    +0.004 C 
ATOM     31  C   UNL     1      34.140 -13.134 -23.627  0.00  0.00    +0.021 C 
ATOM     32  C   UNL     1      33.506 -14.589 -25.557  0.00  0.00    +0.021 C 
ATOM     33  C   UNL     1      35.013 -14.257 -23.067  0.00  0.00    +0.091 C 
ATOM     34  C   UNL     1      34.384 -15.707 -25.000  0.00  0.00    +0.091 C 
ENDBRANCH  23  29
ENDBRANCH  22  26
ENDBRANCH  12  22
TORSDOF 4
ENDMDL
MODEL 3
REMARK VINA RESULT:     -11.5      0.983      1.429
REMARK  Name = 10138993
REMARK  4 active torsions:
REMARK  status: ('A' for Active; 'I' for Inactive)
REMARK    1  A    between atoms: C_5  and  N_18
REMARK    2  A    between atoms: C_12  and  C_22
REMARK    3  A    between atoms: C_22  and  C_26
REMARK    4  A    between atoms: C_23  and  N_29
REMARK                            x       y       z     vdW  Elec       q    Type
REMARK                         _______ _______ _______ _____ _____    ______ ____
ROOT
ATOM      1  O   UNL     1      32.881 -22.235 -16.044  0.00  0.00    -0.274 OA
ATOM      2  N   UNL     1      35.298 -23.258 -12.761  0.00  0.00    -0.275 N 
ATOM      3  N   UNL     1      34.710 -23.708 -16.118  0.00  0.00    -0.268 N 
ATOM      4  N   UNL     1      34.569 -22.977 -13.853  0.00  0.00    -0.157 NA
ATOM      5  C   UNL     1      38.170 -25.885 -14.044  0.00  0.00    +0.069 C 
ATOM      6  C   UNL     1      37.192 -25.338 -14.884  0.00  0.00    +0.020 C 
ATOM      7  C   UNL     1      38.218 -25.553 -12.688  0.00  0.00    +0.018 C 
ATOM      8  C   UNL     1      36.256 -24.446 -14.335  0.00  0.00    +0.052 A 
ATOM      9  C   UNL     1      36.327 -24.134 -12.982  0.00  0.00    +0.077 A 
ATOM     10  C   UNL     1      37.293 -24.667 -12.126  0.00  0.00    +0.020 C 
ATOM     11  C   UNL     1      35.160 -23.702 -14.792  0.00  0.00    +0.155 A 
ATOM     12  C   UNL     1      33.634 -22.997 -16.642  0.00  0.00    +0.232 C 
ATOM     13  H   UNL     1      35.109 -22.868 -11.877  0.00  0.00    +0.189 HD
ATOM     14  H   UNL     1      35.208 -24.276 -16.749  0.00  0.00    +0.156 HD
ENDROOT
BRANCH   5  18
ATOM     15  S   UNL     1      40.827 -26.356 -14.543  0.00  0.00    +0.057 S 
ATOM     16  O   UNL     1      40.984 -24.951 -14.865  0.00  0.00    -0.154 OA
ATOM     17  O   UNL     1      41.451 -26.955 -13.382  0.00  0.00    -0.154 OA
ATOM     18  N   UNL     1      39.148 -26.809 -14.591  0.00  0.00    -0.194 N 
ATOM     19  C   UNL     1      41.261 -27.305 -15.993  0.00  0.00    +0.174 C 
ATOM     20  C   UNL     1      40.145 -28.325 -16.150  0.00  0.00    +0.051 C 
ATOM     21  C   UNL     1      38.849 -27.585 -15.828  0.00  0.00    +0.117 C 
ENDBRANCH   5  18
BRANCH  12  22
ATOM     22  C   UNL     1      33.474 -23.276 -18.135  0.00  0.00    +0.112 C 
BRANCH  22  26
ATOM     23  C   UNL     1      34.535 -19.950 -20.659  0.00  0.00    +0.048 C 
ATOM     24  C   UNL     1      35.521 -20.823 -20.159  0.00  0.00    +0.014 C 
ATOM     25  C   UNL     1      33.193 -20.195 -20.311  0.00  0.00    +0.014 C 
ATOM     26  C   UNL     1      33.841 -22.124 -19.009  0.00  0.00    -0.013 C 
ATOM     27  C   UNL     1      35.178 -21.900 -19.342  0.00  0.00    -0.003 C 
ATOM     28  C   UNL     1      32.849 -21.272 -19.494  0.00  0.00    -0.003 C 
BRANCH  23  29
ATOM     29  N   UNL     1      34.880 -18.869 -21.481  0.00  0.00    -0.307 N 
ATOM     30  C   UNL     1      35.703 -16.723 -23.226  0.00  0.00    +0.004 C 
ATOM     31  C   UNL     1      35.476 -16.493 -21.737  0.00  0.00    +0.021 C 
ATOM     32  C   UNL     1      34.813 -17.855 -23.725  0.00  0.00    +0.021 C 
ATOM     33  C   UNL     1      35.686 -17.774 -20.930  0.00  0.00    +0.091 C 
ATOM     34  C   UNL     1      35.032 -19.133 -22.919  0.00  0.00    +0.091 C 
ENDBRANCH  23  29
ENDBRANCH  22  26
ENDBRANCH  12  22
TORSDOF 4
ENDMDL
MODEL 4
REMARK VINA RESULT:     -11.5      2.691      4.099
REMARK  Name = 10138993
REMARK  4 active torsions:
REMARK  status: ('A' for Active; 'I' for Inactive)
REMARK    1  A    between atoms: C_5  and  N_18
REMARK    2  A    between atoms: C_12  and  C_22
REMARK    3  A    between atoms: C_22  and  C_26
REMARK    4  A    between atoms: C_23  and  N_29
REMARK                            x       y       z     vdW  Elec       q    Type
REMARK                         _______ _______ _______ _____ _____    ______ ____
ROOT
ATOM      1  O   UNL     1      32.944 -21.855 -19.047  0.00  0.00    -0.274 OA
ATOM      2  N   UNL     1      31.759 -23.337 -15.296  0.00  0.00    -0.275 N 
ATOM      3  N   UNL     1      34.401 -22.667 -17.393  0.00  0.00    -0.268 N 
ATOM      4  N   UNL     1      32.211 -22.878 -16.475  0.00  0.00    -0.157 NA
ATOM      5  C   UNL     1      35.118 -24.469 -13.239  0.00  0.00    +0.069 C 
ATOM      6  C   UNL     1      35.149 -23.928 -14.531  0.00  0.00    +0.020 C 
ATOM      7  C   UNL     1      33.908 -24.654 -12.567  0.00  0.00    +0.018 C 
ATOM      8  C   UNL     1      33.934 -23.575 -15.140  0.00  0.00    +0.052 A 
ATOM      9  C   UNL     1      32.743 -23.772 -14.449  0.00  0.00    +0.077 A 
ATOM     10  C   UNL     1      32.690 -24.309 -13.161  0.00  0.00    +0.020 C 
ATOM     11  C   UNL     1      33.523 -23.029 -16.363  0.00  0.00    +0.155 A 
ATOM     12  C   UNL     1      34.066 -22.121 -18.629  0.00  0.00    +0.232 C 
ATOM     13  H   UNL     1      30.804 -23.362 -15.062  0.00  0.00    +0.189 HD
ATOM     14  H   UNL     1      35.359 -22.815 -17.224  0.00  0.00    +0.156 HD
ENDROOT
BRANCH   5  18
ATOM     15  S   UNL     1      37.023 -23.761 -11.394  0.00  0.00    +0.057 S 
ATOM     16  O   UNL     1      36.878 -22.382 -11.818  0.00  0.00    -0.154 OA
ATOM     17  O   UNL     1      36.627 -24.207 -10.075  0.00  0.00    -0.154 OA
ATOM     18  N   UNL     1      36.364 -24.840 -12.590  0.00  0.00    -0.194 N 
ATOM     19  C   UNL     1      38.715 -24.253 -11.693  0.00  0.00    +0.174 C 
ATOM     20  C   UNL     1      38.621 -25.605 -12.381  0.00  0.00    +0.051 C 
ATOM     21  C   UNL     1      37.455 -25.498 -13.362  0.00  0.00    +0.117 C 
ENDBRANCH   5  18
BRANCH  12  22
ATOM     22  C   UNL     1      35.317 -21.867 -19.467  0.00  0.00    +0.112 C 
BRANCH  22  26
ATOM     23  C   UNL     1      35.148 -18.258 -21.813  0.00  0.00    +0.048 C 
ATOM     24  C   UNL     1      36.364 -18.708 -21.262  0.00  0.00    +0.014 C 
ATOM     25  C   UNL     1      33.989 -19.022 -21.575  0.00  0.00    +0.014 C 
ATOM     26  C   UNL     1      35.258 -20.618 -20.280  0.00  0.00    -0.013 C 
ATOM     27  C   UNL     1      36.419 -19.876 -20.502  0.00  0.00    -0.003 C 
ATOM     28  C   UNL     1      34.044 -20.190 -20.816  0.00  0.00    -0.003 C 
BRANCH  23  29
ATOM     29  N   UNL     1      35.094 -17.085 -22.576  0.00  0.00    -0.307 N 
ATOM     30  C   UNL     1      35.122 -14.693 -24.192  0.00  0.00    +0.004 C 
ATOM     31  C   UNL     1      34.692 -14.660 -22.731  0.00  0.00    +0.021 C 
ATOM     32  C   UNL     1      34.817 -16.058 -24.799  0.00  0.00    +0.021 C 
ATOM     33  C   UNL     1      35.334 -15.791 -21.928  0.00  0.00    +0.091 C 
ATOM     34  C   UNL     1      35.465 -17.183 -23.996  0.00  0.00    +0.091 C 
ENDBRANCH  23  29
ENDBRANCH  22  26
ENDBRANCH  12  22
TORSDOF 4
ENDMDL
MODEL 5
REMARK VINA RESULT:     -10.3     11.146     16.932
REMARK  Name = 10138993
REMARK  4 active torsions:
REMARK  status: ('A' for Active; 'I' for Inactive)
REMARK    1  A    between atoms: C_5  and  N_18
REMARK    2  A    between atoms: C_12  and  C_22
REMARK    3  A    between atoms: C_22  and  C_26
REMARK    4  A    between atoms: C_23  and  N_29
REMARK                            x       y       z     vdW  Elec       q    Type
REMARK                         _______ _______ _______ _____ _____    ______ ____
ROOT
ATOM      1  O   UNL     1      32.439 -12.353 -21.717  0.00  0.00    -0.274 OA
ATOM      2  N   UNL     1      31.685  -8.330 -20.760  0.00  0.00    -0.275 N 
ATOM      3  N   UNL     1      33.275 -10.503 -22.899  0.00  0.00    -0.268 N 
ATOM      4  N   UNL     1      31.969  -9.591 -21.125  0.00  0.00    -0.157 NA
ATOM      5  C   UNL     1      33.635  -5.971 -23.486  0.00  0.00    +0.069 C 
ATOM      6  C   UNL     1      33.672  -7.370 -23.509  0.00  0.00    +0.020 C 
ATOM      7  C   UNL     1      32.910  -5.288 -22.506  0.00  0.00    +0.018 C 
ATOM      8  C   UNL     1      32.965  -8.078 -22.523  0.00  0.00    +0.052 A 
ATOM      9  C   UNL     1      32.253  -7.374 -21.559  0.00  0.00    +0.077 A 
ATOM     10  C   UNL     1      32.202  -5.978 -21.517  0.00  0.00    +0.020 C 
ATOM     11  C   UNL     1      32.741  -9.420 -22.188  0.00  0.00    +0.155 A 
ATOM     12  C   UNL     1      33.095 -11.856 -22.626  0.00  0.00    +0.232 C 
ATOM     13  H   UNL     1      31.120  -8.112 -19.985  0.00  0.00    +0.189 HD
ATOM     14  H   UNL     1      33.838 -10.283 -23.675  0.00  0.00    +0.156 HD
ENDROOT
BRANCH   5  18
ATOM     15  S   UNL     1      33.469  -4.092 -25.479  0.00  0.00    +0.057 S 
ATOM     16  O   UNL     1      32.185  -4.648 -25.856  0.00  0.00    -0.154 OA
ATOM     17  O   UNL     1      33.599  -2.763 -24.921  0.00  0.00    -0.154 OA
ATOM     18  N   UNL     1      34.358  -5.219 -24.496  0.00  0.00    -0.194 N 
ATOM     19  C   UNL     1      34.567  -4.246 -26.880  0.00  0.00    +0.174 C 
ATOM     20  C   UNL     1      35.859  -4.811 -26.314  0.00  0.00    +0.051 C 
ATOM     21  C   UNL     1      35.445  -5.863 -25.288  0.00  0.00    +0.117 C 
ENDBRANCH   5  18
BRANCH  12  22
ATOM     22  C   UNL     1      33.845 -12.718 -23.640  0.00  0.00    +0.112 C 
BRANCH  22  26
ATOM     23  C   UNL     1      35.168 -16.506 -22.073  0.00  0.00    +0.048 C 
ATOM     24  C   UNL     1      34.939 -15.410 -21.219  0.00  0.00    +0.014 C 
ATOM     25  C   UNL     1      34.951 -16.330 -23.453  0.00  0.00    +0.014 C 
ATOM     26  C   UNL     1      34.303 -14.030 -23.098  0.00  0.00    -0.013 C 
ATOM     27  C   UNL     1      34.511 -14.183 -21.726  0.00  0.00    -0.003 C 
ATOM     28  C   UNL     1      34.523 -15.103 -23.960  0.00  0.00    -0.003 C 
BRANCH  23  29
ATOM     29  N   UNL     1      35.597 -17.738 -21.563  0.00  0.00    -0.307 N 
ATOM     30  C   UNL     1      36.550 -20.302 -20.642  0.00  0.00    +0.004 C 
ATOM     31  C   UNL     1      35.078 -19.923 -20.552  0.00  0.00    +0.021 C 
ATOM     32  C   UNL     1      37.421 -19.054 -20.555  0.00  0.00    +0.021 C 
ATOM     33  C   UNL     1      34.694 -18.894 -21.615  0.00  0.00    +0.091 C 
ATOM     34  C   UNL     1      37.036 -18.031 -21.622  0.00  0.00    +0.091 C 
ENDBRANCH  23  29
ENDBRANCH  22  26
ENDBRANCH  12  22
TORSDOF 4
ENDMDL
MODEL 6
REMARK VINA RESULT:     -10.3     11.778     17.576
REMARK  Name = 10138993
REMARK  4 active torsions:
REMARK  status: ('A' for Active; 'I' for Inactive)
REMARK    1  A    between atoms: C_5  and  N_18
REMARK    2  A    between atoms: C_12  and  C_22
REMARK    3  A    between atoms: C_22  and  C_26
REMARK    4  A    between atoms: C_23  and  N_29
REMARK                            x       y       z     vdW  Elec       q    Type
REMARK                         _______ _______ _______ _____ _____    ______ ____
ROOT
ATOM      1  O   UNL     1      32.694 -11.785 -21.840  0.00  0.00    -0.274 OA
ATOM      2  N   UNL     1      31.925  -7.979 -20.231  0.00  0.00    -0.275 N 
ATOM      3  N   UNL     1      33.049  -9.749 -22.956  0.00  0.00    -0.268 N 
ATOM      4  N   UNL     1      32.194  -9.161 -20.810  0.00  0.00    -0.157 NA
ATOM      5  C   UNL     1      32.907  -5.168 -23.047  0.00  0.00    +0.069 C 
ATOM      6  C   UNL     1      33.040  -6.547 -23.253  0.00  0.00    +0.020 C 
ATOM      7  C   UNL     1      32.418  -4.667 -21.839  0.00  0.00    +0.018 C 
ATOM      8  C   UNL     1      32.672  -7.420 -22.216  0.00  0.00    +0.052 A 
ATOM      9  C   UNL     1      32.190  -6.894 -21.023  0.00  0.00    +0.077 A 
ATOM     10  C   UNL     1      32.049  -5.522 -20.796  0.00  0.00    +0.020 C 
ATOM     11  C   UNL     1      32.644  -8.805 -22.005  0.00  0.00    +0.155 A 
ATOM     12  C   UNL     1      33.048 -11.134 -22.817  0.00  0.00    +0.232 C 
ATOM     13  H   UNL     1      31.569  -7.900 -19.317  0.00  0.00    +0.189 HD
ATOM     14  H   UNL     1      33.370  -9.395 -23.816  0.00  0.00    +0.156 HD
ENDROOT
BRANCH   5  18
ATOM     15  S   UNL     1      32.140  -3.020 -24.574  0.00  0.00    +0.057 S 
ATOM     16  O   UNL     1      30.795  -3.562 -24.606  0.00  0.00    -0.154 OA
ATOM     17  O   UNL     1      32.456  -1.786 -23.888  0.00  0.00    -0.154 OA
ATOM     18  N   UNL     1      33.281  -4.248 -24.107  0.00  0.00    -0.194 N 
ATOM     19  C   UNL     1      32.733  -2.923 -26.256  0.00  0.00    +0.174 C 
ATOM     20  C   UNL     1      34.131  -3.518 -26.221  0.00  0.00    +0.051 C 
ATOM     21  C   UNL     1      34.051  -4.726 -25.290  0.00  0.00    +0.117 C 
ENDBRANCH   5  18
BRANCH  12  22
ATOM     22  C   UNL     1      33.565 -11.808 -24.086  0.00  0.00    +0.112 C 
BRANCH  22  26
ATOM     23  C   UNL     1      34.740 -15.915 -23.534  0.00  0.00    +0.048 C 
ATOM     24  C   UNL     1      34.085 -15.501 -24.711  0.00  0.00    +0.014 C 
ATOM     25  C   UNL     1      35.000 -14.949 -22.544  0.00  0.00    +0.014 C 
ATOM     26  C   UNL     1      33.972 -13.230 -23.895  0.00  0.00    -0.013 C 
ATOM     27  C   UNL     1      33.705 -14.171 -24.890  0.00  0.00    -0.003 C 
ATOM     28  C   UNL     1      34.619 -13.619 -22.723  0.00  0.00    -0.003 C 
BRANCH  23  29
ATOM     29  N   UNL     1      35.123 -17.251 -23.355  0.00  0.00    -0.307 N 
ATOM     30  C   UNL     1      35.770 -20.034 -22.951  0.00  0.00    +0.004 C 
ATOM     31  C   UNL     1      36.561 -18.927 -22.267  0.00  0.00    +0.021 C 
ATOM     32  C   UNL     1      35.206 -19.535 -24.276  0.00  0.00    +0.021 C 
ATOM     33  C   UNL     1      35.720 -17.665 -22.081  0.00  0.00    +0.091 C 
ATOM     34  C   UNL     1      34.362 -18.276 -24.084  0.00  0.00    +0.091 C 
ENDBRANCH  23  29
ENDBRANCH  22  26
ENDBRANCH  12  22
TORSDOF 4
ENDMDL
MODEL 7
REMARK VINA RESULT:      -9.4      7.531     14.045
REMARK  Name = 10138993
REMARK  4 active torsions:
REMARK  status: ('A' for Active; 'I' for Inactive)
REMARK    1  A    between atoms: C_5  and  N_18
REMARK    2  A    between atoms: C_12  and  C_22
REMARK    3  A    between atoms: C_22  and  C_26
REMARK    4  A    between atoms: C_23  and  N_29
REMARK                            x       y       z     vdW  Elec       q    Type
REMARK                         _______ _______ _______ _____ _____    ______ ____
ROOT
ATOM      1  O   UNL     1      34.801 -18.322 -24.227  0.00  0.00    -0.274 OA
ATOM      2  N   UNL     1      32.792 -15.258 -26.288  0.00  0.00    -0.275 N 
ATOM      3  N   UNL     1      35.083 -16.022 -23.841  0.00  0.00    -0.268 N 
ATOM      4  N   UNL     1      33.470 -16.183 -25.588  0.00  0.00    -0.157 NA
ATOM      5  C   UNL     1      34.058 -11.658 -24.796  0.00  0.00    +0.069 C 
ATOM      6  C   UNL     1      34.528 -12.893 -24.334  0.00  0.00    +0.020 C 
ATOM      7  C   UNL     1      33.110 -11.587 -25.819  0.00  0.00    +0.018 C 
ATOM      8  C   UNL     1      34.022 -14.066 -24.919  0.00  0.00    +0.052 A 
ATOM      9  C   UNL     1      33.078 -13.967 -25.935  0.00  0.00    +0.077 A 
ATOM     10  C   UNL     1      32.596 -12.746 -26.412  0.00  0.00    +0.020 C 
ATOM     11  C   UNL     1      34.206 -15.447 -24.768  0.00  0.00    +0.155 A 
ATOM     12  C   UNL     1      35.317 -17.379 -23.636  0.00  0.00    +0.232 C 
ATOM     13  H   UNL     1      32.144 -15.489 -26.992  0.00  0.00    +0.189 HD
ATOM     14  H   UNL     1      35.590 -15.400 -23.271  0.00  0.00    +0.156 HD
ENDROOT
BRANCH   5  18
ATOM     15  S   UNL     1      33.437  -9.352 -23.443  0.00  0.00    +0.057 S 
ATOM     16  O   UNL     1      32.218  -9.259 -24.224  0.00  0.00    -0.154 OA
ATOM     17  O   UNL     1      33.421  -9.602 -22.018  0.00  0.00    -0.154 OA
ATOM     18  N   UNL     1      34.568 -10.433 -24.206  0.00  0.00    -0.194 N 
ATOM     19  C   UNL     1      34.411  -7.891 -23.769  0.00  0.00    +0.174 C 
ATOM     20  C   UNL     1      35.818  -8.401 -24.031  0.00  0.00    +0.051 C 
ATOM     21  C   UNL     1      35.659  -9.666 -24.871  0.00  0.00    +0.117 C 
ENDBRANCH   5  18
BRANCH  12  22
ATOM     22  C   UNL     1      36.349 -17.592 -22.531  0.00  0.00    +0.112 C 
BRANCH  22  26
ATOM     23  C   UNL     1      35.207 -20.549 -19.615  0.00  0.00    +0.048 C 
ATOM     24  C   UNL     1      36.556 -20.184 -19.785  0.00  0.00    +0.014 C 
ATOM     25  C   UNL     1      34.241 -19.920 -20.424  0.00  0.00    +0.014 C 
ATOM     26  C   UNL     1      35.953 -18.616 -21.521  0.00  0.00    -0.013 C 
ATOM     27  C   UNL     1      36.927 -19.227 -20.729  0.00  0.00    -0.003 C 
ATOM     28  C   UNL     1      34.612 -18.963 -21.369  0.00  0.00    -0.003 C 
BRANCH  23  29
ATOM     29  N   UNL     1      34.835 -21.511 -18.666  0.00  0.00    -0.307 N 
ATOM     30  C   UNL     1      34.177 -23.579 -16.763  0.00  0.00    +0.004 C 
ATOM     31  C   UNL     1      33.114 -22.954 -17.657  0.00  0.00    +0.021 C 
ATOM     32  C   UNL     1      35.291 -22.574 -16.491  0.00  0.00    +0.021 C 
ATOM     33  C   UNL     1      33.714 -22.412 -18.954  0.00  0.00    +0.091 C 
ATOM     34  C   UNL     1      35.890 -22.040 -17.789  0.00  0.00    +0.091 C 
ENDBRANCH  23  29
ENDBRANCH  22  26
ENDBRANCH  12  22
TORSDOF 4
ENDMDL
MODEL 8
REMARK VINA RESULT:      -9.2     15.116     20.839
REMARK  Name = 10138993
REMARK  4 active torsions:
REMARK  status: ('A' for Active; 'I' for Inactive)
REMARK    1  A    between atoms: C_5  and  N_18
REMARK    2  A    between atoms: C_12  and  C_22
REMARK    3  A    between atoms: C_22  and  C_26
REMARK    4  A    between atoms: C_23  and  N_29
REMARK                            x       y       z     vdW  Elec       q    Type
REMARK                         _______ _______ _______ _____ _____    ______ ____
ROOT
ATOM      1  O   UNL     1      31.066  -5.106 -21.192  0.00  0.00    -0.274 OA
ATOM      2  N   UNL     1      30.691  -2.571 -24.524  0.00  0.00    -0.275 N 
ATOM      3  N   UNL     1      32.649  -4.895 -22.914  0.00  0.00    -0.268 N 
ATOM      4  N   UNL     1      30.879  -3.404 -23.487  0.00  0.00    -0.157 NA
ATOM      5  C   UNL     1      34.025  -3.020 -26.865  0.00  0.00    +0.069 C 
ATOM      6  C   UNL     1      33.821  -3.720 -25.669  0.00  0.00    +0.020 C 
ATOM      7  C   UNL     1      33.076  -2.109 -27.335  0.00  0.00    +0.018 C 
ATOM      8  C   UNL     1      32.639  -3.486 -24.947  0.00  0.00    +0.052 A 
ATOM      9  C   UNL     1      31.712  -2.573 -25.437  0.00  0.00    +0.077 A 
ATOM     10  C   UNL     1      31.894  -1.864 -26.627  0.00  0.00    +0.020 C 
ATOM     11  C   UNL     1      32.057  -3.946 -23.758  0.00  0.00    +0.155 A 
ATOM     12  C   UNL     1      32.132  -5.397 -21.723  0.00  0.00    +0.232 C 
ATOM     13  H   UNL     1      29.890  -2.007 -24.619  0.00  0.00    +0.189 HD
ATOM     14  H   UNL     1      33.525  -5.244 -23.193  0.00  0.00    +0.156 HD
ENDROOT
BRANCH   5  18
ATOM     15  S   UNL     1      35.136  -3.242 -29.365  0.00  0.00    +0.057 S 
ATOM     16  O   UNL     1      33.935  -3.926 -29.804  0.00  0.00    -0.154 OA
ATOM     17  O   UNL     1      35.503  -1.933 -29.863  0.00  0.00    -0.154 OA
ATOM     18  N   UNL     1      35.239  -3.247 -27.628  0.00  0.00    -0.194 N 
ATOM     19  C   UNL     1      36.515  -4.357 -29.582  0.00  0.00    +0.174 C 
ATOM     20  C   UNL     1      37.294  -4.285 -28.280  0.00  0.00    +0.051 C 
ATOM     21  C   UNL     1      36.251  -4.240 -27.166  0.00  0.00    +0.117 C 
ENDBRANCH   5  18
BRANCH  12  22
ATOM     22  C   UNL     1      33.086  -6.417 -21.105  0.00  0.00    +0.112 C 
BRANCH  22  26
ATOM     23  C   UNL     1      33.451 -10.066 -23.364  0.00  0.00    +0.048 C 
ATOM     24  C   UNL     1      32.441  -9.912 -22.396  0.00  0.00    +0.014 C 
ATOM     25  C   UNL     1      34.339  -8.993 -23.574  0.00  0.00    +0.014 C 
ATOM     26  C   UNL     1      33.213  -7.680 -21.888  0.00  0.00    -0.013 C 
ATOM     27  C   UNL     1      32.322  -8.731 -21.664  0.00  0.00    -0.003 C 
ATOM     28  C   UNL     1      34.220  -7.811 -22.842  0.00  0.00    -0.003 C 
BRANCH  23  29
ATOM     29  N   UNL     1      33.570 -11.252 -24.100  0.00  0.00    -0.307 N 
ATOM     30  C   UNL     1      33.944 -13.720 -25.549  0.00  0.00    +0.004 C 
ATOM     31  C   UNL     1      33.606 -12.420 -26.268  0.00  0.00    +0.021 C 
ATOM     32  C   UNL     1      33.364 -13.707 -24.139  0.00  0.00    +0.021 C 
ATOM     33  C   UNL     1      34.075 -11.199 -25.477  0.00  0.00    +0.091 C 
ATOM     34  C   UNL     1      33.840 -12.488 -23.352  0.00  0.00    +0.091 C 
ENDBRANCH  23  29
ENDBRANCH  22  26
ENDBRANCH  12  22
TORSDOF 4
ENDMDL
MODEL 9
REMARK VINA RESULT:      -9.1      9.383     14.245
REMARK  Name = 10138993
REMARK  4 active torsions:
REMARK  status: ('A' for Active; 'I' for Inactive)
REMARK    1  A    between atoms: C_5  and  N_18
REMARK    2  A    between atoms: C_12  and  C_22
REMARK    3  A    between atoms: C_22  and  C_26
REMARK    4  A    between atoms: C_23  and  N_29
REMARK                            x       y       z     vdW  Elec       q    Type
REMARK                         _______ _______ _______ _____ _____    ______ ____
ROOT
ATOM      1  O   UNL     1      33.459 -11.296 -25.649  0.00  0.00    -0.274 OA
ATOM      2  N   UNL     1      32.641 -15.384 -26.186  0.00  0.00    -0.275 N 
ATOM      3  N   UNL     1      34.493 -13.048 -24.474  0.00  0.00    -0.268 N 
ATOM      4  N   UNL     1      32.954 -14.098 -25.961  0.00  0.00    -0.157 NA
ATOM      5  C   UNL     1      35.015 -17.521 -23.619  0.00  0.00    +0.069 C 
ATOM      6  C   UNL     1      35.031 -16.124 -23.703  0.00  0.00    +0.020 C 
ATOM      7  C   UNL     1      34.165 -18.280 -24.427  0.00  0.00    +0.018 C 
ATOM      8  C   UNL     1      34.173 -15.496 -24.621  0.00  0.00    +0.052 A 
ATOM      9  C   UNL     1      33.338 -16.275 -25.414  0.00  0.00    +0.077 A 
ATOM     10  C   UNL     1      33.305 -17.669 -25.347  0.00  0.00    +0.020 C 
ATOM     11  C   UNL     1      33.878 -14.184 -25.016  0.00  0.00    +0.155 A 
ATOM     12  C   UNL     1      34.252 -11.720 -24.814  0.00  0.00    +0.232 C 
ATOM     13  H   UNL     1      31.970 -15.663 -26.850  0.00  0.00    +0.189 HD
ATOM     14  H   UNL     1      35.169 -13.206 -23.777  0.00  0.00    +0.156 HD
ENDROOT
BRANCH   5  18
ATOM     15  S   UNL     1      35.533 -18.064 -20.979  0.00  0.00    +0.057 S 
ATOM     16  O   UNL     1      35.103 -16.720 -20.650  0.00  0.00    -0.154 OA
ATOM     17  O   UNL     1      34.791 -19.235 -20.559  0.00  0.00    -0.154 OA
ATOM     18  N   UNL     1      35.894 -18.191 -22.677  0.00  0.00    -0.194 N 
ATOM     19  C   UNL     1      37.236 -18.238 -20.469  0.00  0.00    +0.174 C 
ATOM     20  C   UNL     1      37.942 -18.881 -21.650  0.00  0.00    +0.051 C 
ATOM     21  C   UNL     1      37.368 -18.215 -22.899  0.00  0.00    +0.117 C 
ENDBRANCH   5  18
BRANCH  12  22
ATOM     22  C   UNL     1      35.129 -10.780 -23.990  0.00  0.00    +0.112 C 
BRANCH  22  26
ATOM     23  C   UNL     1      33.519  -6.808 -23.564  0.00  0.00    +0.048 C 
ATOM     24  C   UNL     1      34.855  -7.008 -23.962  0.00  0.00    +0.014 C 
ATOM     25  C   UNL     1      32.724  -7.942 -23.310  0.00  0.00    +0.014 C 
ATOM     26  C   UNL     1      34.571  -9.405 -23.843  0.00  0.00    -0.013 C 
ATOM     27  C   UNL     1      35.376  -8.294 -24.100  0.00  0.00    -0.003 C 
ATOM     28  C   UNL     1      33.246  -9.228 -23.447  0.00  0.00    -0.003 C 
BRANCH  23  29
ATOM     29  N   UNL     1      32.995  -5.516 -23.426  0.00  0.00    -0.307 N 
ATOM     30  C   UNL     1      32.054  -2.802 -23.138  0.00  0.00    +0.004 C 
ATOM     31  C   UNL     1      31.560  -3.916 -22.223  0.00  0.00    +0.021 C 
ATOM     32  C   UNL     1      32.434  -3.370 -24.500  0.00  0.00    +0.021 C 
ATOM     33  C   UNL     1      32.586  -5.041 -22.099  0.00  0.00    +0.091 C 
ATOM     34  C   UNL     1      33.463  -4.491 -24.371  0.00  0.00    +0.091 C 
ENDBRANCH  23  29
ENDBRANCH  22  26
ENDBRANCH  12  22
TORSDOF 4
ENDMDL
