MODEL 1
REMARK VINA RESULT:     -11.7      0.000      0.000
REMARK  Name = 24743471
REMARK  3 active torsions:
REMARK  status: ('A' for Active; 'I' for Inactive)
REMARK    1  A    between atoms: C_1  and  N_7
REMARK    2  A    between atoms: C_6  and  C_17
REMARK    3  A    between atoms: C_22  and  N_24
REMARK                            x       y       z     vdW  Elec       q    Type
REMARK                         _______ _______ _______ _____ _____    ______ ____
ROOT
ATOM      1  C   UNL     1      36.397 -23.160 -15.500  0.00  0.00    +0.048 C 
ATOM      2  C   UNL     1      35.146 -23.168 -16.117  0.00  0.00    +0.015 C 
ATOM      3  C   UNL     1      37.438 -22.408 -16.045  0.00  0.00    +0.015 C 
ATOM      4  C   UNL     1      34.935 -22.424 -17.278  0.00  0.00    +0.001 C 
ATOM      5  C   UNL     1      37.226 -21.663 -17.206  0.00  0.00    +0.001 C 
ATOM      6  C   UNL     1      35.975 -21.672 -17.822  0.00  0.00    +0.000 C 
ENDROOT
BRANCH   1   7
ATOM      7  N   UNL     1      36.607 -23.895 -14.350  0.00  0.00    -0.311 N 
ATOM      8  N   UNL     1      39.120 -26.252 -13.782  0.00  0.00    +0.387 N 
ATOM      9  C   UNL     1      37.109 -25.655 -12.831  0.00  0.00    -0.003 C 
ATOM     10  C   UNL     1      37.016 -25.303 -14.325  0.00  0.00    +0.050 C 
ATOM     11  C   UNL     1      36.334 -24.564 -12.112  0.00  0.00    +0.021 C 
ATOM     12  C   UNL     1      38.603 -25.687 -12.537  0.00  0.00    -0.076 C 
ATOM     13  C   UNL     1      38.442 -25.512 -14.851  0.00  0.00    -0.057 C 
ATOM     14  C   UNL     1      36.490 -23.338 -13.005  0.00  0.00    +0.091 C 
ATOM     15  C   UNL     1      40.569 -26.161 -13.875  0.00  0.00    -0.101 C 
ATOM     16  H   UNL     1      38.932 -27.254 -13.845  0.00  0.00    -0.080 HD
ENDBRANCH   1   7
BRANCH   6  17
ATOM     17  C   UNL     1      35.757 -20.900 -19.026  0.00  0.00    +0.000 C 
ATOM     18  C   UNL     1      36.827 -20.246 -19.637  0.00  0.00    +0.001 C 
ATOM     19  C   UNL     1      34.478 -20.810 -19.575  0.00  0.00    +0.001 C 
ATOM     20  C   UNL     1      36.617 -19.501 -20.799  0.00  0.00    +0.017 C 
ATOM     21  C   UNL     1      34.268 -20.065 -20.736  0.00  0.00    +0.017 C 
ATOM     22  C   UNL     1      35.338 -19.411 -21.347  0.00  0.00    +0.077 C 
BRANCH  22  24
ATOM     23  O   UNL     1      35.640 -16.481 -21.764  0.00  0.00    -0.268 OA
ATOM     24  N   UNL     1      35.121 -18.640 -22.549  0.00  0.00    -0.155 N 
ATOM     25  N   UNL     1      34.763 -19.410 -23.632  0.00  0.00    -0.170 NA
ATOM     26  C   UNL     1      35.263 -17.252 -22.646  0.00  0.00    +0.272 C 
ATOM     27  C   UNL     1      34.944 -16.639 -23.961  0.00  0.00    +0.062 C 
ATOM     28  C   UNL     1      34.520 -18.819 -24.750  0.00  0.00    +0.118 C 
ATOM     29  C   UNL     1      34.581 -17.383 -24.999  0.00  0.00    +0.027 C 
ENDBRANCH  22  24
ENDBRANCH   6  17
TORSDOF 3
ENDMDL
MODEL 2
REMARK VINA RESULT:     -10.6      7.856     14.893
REMARK  Name = 24743471
REMARK  3 active torsions:
REMARK  status: ('A' for Active; 'I' for Inactive)
REMARK    1  A    between atoms: C_1  and  N_7
REMARK    2  A    between atoms: C_6  and  C_17
REMARK    3  A    between atoms: C_22  and  N_24
REMARK                            x       y       z     vdW  Elec       q    Type
REMARK                         _______ _______ _______ _____ _____    ______ ____
ROOT
ATOM      1  C   UNL     1      32.909  -8.747 -23.008  0.00  0.00    +0.048 C 
ATOM      2  C   UNL     1      33.851  -9.160 -23.949  0.00  0.00    +0.015 C 
ATOM      3  C   UNL     1      32.294  -9.685 -22.178  0.00  0.00    +0.015 C 
ATOM      4  C   UNL     1      34.179 -10.512 -24.061  0.00  0.00    +0.001 C 
ATOM      5  C   UNL     1      32.622 -11.036 -22.290  0.00  0.00    +0.001 C 
ATOM      6  C   UNL     1      33.565 -11.449 -23.232  0.00  0.00    +0.000 C 
ENDROOT
BRANCH   1   7
ATOM      7  N   UNL     1      32.584  -7.409 -22.895  0.00  0.00    -0.311 N 
ATOM      8  N   UNL     1      34.134  -4.720 -24.493  0.00  0.00    +0.387 N 
ATOM      9  C   UNL     1      32.711  -5.041 -22.710  0.00  0.00    -0.003 C 
ATOM     10  C   UNL     1      33.560  -6.317 -22.838  0.00  0.00    +0.050 C 
ATOM     11  C   UNL     1      31.337  -5.515 -22.269  0.00  0.00    +0.021 C 
ATOM     12  C   UNL     1      32.763  -4.407 -24.094  0.00  0.00    -0.076 C 
ATOM     13  C   UNL     1      34.319  -6.135 -24.158  0.00  0.00    -0.057 C 
ATOM     14  C   UNL     1      31.210  -6.913 -22.865  0.00  0.00    +0.091 C 
ATOM     15  C   UNL     1      34.381  -4.444 -25.900  0.00  0.00    -0.101 C 
ATOM     16  H   UNL     1      34.809  -4.130 -24.004  0.00  0.00    -0.080 HD
ENDBRANCH   1   7
BRANCH   6  17
ATOM     17  C   UNL     1      33.904 -12.851 -23.348  0.00  0.00    +0.000 C 
ATOM     18  C   UNL     1      34.406 -13.539 -22.243  0.00  0.00    +0.001 C 
ATOM     19  C   UNL     1      33.731 -13.513 -24.563  0.00  0.00    +0.001 C 
ATOM     20  C   UNL     1      34.734 -14.891 -22.354  0.00  0.00    +0.017 C 
ATOM     21  C   UNL     1      34.058 -14.864 -24.674  0.00  0.00    +0.017 C 
ATOM     22  C   UNL     1      34.560 -15.553 -23.569  0.00  0.00    +0.077 C 
BRANCH  22  24
ATOM     23  O   UNL     1      33.272 -17.653 -25.237  0.00  0.00    -0.268 OA
ATOM     24  N   UNL     1      34.899 -16.952 -23.684  0.00  0.00    -0.155 N 
ATOM     25  N   UNL     1      35.993 -17.310 -22.931  0.00  0.00    -0.170 NA
ATOM     26  C   UNL     1      34.216 -17.879 -24.479  0.00  0.00    +0.272 C 
ATOM     27  C   UNL     1      34.690 -19.285 -24.421  0.00  0.00    +0.062 C 
ATOM     28  C   UNL     1      36.367 -18.543 -22.941  0.00  0.00    +0.118 C 
ATOM     29  C   UNL     1      35.735 -19.630 -23.679  0.00  0.00    +0.027 C 
ENDBRANCH  22  24
ENDBRANCH   6  17
TORSDOF 3
ENDMDL
MODEL 3
REMARK VINA RESULT:     -10.3      7.784     15.093
REMARK  Name = 24743471
REMARK  3 active torsions:
REMARK  status: ('A' for Active; 'I' for Inactive)
REMARK    1  A    between atoms: C_1  and  N_7
REMARK    2  A    between atoms: C_6  and  C_17
REMARK    3  A    between atoms: C_22  and  N_24
REMARK                            x       y       z     vdW  Elec       q    Type
REMARK                         _______ _______ _______ _____ _____    ______ ____
ROOT
ATOM      1  C   UNL     1      33.642  -8.341 -23.748  0.00  0.00    +0.048 C 
ATOM      2  C   UNL     1      32.727  -9.145 -23.068  0.00  0.00    +0.015 C 
ATOM      3  C   UNL     1      34.776  -8.912 -24.328  0.00  0.00    +0.015 C 
ATOM      4  C   UNL     1      32.946 -10.519 -22.966  0.00  0.00    +0.001 C 
ATOM      5  C   UNL     1      34.993 -10.287 -24.226  0.00  0.00    +0.001 C 
ATOM      6  C   UNL     1      34.078 -11.089 -23.545  0.00  0.00    +0.000 C 
ENDROOT
BRANCH   1   7
ATOM      7  N   UNL     1      33.427  -6.981 -23.851  0.00  0.00    -0.311 N 
ATOM      8  N   UNL     1      30.947  -5.111 -22.255  0.00  0.00    +0.387 N 
ATOM      9  C   UNL     1      32.398  -4.844 -24.024  0.00  0.00    -0.003 C 
ATOM     10  C   UNL     1      32.105  -6.350 -23.912  0.00  0.00    +0.050 C 
ATOM     11  C   UNL     1      33.852  -4.747 -24.453  0.00  0.00    +0.021 C 
ATOM     12  C   UNL     1      32.094  -4.291 -22.638  0.00  0.00    -0.076 C 
ATOM     13  C   UNL     1      31.324  -6.486 -22.599  0.00  0.00    -0.057 C 
ATOM     14  C   UNL     1      34.504  -5.993 -23.863  0.00  0.00    +0.091 C 
ATOM     15  C   UNL     1      30.602  -4.965 -20.849  0.00  0.00    -0.101 C 
ATOM     16  H   UNL     1      30.100  -4.823 -22.748  0.00  0.00    -0.080 HD
ENDBRANCH   1   7
BRANCH   6  17
ATOM     17  C   UNL     1      34.305 -12.515 -23.440  0.00  0.00    +0.000 C 
ATOM     18  C   UNL     1      34.343 -13.301 -24.592  0.00  0.00    +0.001 C 
ATOM     19  C   UNL     1      34.485 -13.102 -22.188  0.00  0.00    +0.001 C 
ATOM     20  C   UNL     1      34.562 -14.675 -24.491  0.00  0.00    +0.017 C 
ATOM     21  C   UNL     1      34.703 -14.476 -22.087  0.00  0.00    +0.017 C 
ATOM     22  C   UNL     1      34.742 -15.262 -23.239  0.00  0.00    +0.077 C 
BRANCH  22  24
ATOM     23  O   UNL     1      34.344 -17.370 -25.300  0.00  0.00    -0.268 OA
ATOM     24  N   UNL     1      34.968 -16.685 -23.135  0.00  0.00    -0.155 N 
ATOM     25  N   UNL     1      35.470 -17.067 -21.912  0.00  0.00    -0.170 NA
ATOM     26  C   UNL     1      34.727 -17.611 -24.156  0.00  0.00    +0.272 C 
ATOM     27  C   UNL     1      34.976 -19.038 -23.833  0.00  0.00    +0.062 C 
ATOM     28  C   UNL     1      35.684 -18.320 -21.703  0.00  0.00    +0.118 C 
ATOM     29  C   UNL     1      35.443 -19.406 -22.646  0.00  0.00    +0.027 C 
ENDBRANCH  22  24
ENDBRANCH   6  17
TORSDOF 3
ENDMDL
MODEL 4
REMARK VINA RESULT:     -10.2      1.121      2.148
REMARK  Name = 24743471
REMARK  3 active torsions:
REMARK  status: ('A' for Active; 'I' for Inactive)
REMARK    1  A    between atoms: C_1  and  N_7
REMARK    2  A    between atoms: C_6  and  C_17
REMARK    3  A    between atoms: C_22  and  N_24
REMARK                            x       y       z     vdW  Elec       q    Type
REMARK                         _______ _______ _______ _____ _____    ______ ____
ROOT
ATOM      1  C   UNL     1      36.899 -23.603 -15.369  0.00  0.00    +0.048 C 
ATOM      2  C   UNL     1      37.917 -22.825 -15.919  0.00  0.00    +0.015 C 
ATOM      3  C   UNL     1      35.619 -23.569 -15.923  0.00  0.00    +0.015 C 
ATOM      4  C   UNL     1      37.655 -22.012 -17.023  0.00  0.00    +0.001 C 
ATOM      5  C   UNL     1      35.358 -22.756 -17.027  0.00  0.00    +0.001 C 
ATOM      6  C   UNL     1      36.376 -21.978 -17.576  0.00  0.00    +0.000 C 
ENDROOT
BRANCH   1   7
ATOM      7  N   UNL     1      37.157 -24.409 -14.278  0.00  0.00    -0.311 N 
ATOM      8  N   UNL     1      37.444 -23.415 -10.943  0.00  0.00    +0.387 N 
ATOM      9  C   UNL     1      37.988 -25.256 -12.217  0.00  0.00    -0.003 C 
ATOM     10  C   UNL     1      38.024 -24.038 -13.156  0.00  0.00    +0.050 C 
ATOM     11  C   UNL     1      37.456 -26.400 -13.062  0.00  0.00    +0.021 C 
ATOM     12  C   UNL     1      37.085 -24.826 -11.068  0.00  0.00    -0.076 C 
ATOM     13  C   UNL     1      37.444 -22.895 -12.314  0.00  0.00    -0.057 C 
ATOM     14  C   UNL     1      36.551 -25.724 -14.086  0.00  0.00    +0.091 C 
ATOM     15  C   UNL     1      36.537 -22.684 -10.071  0.00  0.00    -0.101 C 
ATOM     16  H   UNL     1      38.357 -23.299 -10.501  0.00  0.00    -0.080 HD
ENDBRANCH   1   7
BRANCH   6  17
ATOM     17  C   UNL     1      36.104 -21.135 -18.720  0.00  0.00    +0.000 C 
ATOM     18  C   UNL     1      37.128 -20.371 -19.282  0.00  0.00    +0.001 C 
ATOM     19  C   UNL     1      34.820 -21.086 -19.261  0.00  0.00    +0.001 C 
ATOM     20  C   UNL     1      36.867 -19.559 -20.385  0.00  0.00    +0.017 C 
ATOM     21  C   UNL     1      34.558 -20.274 -20.365  0.00  0.00    +0.017 C 
ATOM     22  C   UNL     1      35.582 -19.510 -20.926  0.00  0.00    +0.077 C 
BRANCH  22  24
ATOM     23  O   UNL     1      35.517 -16.539 -21.081  0.00  0.00    -0.268 OA
ATOM     24  N   UNL     1      35.311 -18.668 -22.068  0.00  0.00    -0.155 N 
ATOM     25  N   UNL     1      35.095 -19.377 -23.227  0.00  0.00    -0.170 NA
ATOM     26  C   UNL     1      35.276 -17.270 -22.042  0.00  0.00    +0.272 C 
ATOM     27  C   UNL     1      34.928 -16.587 -23.314  0.00  0.00    +0.062 C 
ATOM     28  C   UNL     1      34.819 -18.724 -24.302  0.00  0.00    +0.118 C 
ATOM     29  C   UNL     1      34.703 -17.276 -24.427  0.00  0.00    +0.027 C 
ENDBRANCH  22  24
ENDBRANCH   6  17
TORSDOF 3
ENDMDL
MODEL 5
REMARK VINA RESULT:     -10.2      9.022     16.216
REMARK  Name = 24743471
REMARK  3 active torsions:
REMARK  status: ('A' for Active; 'I' for Inactive)
REMARK    1  A    between atoms: C_1  and  N_7
REMARK    2  A    between atoms: C_6  and  C_17
REMARK    3  A    between atoms: C_22  and  N_24
REMARK                            x       y       z     vdW  Elec       q    Type
REMARK                         _______ _______ _______ _____ _____    ______ ____
ROOT
ATOM      1  C   UNL     1      32.483  -7.021 -22.890  0.00  0.00    +0.048 C 
ATOM      2  C   UNL     1      31.576  -7.999 -22.482  0.00  0.00    +0.015 C 
ATOM      3  C   UNL     1      33.714  -7.394 -23.431  0.00  0.00    +0.015 C 
ATOM      4  C   UNL     1      31.899  -9.350 -22.614  0.00  0.00    +0.001 C 
ATOM      5  C   UNL     1      34.037  -8.745 -23.563  0.00  0.00    +0.001 C 
ATOM      6  C   UNL     1      33.129  -9.722 -23.154  0.00  0.00    +0.000 C 
ENDROOT
BRANCH   1   7
ATOM      7  N   UNL     1      32.164  -5.684 -22.761  0.00  0.00    -0.311 N 
ATOM      8  N   UNL     1      32.703  -3.151 -25.102  0.00  0.00    +0.387 N 
ATOM      9  C   UNL     1      32.222  -3.308 -22.854  0.00  0.00    -0.003 C 
ATOM     10  C   UNL     1      33.002  -4.579 -23.233  0.00  0.00    +0.050 C 
ATOM     11  C   UNL     1      31.208  -3.754 -21.815  0.00  0.00    +0.021 C 
ATOM     12  C   UNL     1      31.628  -2.818 -24.168  0.00  0.00    -0.076 C 
ATOM     13  C   UNL     1      33.097  -4.522 -24.763  0.00  0.00    -0.057 C 
ATOM     14  C   UNL     1      30.914  -5.207 -22.172  0.00  0.00    +0.091 C 
ATOM     15  C   UNL     1      32.294  -3.017 -26.492  0.00  0.00    -0.101 C 
ATOM     16  H   UNL     1      33.488  -2.504 -25.013  0.00  0.00    -0.080 HD
ENDBRANCH   1   7
BRANCH   6  17
ATOM     17  C   UNL     1      33.465 -11.123 -23.291  0.00  0.00    +0.000 C 
ATOM     18  C   UNL     1      33.042 -12.039 -22.327  0.00  0.00    +0.001 C 
ATOM     19  C   UNL     1      34.212 -11.557 -24.386  0.00  0.00    +0.001 C 
ATOM     20  C   UNL     1      33.366 -13.389 -22.459  0.00  0.00    +0.017 C 
ATOM     21  C   UNL     1      34.535 -12.908 -24.518  0.00  0.00    +0.017 C 
ATOM     22  C   UNL     1      34.113 -13.823 -23.554  0.00  0.00    +0.077 C 
BRANCH  22  24
ATOM     23  O   UNL     1      33.411 -15.704 -25.750  0.00  0.00    -0.268 OA
ATOM     24  N   UNL     1      34.448 -15.222 -23.690  0.00  0.00    -0.155 N 
ATOM     25  N   UNL     1      35.227 -15.697 -22.661  0.00  0.00    -0.170 NA
ATOM     26  C   UNL     1      34.049 -16.040 -24.753  0.00  0.00    +0.272 C 
ATOM     27  C   UNL     1      34.454 -17.467 -24.683  0.00  0.00    +0.062 C 
ATOM     28  C   UNL     1      35.563 -16.941 -22.671  0.00  0.00    +0.118 C 
ATOM     29  C   UNL     1      35.192 -17.927 -23.679  0.00  0.00    +0.027 C 
ENDBRANCH  22  24
ENDBRANCH   6  17
TORSDOF 3
ENDMDL
MODEL 6
REMARK VINA RESULT:     -10.2      1.391      2.388
REMARK  Name = 24743471
REMARK  3 active torsions:
REMARK  status: ('A' for Active; 'I' for Inactive)
REMARK    1  A    between atoms: C_1  and  N_7
REMARK    2  A    between atoms: C_6  and  C_17
REMARK    3  A    between atoms: C_22  and  N_24
REMARK                            x       y       z     vdW  Elec       q    Type
REMARK                         _______ _______ _______ _____ _____    ______ ____
ROOT
ATOM      1  C   UNL     1      36.780 -23.441 -15.744  0.00  0.00    +0.048 C 
ATOM      2  C   UNL     1      37.820 -22.652 -16.236  0.00  0.00    +0.015 C 
ATOM      3  C   UNL     1      35.515 -23.369 -16.327  0.00  0.00    +0.015 C 
ATOM      4  C   UNL     1      37.595 -21.791 -17.310  0.00  0.00    +0.001 C 
ATOM      5  C   UNL     1      35.290 -22.508 -17.402  0.00  0.00    +0.001 C 
ATOM      6  C   UNL     1      36.331 -21.720 -17.893  0.00  0.00    +0.000 C 
ENDROOT
BRANCH   1   7
ATOM      7  N   UNL     1      37.002 -24.294 -14.681  0.00  0.00    -0.311 N 
ATOM      8  N   UNL     1      37.528 -23.414 -11.343  0.00  0.00    +0.387 N 
ATOM      9  C   UNL     1      37.830 -25.269 -12.676  0.00  0.00    -0.003 C 
ATOM     10  C   UNL     1      37.949 -24.038 -13.591  0.00  0.00    +0.050 C 
ATOM     11  C   UNL     1      37.152 -26.334 -13.519  0.00  0.00    +0.021 C 
ATOM     12  C   UNL     1      37.025 -24.779 -11.480  0.00  0.00    -0.076 C 
ATOM     13  C   UNL     1      37.522 -22.863 -12.702  0.00  0.00    -0.057 C 
ATOM     14  C   UNL     1      36.276 -25.547 -14.488  0.00  0.00    +0.091 C 
ATOM     15  C   UNL     1      36.736 -22.618 -10.418  0.00  0.00    -0.101 C 
ATOM     16  H   UNL     1      38.466 -23.400 -10.940  0.00  0.00    -0.080 HD
ENDBRANCH   1   7
BRANCH   6  17
ATOM     17  C   UNL     1      36.097 -20.827 -19.008  0.00  0.00    +0.000 C 
ATOM     18  C   UNL     1      37.146 -20.064 -19.521  0.00  0.00    +0.001 C 
ATOM     19  C   UNL     1      34.823 -20.729 -19.567  0.00  0.00    +0.001 C 
ATOM     20  C   UNL     1      36.921 -19.204 -20.596  0.00  0.00    +0.017 C 
ATOM     21  C   UNL     1      34.598 -19.868 -20.642  0.00  0.00    +0.017 C 
ATOM     22  C   UNL     1      35.647 -19.106 -21.156  0.00  0.00    +0.077 C 
BRANCH  22  24
ATOM     23  O   UNL     1      35.098 -19.779 -24.001  0.00  0.00    -0.268 OA
ATOM     24  N   UNL     1      35.415 -18.215 -22.268  0.00  0.00    -0.155 N 
ATOM     25  N   UNL     1      35.421 -16.886 -21.912  0.00  0.00    -0.170 NA
ATOM     26  C   UNL     1      35.189 -18.623 -23.588  0.00  0.00    +0.272 C 
ATOM     27  C   UNL     1      35.022 -17.549 -24.599  0.00  0.00    +0.062 C 
ATOM     28  C   UNL     1      35.248 -16.004 -22.834  0.00  0.00    +0.118 C 
ATOM     29  C   UNL     1      35.046 -16.267 -24.254  0.00  0.00    +0.027 C 
ENDBRANCH  22  24
ENDBRANCH   6  17
TORSDOF 3
ENDMDL
MODEL 7
REMARK VINA RESULT:      -9.9      6.766     11.578
REMARK  Name = 24743471
REMARK  3 active torsions:
REMARK  status: ('A' for Active; 'I' for Inactive)
REMARK    1  A    between atoms: C_1  and  N_7
REMARK    2  A    between atoms: C_6  and  C_17
REMARK    3  A    between atoms: C_22  and  N_24
REMARK                            x       y       z     vdW  Elec       q    Type
REMARK                         _______ _______ _______ _____ _____    ______ ____
ROOT
ATOM      1  C   UNL     1      34.564 -15.548 -23.624  0.00  0.00    +0.048 C 
ATOM      2  C   UNL     1      34.909 -14.870 -22.456  0.00  0.00    +0.015 C 
ATOM      3  C   UNL     1      33.894 -14.877 -24.648  0.00  0.00    +0.015 C 
ATOM      4  C   UNL     1      34.584 -13.521 -22.310  0.00  0.00    +0.001 C 
ATOM      5  C   UNL     1      33.570 -13.528 -24.502  0.00  0.00    +0.001 C 
ATOM      6  C   UNL     1      33.915 -12.851 -23.333  0.00  0.00    +0.000 C 
ENDROOT
BRANCH   1   7
ATOM      7  N   UNL     1      34.885 -16.883 -23.771  0.00  0.00    -0.311 N 
ATOM      8  N   UNL     1      35.160 -19.276 -21.243  0.00  0.00    +0.387 N 
ATOM      9  C   UNL     1      35.795 -19.056 -23.446  0.00  0.00    -0.003 C 
ATOM     10  C   UNL     1      35.745 -17.638 -22.854  0.00  0.00    +0.050 C 
ATOM     11  C   UNL     1      35.322 -18.910 -24.882  0.00  0.00    +0.021 C 
ATOM     12  C   UNL     1      34.885 -19.880 -22.546  0.00  0.00    -0.076 C 
ATOM     13  C   UNL     1      35.108 -17.829 -21.471  0.00  0.00    -0.057 C 
ATOM     14  C   UNL     1      34.363 -17.725 -24.845  0.00  0.00    +0.091 C 
ATOM     15  C   UNL     1      34.222 -19.711 -20.219  0.00  0.00    -0.101 C 
ATOM     16  H   UNL     1      36.070 -19.565 -20.882  0.00  0.00    -0.080 HD
ENDBRANCH   1   7
BRANCH   6  17
ATOM     17  C   UNL     1      33.578 -11.451 -23.182  0.00  0.00    +0.000 C 
ATOM     18  C   UNL     1      34.282 -10.484 -23.900  0.00  0.00    +0.001 C 
ATOM     19  C   UNL     1      32.551 -11.070 -22.319  0.00  0.00    +0.001 C 
ATOM     20  C   UNL     1      33.958  -9.135 -23.755  0.00  0.00    +0.017 C 
ATOM     21  C   UNL     1      32.227  -9.721 -22.174  0.00  0.00    +0.017 C 
ATOM     22  C   UNL     1      32.931  -8.754 -22.892  0.00  0.00    +0.077 C 
BRANCH  22  24
ATOM     23  O   UNL     1      33.463  -6.944 -20.591  0.00  0.00    -0.268 OA
ATOM     24  N   UNL     1      32.595  -7.357 -22.742  0.00  0.00    -0.155 N 
ATOM     25  N   UNL     1      31.980  -6.824 -23.851  0.00  0.00    -0.170 NA
ATOM     26  C   UNL     1      32.863  -6.587 -21.605  0.00  0.00    +0.272 C 
ATOM     27  C   UNL     1      32.391  -5.179 -21.627  0.00  0.00    +0.062 C 
ATOM     28  C   UNL     1      31.614  -5.589 -23.814  0.00  0.00    +0.118 C 
ATOM     29  C   UNL     1      31.782  -4.672 -22.692  0.00  0.00    +0.027 C 
ENDBRANCH  22  24
ENDBRANCH   6  17
TORSDOF 3
ENDMDL
