MODEL 1
REMARK VINA RESULT:     -10.9      0.000      0.000
REMARK  Name = 10361208
REMARK  3 active torsions:
REMARK  status: ('A' for Active; 'I' for Inactive)
REMARK    1  A    between atoms: N_1  and  C_12
REMARK    2  A    between atoms: C_10  and  C_18
REMARK    3  A    between atoms: C_21  and  C_27
REMARK                            x       y       z     vdW  Elec       q    Type
REMARK                         _______ _______ _______ _____ _____    ______ ____
ROOT
ATOM      1  N   UNL     1      34.512  -9.181 -25.526  0.00  0.00    -0.318 N 
ATOM      2  N   UNL     1      33.842 -11.264 -24.824  0.00  0.00    -0.147 NA
ATOM      3  N   UNL     1      33.632 -12.551 -25.198  0.00  0.00    -0.190 N 
ATOM      4  N   UNL     1      33.502 -14.383 -26.401  0.00  0.00    -0.127 NA
ATOM      5  N   UNL     1      33.107 -14.678 -25.112  0.00  0.00    -0.127 NA
ATOM      6  C   UNL     1      34.271 -10.477 -25.784  0.00  0.00    +0.149 C 
ATOM      7  C   UNL     1      34.509 -10.970 -27.186  0.00  0.00    +0.039 C 
ATOM      8  C   UNL     1      33.815 -13.105 -26.442  0.00  0.00    +0.187 A 
ATOM      9  C   UNL     1      34.274 -12.257 -27.466  0.00  0.00    +0.044 C 
ATOM     10  C   UNL     1      33.190 -13.572 -24.407  0.00  0.00    +0.187 A 
ATOM     11  H   UNL     1      34.817  -8.604 -26.263  0.00  0.00    +0.148 HD
ENDROOT
BRANCH   1  12
ATOM     12  C   UNL     1      34.340  -8.596 -24.209  0.00  0.00    +0.070 C 
ATOM     13  C   UNL     1      35.308  -7.423 -24.026  0.00  0.00    +0.020 C 
ATOM     14  C   UNL     1      32.884  -8.161 -24.013  0.00  0.00    +0.020 C 
ATOM     15  C   UNL     1      34.927  -6.205 -24.868  0.00  0.00    +0.002 C 
ATOM     16  C   UNL     1      32.513  -6.940 -24.856  0.00  0.00    +0.002 C 
ATOM     17  C   UNL     1      33.482  -5.784 -24.629  0.00  0.00    +0.000 C 
ENDBRANCH   1  12
BRANCH  10  18
ATOM     18  C   UNL     1      32.872 -13.428 -23.007  0.00  0.00    +0.038 C 
ATOM     19  C   UNL     1      32.094 -12.355 -22.574  0.00  0.00    +0.007 C 
ATOM     20  C   UNL     1      33.345 -14.363 -22.087  0.00  0.00    +0.003 C 
ATOM     21  C   UNL     1      31.788 -12.217 -21.221  0.00  0.00    +0.072 C 
ATOM     22  C   UNL     1      33.039 -14.225 -20.733  0.00  0.00    +0.000 C 
ATOM     23  C   UNL     1      32.260 -13.151 -20.300  0.00  0.00    +0.004 C 
BRANCH  21  27
ATOM     24  F   UNL     1      31.020 -10.856 -19.410  0.00  0.00    -0.166 F 
ATOM     25  F   UNL     1      31.300  -9.877 -21.325  0.00  0.00    -0.166 F 
ATOM     26  F   UNL     1      29.628 -11.238 -21.037  0.00  0.00    -0.166 F 
ATOM     27  C   UNL     1      30.954 -11.070 -20.757  0.00  0.00    +0.419 C 
ENDBRANCH  21  27
ENDBRANCH  10  18
TORSDOF 3
ENDMDL
MODEL 2
REMARK VINA RESULT:     -10.6     12.940     15.410
REMARK  Name = 10361208
REMARK  3 active torsions:
REMARK  status: ('A' for Active; 'I' for Inactive)
REMARK    1  A    between atoms: N_1  and  C_12
REMARK    2  A    between atoms: C_10  and  C_18
REMARK    3  A    between atoms: C_21  and  C_27
REMARK                            x       y       z     vdW  Elec       q    Type
REMARK                         _______ _______ _______ _____ _____    ______ ____
ROOT
ATOM      1  N   UNL     1      36.745 -22.971 -14.773  0.00  0.00    -0.318 N 
ATOM      2  N   UNL     1      34.817 -22.982 -16.023  0.00  0.00    -0.147 NA
ATOM      3  N   UNL     1      34.281 -22.741 -17.245  0.00  0.00    -0.190 N 
ATOM      4  N   UNL     1      34.062 -22.190 -19.359  0.00  0.00    -0.127 NA
ATOM      5  N   UNL     1      32.824 -22.559 -18.873  0.00  0.00    -0.127 NA
ATOM      6  C   UNL     1      36.110 -22.765 -15.938  0.00  0.00    +0.149 C 
ATOM      7  C   UNL     1      36.926 -22.285 -17.108  0.00  0.00    +0.039 C 
ATOM      8  C   UNL     1      34.929 -22.304 -18.376  0.00  0.00    +0.187 A 
ATOM      9  C   UNL     1      36.313 -22.072 -18.278  0.00  0.00    +0.044 C 
ATOM     10  C   UNL     1      32.974 -22.883 -17.608  0.00  0.00    +0.187 A 
ATOM     11  H   UNL     1      37.712 -22.787 -14.726  0.00  0.00    +0.148 HD
ENDROOT
BRANCH   1  12
ATOM     12  C   UNL     1      36.070 -23.453 -13.583  0.00  0.00    +0.070 C 
ATOM     13  C   UNL     1      35.680 -24.924 -13.759  0.00  0.00    +0.020 C 
ATOM     14  C   UNL     1      36.963 -23.250 -12.354  0.00  0.00    +0.020 C 
ATOM     15  C   UNL     1      36.886 -25.863 -13.733  0.00  0.00    +0.002 C 
ATOM     16  C   UNL     1      38.164 -24.196 -12.334  0.00  0.00    +0.002 C 
ATOM     17  C   UNL     1      37.737 -25.653 -12.485  0.00  0.00    +0.000 C 
ENDBRANCH   1  12
BRANCH  10  18
ATOM     18  C   UNL     1      31.932 -23.329 -16.715  0.00  0.00    +0.038 C 
ATOM     19  C   UNL     1      30.593 -23.183 -17.075  0.00  0.00    +0.007 C 
ATOM     20  C   UNL     1      32.266 -23.905 -15.489  0.00  0.00    +0.003 C 
ATOM     21  C   UNL     1      29.587 -23.614 -16.211  0.00  0.00    +0.072 C 
ATOM     22  C   UNL     1      31.260 -24.336 -14.624  0.00  0.00    +0.000 C 
ATOM     23  C   UNL     1      29.920 -24.190 -14.985  0.00  0.00    +0.004 C 
BRANCH  21  27
ATOM     24  F   UNL     1      27.326 -23.215 -15.537  0.00  0.00    -0.166 F 
ATOM     25  F   UNL     1      27.930 -22.434 -17.469  0.00  0.00    -0.166 F 
ATOM     26  F   UNL     1      27.652 -24.574 -17.204  0.00  0.00    -0.166 F 
ATOM     27  C   UNL     1      28.154 -23.460 -16.596  0.00  0.00    +0.419 C 
ENDBRANCH  21  27
ENDBRANCH  10  18
TORSDOF 3
ENDMDL
MODEL 3
REMARK VINA RESULT:     -10.2      3.156      5.073
REMARK  Name = 10361208
REMARK  3 active torsions:
REMARK  status: ('A' for Active; 'I' for Inactive)
REMARK    1  A    between atoms: N_1  and  C_12
REMARK    2  A    between atoms: C_10  and  C_18
REMARK    3  A    between atoms: C_21  and  C_27
REMARK                            x       y       z     vdW  Elec       q    Type
REMARK                         _______ _______ _______ _____ _____    ______ ____
ROOT
ATOM      1  N   UNL     1      31.434  -8.186 -22.529  0.00  0.00    -0.318 N 
ATOM      2  N   UNL     1      32.027 -10.401 -22.685  0.00  0.00    -0.147 NA
ATOM      3  N   UNL     1      32.096 -11.584 -22.026  0.00  0.00    -0.190 N 
ATOM      4  N   UNL     1      31.947 -13.115 -20.459  0.00  0.00    -0.127 NA
ATOM      5  N   UNL     1      32.468 -13.701 -21.595  0.00  0.00    -0.127 NA
ATOM      6  C   UNL     1      31.546  -9.405 -21.976  0.00  0.00    +0.149 C 
ATOM      7  C   UNL     1      31.108  -9.570 -20.545  0.00  0.00    +0.039 C 
ATOM      8  C   UNL     1      31.726 -11.846 -20.729  0.00  0.00    +0.187 A 
ATOM      9  C   UNL     1      31.212 -10.775 -19.974  0.00  0.00    +0.044 C 
ATOM     10  C   UNL     1      32.551 -12.771 -22.520  0.00  0.00    +0.187 A 
ATOM     11  H   UNL     1      31.086  -7.449 -21.976  0.00  0.00    +0.148 HD
ENDROOT
BRANCH   1  12
ATOM     12  C   UNL     1      31.803  -7.909 -23.905  0.00  0.00    +0.070 C 
ATOM     13  C   UNL     1      30.815  -6.915 -24.524  0.00  0.00    +0.020 C 
ATOM     14  C   UNL     1      33.241  -7.386 -23.968  0.00  0.00    +0.020 C 
ATOM     15  C   UNL     1      30.965  -5.502 -23.958  0.00  0.00    +0.002 C 
ATOM     16  C   UNL     1      33.382  -5.972 -23.404  0.00  0.00    +0.002 C 
ATOM     17  C   UNL     1      32.402  -5.004 -24.061  0.00  0.00    +0.000 C 
ENDBRANCH   1  12
BRANCH  10  18
ATOM     18  C   UNL     1      33.043 -12.950 -23.865  0.00  0.00    +0.038 C 
ATOM     19  C   UNL     1      33.616 -11.877 -24.547  0.00  0.00    +0.007 C 
ATOM     20  C   UNL     1      32.943 -14.196 -24.482  0.00  0.00    +0.003 C 
ATOM     21  C   UNL     1      34.090 -12.051 -25.847  0.00  0.00    +0.072 C 
ATOM     22  C   UNL     1      33.417 -14.371 -25.783  0.00  0.00    +0.000 C 
ATOM     23  C   UNL     1      33.991 -13.297 -26.465  0.00  0.00    +0.004 C 
BRANCH  21  27
ATOM     24  F   UNL     1      35.810 -10.392 -25.961  0.00  0.00    -0.166 F 
ATOM     25  F   UNL     1      35.114 -11.218 -27.842  0.00  0.00    -0.166 F 
ATOM     26  F   UNL     1      33.846  -9.853 -26.722  0.00  0.00    -0.166 F 
ATOM     27  C   UNL     1      34.705 -10.905 -26.577  0.00  0.00    +0.419 C 
ENDBRANCH  21  27
ENDBRANCH  10  18
TORSDOF 3
ENDMDL
MODEL 4
REMARK VINA RESULT:     -10.0      3.123      4.888
REMARK  Name = 10361208
REMARK  3 active torsions:
REMARK  status: ('A' for Active; 'I' for Inactive)
REMARK    1  A    between atoms: N_1  and  C_12
REMARK    2  A    between atoms: C_10  and  C_18
REMARK    3  A    between atoms: C_21  and  C_27
REMARK                            x       y       z     vdW  Elec       q    Type
REMARK                         _______ _______ _______ _____ _____    ______ ____
ROOT
ATOM      1  N   UNL     1      32.228  -8.111 -23.242  0.00  0.00    -0.318 N 
ATOM      2  N   UNL     1      32.353 -10.391 -22.988  0.00  0.00    -0.147 NA
ATOM      3  N   UNL     1      32.141 -11.431 -22.143  0.00  0.00    -0.190 N 
ATOM      4  N   UNL     1      31.600 -12.605 -20.368  0.00  0.00    -0.127 NA
ATOM      5  N   UNL     1      32.043 -13.471 -21.347  0.00  0.00    -0.127 NA
ATOM      6  C   UNL     1      32.057  -9.212 -22.492  0.00  0.00    +0.149 C 
ATOM      7  C   UNL     1      31.524  -9.034 -21.095  0.00  0.00    +0.039 C 
ATOM      8  C   UNL     1      31.662 -11.384 -20.856  0.00  0.00    +0.187 A 
ATOM      9  C   UNL     1      31.347 -10.118 -20.330  0.00  0.00    +0.044 C 
ATOM     10  C   UNL     1      32.363 -12.753 -22.400  0.00  0.00    +0.187 A 
ATOM     11  H   UNL     1      32.015  -7.235 -22.846  0.00  0.00    +0.148 HD
ENDROOT
BRANCH   1  12
ATOM     12  C   UNL     1      32.713  -8.157 -24.608  0.00  0.00    +0.070 C 
ATOM     13  C   UNL     1      32.205  -6.940 -25.387  0.00  0.00    +0.020 C 
ATOM     14  C   UNL     1      34.243  -8.235 -24.620  0.00  0.00    +0.020 C 
ATOM     15  C   UNL     1      32.875  -5.636 -24.951  0.00  0.00    +0.002 C 
ATOM     16  C   UNL     1      34.905  -6.926 -24.187  0.00  0.00    +0.002 C 
ATOM     17  C   UNL     1      34.396  -5.741 -25.000  0.00  0.00    +0.000 C 
ENDBRANCH   1  12
BRANCH  10  18
ATOM     18  C   UNL     1      32.872 -13.257 -23.653  0.00  0.00    +0.038 C 
ATOM     19  C   UNL     1      33.014 -12.401 -24.744  0.00  0.00    +0.007 C 
ATOM     20  C   UNL     1      33.219 -14.602 -23.771  0.00  0.00    +0.003 C 
ATOM     21  C   UNL     1      33.505 -12.890 -25.954  0.00  0.00    +0.072 C 
ATOM     22  C   UNL     1      33.710 -15.092 -24.981  0.00  0.00    +0.000 C 
ATOM     23  C   UNL     1      33.853 -14.235 -26.073  0.00  0.00    +0.004 C 
BRANCH  21  27
ATOM     24  F   UNL     1      32.510 -11.802 -27.838  0.00  0.00    -0.166 F 
ATOM     25  F   UNL     1      34.060 -10.714 -26.780  0.00  0.00    -0.166 F 
ATOM     26  F   UNL     1      34.587 -12.422 -28.019  0.00  0.00    -0.166 F 
ATOM     27  C   UNL     1      33.660 -11.975 -27.122  0.00  0.00    +0.419 C 
ENDBRANCH  21  27
ENDBRANCH  10  18
TORSDOF 3
ENDMDL
MODEL 5
REMARK VINA RESULT:      -9.8     13.216     15.812
REMARK  Name = 10361208
REMARK  3 active torsions:
REMARK  status: ('A' for Active; 'I' for Inactive)
REMARK    1  A    between atoms: N_1  and  C_12
REMARK    2  A    between atoms: C_10  and  C_18
REMARK    3  A    between atoms: C_21  and  C_27
REMARK                            x       y       z     vdW  Elec       q    Type
REMARK                         _______ _______ _______ _____ _____    ______ ____
ROOT
ATOM      1  N   UNL     1      31.387 -23.276 -17.296  0.00  0.00    -0.318 N 
ATOM      2  N   UNL     1      33.643 -23.102 -16.898  0.00  0.00    -0.147 NA
ATOM      3  N   UNL     1      34.833 -22.679 -17.394  0.00  0.00    -0.190 N 
ATOM      4  N   UNL     1      36.355 -21.815 -18.718  0.00  0.00    -0.127 NA
ATOM      5  N   UNL     1      36.976 -22.255 -17.567  0.00  0.00    -0.127 NA
ATOM      6  C   UNL     1      32.614 -22.896 -17.687  0.00  0.00    +0.149 C 
ATOM      7  C   UNL     1      32.750 -22.240 -19.036  0.00  0.00    +0.039 C 
ATOM      8  C   UNL     1      35.070 -22.073 -18.604  0.00  0.00    +0.187 A 
ATOM      9  C   UNL     1      33.964 -21.855 -19.446  0.00  0.00    +0.044 C 
ATOM     10  C   UNL     1      36.051 -22.769 -16.788  0.00  0.00    +0.187 A 
ATOM     11  H   UNL     1      30.631 -23.127 -17.909  0.00  0.00    +0.148 HD
ENDROOT
BRANCH   1  12
ATOM     12  C   UNL     1      31.128 -23.897 -16.011  0.00  0.00    +0.070 C 
ATOM     13  C   UNL     1      30.592 -22.856 -15.023  0.00  0.00    +0.020 C 
ATOM     14  C   UNL     1      30.153 -25.067 -16.180  0.00  0.00    +0.020 C 
ATOM     15  C   UNL     1      29.167 -22.408 -15.351  0.00  0.00    +0.002 C 
ATOM     16  C   UNL     1      28.730 -24.610 -16.504  0.00  0.00    +0.002 C 
ATOM     17  C   UNL     1      28.220 -23.595 -15.486  0.00  0.00    +0.000 C 
ENDBRANCH   1  12
BRANCH  10  18
ATOM     18  C   UNL     1      36.263 -23.347 -15.483  0.00  0.00    +0.038 C 
ATOM     19  C   UNL     1      37.352 -24.189 -15.259  0.00  0.00    +0.007 C 
ATOM     20  C   UNL     1      35.375 -23.065 -14.445  0.00  0.00    +0.003 C 
ATOM     21  C   UNL     1      37.555 -24.747 -13.998  0.00  0.00    +0.072 C 
ATOM     22  C   UNL     1      35.577 -23.623 -13.182  0.00  0.00    +0.000 C 
ATOM     23  C   UNL     1      36.668 -24.465 -12.959  0.00  0.00    +0.004 C 
BRANCH  21  27
ATOM     24  F   UNL     1      38.837 -26.650 -14.676  0.00  0.00    -0.166 F 
ATOM     25  F   UNL     1      39.924 -24.999 -13.782  0.00  0.00    -0.166 F 
ATOM     26  F   UNL     1      38.664 -26.265 -12.542  0.00  0.00    -0.166 F 
ATOM     27  C   UNL     1      38.721 -25.646 -13.757  0.00  0.00    +0.419 C 
ENDBRANCH  21  27
ENDBRANCH  10  18
TORSDOF 3
ENDMDL
MODEL 6
REMARK VINA RESULT:      -9.7     13.091     15.546
REMARK  Name = 10361208
REMARK  3 active torsions:
REMARK  status: ('A' for Active; 'I' for Inactive)
REMARK    1  A    between atoms: N_1  and  C_12
REMARK    2  A    between atoms: C_10  and  C_18
REMARK    3  A    between atoms: C_21  and  C_27
REMARK                            x       y       z     vdW  Elec       q    Type
REMARK                         _______ _______ _______ _____ _____    ______ ____
ROOT
ATOM      1  N   UNL     1      36.568 -23.066 -15.080  0.00  0.00    -0.318 N 
ATOM      2  N   UNL     1      34.655 -22.892 -16.341  0.00  0.00    -0.147 NA
ATOM      3  N   UNL     1      34.148 -22.575 -17.558  0.00  0.00    -0.190 N 
ATOM      4  N   UNL     1      33.989 -21.950 -19.657  0.00  0.00    -0.127 NA
ATOM      5  N   UNL     1      32.723 -22.234 -19.188  0.00  0.00    -0.127 NA
ATOM      6  C   UNL     1      35.959 -22.778 -16.242  0.00  0.00    +0.149 C 
ATOM      7  C   UNL     1      36.820 -22.331 -17.393  0.00  0.00    +0.039 C 
ATOM      8  C   UNL     1      34.837 -22.158 -18.672  0.00  0.00    +0.187 A 
ATOM      9  C   UNL     1      36.234 -22.037 -18.560  0.00  0.00    +0.044 C 
ATOM     10  C   UNL     1      32.837 -22.605 -17.933  0.00  0.00    +0.187 A 
ATOM     11  H   UNL     1      37.545 -22.959 -15.021  0.00  0.00    +0.148 HD
ENDROOT
BRANCH   1  12
ATOM     12  C   UNL     1      35.848 -23.527 -13.908  0.00  0.00    +0.070 C 
ATOM     13  C   UNL     1      35.563 -25.028 -14.023  0.00  0.00    +0.020 C 
ATOM     14  C   UNL     1      36.644 -23.200 -12.640  0.00  0.00    +0.020 C 
ATOM     15  C   UNL     1      36.822 -25.883 -13.867  0.00  0.00    +0.002 C 
ATOM     16  C   UNL     1      37.899 -24.061 -12.491  0.00  0.00    +0.002 C 
ATOM     17  C   UNL     1      37.575 -25.549 -12.584  0.00  0.00    +0.000 C 
ENDBRANCH   1  12
BRANCH  10  18
ATOM     18  C   UNL     1      31.757 -22.994 -17.058  0.00  0.00    +0.038 C 
ATOM     19  C   UNL     1      32.033 -23.606 -15.836  0.00  0.00    +0.007 C 
ATOM     20  C   UNL     1      30.436 -22.757 -17.437  0.00  0.00    +0.003 C 
ATOM     21  C   UNL     1      30.989 -23.982 -14.992  0.00  0.00    +0.072 C 
ATOM     22  C   UNL     1      29.390 -23.134 -16.593  0.00  0.00    +0.000 C 
ATOM     23  C   UNL     1      29.667 -23.746 -15.370  0.00  0.00    +0.004 C 
BRANCH  21  27
ATOM     24  F   UNL     1      31.541 -25.973 -13.786  0.00  0.00    -0.166 F 
ATOM     25  F   UNL     1      32.369 -24.111 -13.043  0.00  0.00    -0.166 F 
ATOM     26  F   UNL     1      30.249 -24.528 -12.800  0.00  0.00    -0.166 F 
ATOM     27  C   UNL     1      31.283 -24.635 -13.684  0.00  0.00    +0.419 C 
ENDBRANCH  21  27
ENDBRANCH  10  18
TORSDOF 3
ENDMDL
MODEL 7
REMARK VINA RESULT:      -9.6     12.826     15.540
REMARK  Name = 10361208
REMARK  3 active torsions:
REMARK  status: ('A' for Active; 'I' for Inactive)
REMARK    1  A    between atoms: N_1  and  C_12
REMARK    2  A    between atoms: C_10  and  C_18
REMARK    3  A    between atoms: C_21  and  C_27
REMARK                            x       y       z     vdW  Elec       q    Type
REMARK                         _______ _______ _______ _____ _____    ______ ____
ROOT
ATOM      1  N   UNL     1      31.215 -23.192 -17.308  0.00  0.00    -0.318 N 
ATOM      2  N   UNL     1      33.473 -23.211 -16.888  0.00  0.00    -0.147 NA
ATOM      3  N   UNL     1      34.695 -22.835 -17.344  0.00  0.00    -0.190 N 
ATOM      4  N   UNL     1      36.287 -21.979 -18.589  0.00  0.00    -0.127 NA
ATOM      5  N   UNL     1      36.864 -22.552 -17.474  0.00  0.00    -0.127 NA
ATOM      6  C   UNL     1      32.469 -22.870 -17.663  0.00  0.00    +0.149 C 
ATOM      7  C   UNL     1      32.664 -22.121 -18.954  0.00  0.00    +0.039 C 
ATOM      8  C   UNL     1      34.986 -22.154 -18.501  0.00  0.00    +0.187 A 
ATOM      9  C   UNL     1      33.906 -21.791 -19.327  0.00  0.00    +0.044 C 
ATOM     10  C   UNL     1      35.898 -23.060 -16.742  0.00  0.00    +0.187 A 
ATOM     11  H   UNL     1      30.477 -22.941 -17.911  0.00  0.00    +0.148 HD
ENDROOT
BRANCH   1  12
ATOM     12  C   UNL     1      30.899 -23.893 -16.078  0.00  0.00    +0.070 C 
ATOM     13  C   UNL     1      30.371 -22.906 -15.032  0.00  0.00    +0.020 C 
ATOM     14  C   UNL     1      29.892 -25.014 -16.355  0.00  0.00    +0.020 C 
ATOM     15  C   UNL     1      28.971 -22.387 -15.363  0.00  0.00    +0.002 C 
ATOM     16  C   UNL     1      28.495 -24.486 -16.681  0.00  0.00    +0.002 C 
ATOM     17  C   UNL     1      27.989 -23.528 -15.607  0.00  0.00    +0.000 C 
ENDBRANCH   1  12
BRANCH  10  18
ATOM     18  C   UNL     1      36.055 -23.753 -15.486  0.00  0.00    +0.038 C 
ATOM     19  C   UNL     1      36.674 -23.117 -14.410  0.00  0.00    +0.007 C 
ATOM     20  C   UNL     1      35.588 -25.060 -15.349  0.00  0.00    +0.003 C 
ATOM     21  C   UNL     1      36.826 -23.787 -13.197  0.00  0.00    +0.072 C 
ATOM     22  C   UNL     1      35.741 -25.732 -14.136  0.00  0.00    +0.000 C 
ATOM     23  C   UNL     1      36.360 -25.095 -13.060  0.00  0.00    +0.004 C 
BRANCH  21  27
ATOM     24  F   UNL     1      37.857 -21.820 -12.309  0.00  0.00    -0.166 F 
ATOM     25  F   UNL     1      36.700 -23.031 -10.932  0.00  0.00    -0.166 F 
ATOM     26  F   UNL     1      38.627 -23.743 -11.645  0.00  0.00    -0.166 F 
ATOM     27  C   UNL     1      37.486 -23.108 -12.045  0.00  0.00    +0.419 C 
ENDBRANCH  21  27
ENDBRANCH  10  18
TORSDOF 3
ENDMDL
MODEL 8
REMARK VINA RESULT:      -9.4     12.995     15.764
REMARK  Name = 10361208
REMARK  3 active torsions:
REMARK  status: ('A' for Active; 'I' for Inactive)
REMARK    1  A    between atoms: N_1  and  C_12
REMARK    2  A    between atoms: C_10  and  C_18
REMARK    3  A    between atoms: C_21  and  C_27
REMARK                            x       y       z     vdW  Elec       q    Type
REMARK                         _______ _______ _______ _____ _____    ______ ____
ROOT
ATOM      1  N   UNL     1      32.052 -24.673 -14.310  0.00  0.00    -0.318 N 
ATOM      2  N   UNL     1      34.055 -23.749 -14.952  0.00  0.00    -0.147 NA
ATOM      3  N   UNL     1      35.322 -23.454 -14.565  0.00  0.00    -0.190 N 
ATOM      4  N   UNL     1      37.148 -23.265 -13.362  0.00  0.00    -0.127 NA
ATOM      5  N   UNL     1      37.389 -22.727 -14.609  0.00  0.00    -0.127 NA
ATOM      6  C   UNL     1      33.323 -24.336 -14.034  0.00  0.00    +0.149 C 
ATOM      7  C   UNL     1      33.853 -24.656 -12.662  0.00  0.00    +0.039 C 
ATOM      8  C   UNL     1      35.905 -23.699 -13.346  0.00  0.00    +0.187 A 
ATOM      9  C   UNL     1      35.116 -24.328 -12.366  0.00  0.00    +0.044 C 
ATOM     10  C   UNL     1      36.287 -22.848 -15.315  0.00  0.00    +0.187 A 
ATOM     11  H   UNL     1      31.515 -25.098 -13.602  0.00  0.00    +0.148 HD
ENDROOT
BRANCH   1  12
ATOM     12  C   UNL     1      31.438 -24.436 -15.602  0.00  0.00    +0.070 C 
ATOM     13  C   UNL     1      30.327 -25.462 -15.851  0.00  0.00    +0.020 C 
ATOM     14  C   UNL     1      30.907 -23.001 -15.677  0.00  0.00    +0.020 C 
ATOM     15  C   UNL     1      29.099 -25.229 -14.969  0.00  0.00    +0.002 C 
ATOM     16  C   UNL     1      29.677 -22.779 -14.795  0.00  0.00    +0.002 C 
ATOM     17  C   UNL     1      28.582 -23.800 -15.088  0.00  0.00    +0.000 C 
ENDBRANCH   1  12
BRANCH  10  18
ATOM     18  C   UNL     1      36.097 -22.417 -16.679  0.00  0.00    +0.038 C 
ATOM     19  C   UNL     1      34.910 -22.715 -17.347  0.00  0.00    +0.007 C 
ATOM     20  C   UNL     1      37.103 -21.703 -17.329  0.00  0.00    +0.003 C 
ATOM     21  C   UNL     1      34.728 -22.298 -18.665  0.00  0.00    +0.072 C 
ATOM     22  C   UNL     1      36.922 -21.286 -18.648  0.00  0.00    +0.000 C 
ATOM     23  C   UNL     1      35.734 -21.584 -19.316  0.00  0.00    +0.004 C 
BRANCH  21  27
ATOM     24  F   UNL     1      32.379 -22.737 -18.552  0.00  0.00    -0.166 F 
ATOM     25  F   UNL     1      33.097 -21.670 -20.298  0.00  0.00    -0.166 F 
ATOM     26  F   UNL     1      33.524 -23.790 -20.072  0.00  0.00    -0.166 F 
ATOM     27  C   UNL     1      33.458 -22.615 -19.380  0.00  0.00    +0.419 C 
ENDBRANCH  21  27
ENDBRANCH  10  18
TORSDOF 3
ENDMDL
MODEL 9
REMARK VINA RESULT:      -9.4      3.500      5.135
REMARK  Name = 10361208
REMARK  3 active torsions:
REMARK  status: ('A' for Active; 'I' for Inactive)
REMARK    1  A    between atoms: N_1  and  C_12
REMARK    2  A    between atoms: C_10  and  C_18
REMARK    3  A    between atoms: C_21  and  C_27
REMARK                            x       y       z     vdW  Elec       q    Type
REMARK                         _______ _______ _______ _____ _____    ______ ____
ROOT
ATOM      1  N   UNL     1      32.338  -8.087 -23.313  0.00  0.00    -0.318 N 
ATOM      2  N   UNL     1      32.396 -10.355 -22.948  0.00  0.00    -0.147 NA
ATOM      3  N   UNL     1      32.137 -11.348 -22.061  0.00  0.00    -0.190 N 
ATOM      4  N   UNL     1      31.522 -12.420 -20.247  0.00  0.00    -0.127 NA
ATOM      5  N   UNL     1      31.965 -13.344 -21.172  0.00  0.00    -0.127 NA
ATOM      6  C   UNL     1      32.120  -9.146 -22.517  0.00  0.00    +0.149 C 
ATOM      7  C   UNL     1      31.558  -8.888 -21.144  0.00  0.00    +0.039 C 
ATOM      8  C   UNL     1      31.628 -11.226 -20.791  0.00  0.00    +0.187 A 
ATOM      9  C   UNL     1      31.334  -9.929 -20.333  0.00  0.00    +0.044 C 
ATOM     10  C   UNL     1      32.329 -12.685 -22.249  0.00  0.00    +0.187 A 
ATOM     11  H   UNL     1      32.139  -7.188 -22.965  0.00  0.00    +0.148 HD
ENDROOT
BRANCH   1  12
ATOM     12  C   UNL     1      32.855  -8.211 -24.663  0.00  0.00    +0.070 C 
ATOM     13  C   UNL     1      32.443  -6.994 -25.497  0.00  0.00    +0.020 C 
ATOM     14  C   UNL     1      34.377  -8.382 -24.629  0.00  0.00    +0.020 C 
ATOM     15  C   UNL     1      33.180  -5.719 -25.087  0.00  0.00    +0.002 C 
ATOM     16  C   UNL     1      35.107  -7.101 -24.222  0.00  0.00    +0.002 C 
ATOM     17  C   UNL     1      34.692  -5.916 -25.090  0.00  0.00    +0.000 C 
ENDBRANCH   1  12
BRANCH  10  18
ATOM     18  C   UNL     1      32.855 -13.262 -23.463  0.00  0.00    +0.038 C 
ATOM     19  C   UNL     1      33.232 -14.604 -23.492  0.00  0.00    +0.007 C 
ATOM     20  C   UNL     1      32.986 -12.475 -24.607  0.00  0.00    +0.003 C 
ATOM     21  C   UNL     1      33.740 -15.161 -24.665  0.00  0.00    +0.072 C 
ATOM     22  C   UNL     1      33.495 -13.031 -25.781  0.00  0.00    +0.000 C 
ATOM     23  C   UNL     1      33.872 -14.375 -25.810  0.00  0.00    +0.004 C 
BRANCH  21  27
ATOM     24  F   UNL     1      35.297 -16.826 -25.389  0.00  0.00    -0.166 F 
ATOM     25  F   UNL     1      34.354 -17.134 -23.460  0.00  0.00    -0.166 F 
ATOM     26  F   UNL     1      33.200 -17.392 -25.285  0.00  0.00    -0.166 F 
ATOM     27  C   UNL     1      34.142 -16.597 -24.698  0.00  0.00    +0.419 C 
ENDBRANCH  21  27
ENDBRANCH  10  18
TORSDOF 3
ENDMDL
