MODEL 1
REMARK VINA RESULT:     -12.6      0.000      0.000
REMARK  Name = 46937081
REMARK  6 active torsions:
REMARK  status: ('A' for Active; 'I' for Inactive)
REMARK    1  A    between atoms: N_1  and  C_10
REMARK    2  A    between atoms: C_4  and  C_16
REMARK    3  A    between atoms: C_9  and  C_31
REMARK    4  A    between atoms: C_16  and  C_17
REMARK    5  A    between atoms: C_18  and  N_23
REMARK    6  A    between atoms: C_31  and  N_32
REMARK                            x       y       z     vdW  Elec       q    Type
REMARK                         _______ _______ _______ _____ _____    ______ ____
ROOT
ATOM      1  N   UNL     1      33.914 -23.509 -15.744  0.00  0.00    -0.267 N 
ATOM      2  N   UNL     1      34.911 -23.668 -13.553  0.00  0.00    -0.341 NA
ATOM      3  N   UNL     1      37.274 -23.082 -13.541  0.00  0.00    -0.188 NA
ATOM      4  C   UNL     1      34.331 -23.169 -17.004  0.00  0.00    +0.035 C 
ATOM      5  C   UNL     1      34.966 -23.409 -14.872  0.00  0.00    +0.199 C 
ATOM      6  C   UNL     1      36.080 -22.997 -15.591  0.00  0.00    +0.066 C 
ATOM      7  C   UNL     1      35.670 -22.847 -16.940  0.00  0.00    +0.016 C 
ATOM      8  C   UNL     1      37.265 -22.837 -14.872  0.00  0.00    +0.114 C 
ATOM      9  C   UNL     1      36.114 -23.477 -12.972  0.00  0.00    +0.042 C 
ENDROOT
BRANCH   1  10
ATOM     10  C   UNL     1      32.506 -23.931 -15.365  0.00  0.00    +0.079 C 
ATOM     11  C   UNL     1      32.506 -24.982 -14.240  0.00  0.00    +0.020 C 
ATOM     12  C   UNL     1      31.627 -22.725 -14.992  0.00  0.00    +0.020 C 
ATOM     13  C   UNL     1      31.085 -25.408 -13.874  0.00  0.00    +0.002 C 
ATOM     14  C   UNL     1      30.210 -23.160 -14.623  0.00  0.00    +0.002 C 
ATOM     15  C   UNL     1      30.213 -24.208 -13.513  0.00  0.00    +0.000 C 
ENDBRANCH   1  10
BRANCH   4  16
ATOM     16  C   UNL     1      33.393 -23.180 -18.196  0.00  0.00    +0.068 C 
BRANCH  16  17
ATOM     17  C   UNL     1      33.676 -22.113 -19.199  0.00  0.00    -0.016 C 
ATOM     18  C   UNL     1      34.208 -20.120 -21.077  0.00  0.00    +0.048 C 
ATOM     19  C   UNL     1      34.990 -21.860 -19.595  0.00  0.00    -0.003 C 
ATOM     20  C   UNL     1      32.629 -21.371 -19.742  0.00  0.00    -0.003 C 
ATOM     21  C   UNL     1      35.255 -20.864 -20.534  0.00  0.00    +0.014 C 
ATOM     22  C   UNL     1      32.894 -20.373 -20.681  0.00  0.00    +0.014 C 
BRANCH  18  23
ATOM     23  N   UNL     1      34.474 -19.121 -22.019  0.00  0.00    -0.312 N 
ATOM     24  N   UNL     1      35.268 -17.140 -23.918  0.00  0.00    +0.388 N 
ATOM     25  C   UNL     1      34.605 -19.473 -23.436  0.00  0.00    +0.068 C 
ATOM     26  C   UNL     1      35.241 -17.948 -21.582  0.00  0.00    +0.068 C 
ATOM     27  C   UNL     1      34.999 -16.767 -22.524  0.00  0.00    -0.056 C 
ATOM     28  C   UNL     1      34.384 -18.242 -24.319  0.00  0.00    -0.056 C 
ATOM     29  C   UNL     1      35.086 -15.990 -24.802  0.00  0.00    -0.101 C 
ATOM     30  H   UNL     1      36.236 -17.450 -23.995  0.00  0.00    -0.080 HD
ENDBRANCH  18  23
ENDBRANCH  16  17
ENDBRANCH   4  16
BRANCH   9  31
ATOM     31  C   UNL     1      36.170 -23.737 -11.503  0.00  0.00    +0.030 C 
BRANCH  31  32
ATOM     32  N   UNL     1      35.393 -24.914 -11.117  0.00  0.00    +0.390 N 
ATOM     33  H   UNL     1      35.321 -25.550 -11.912  0.00  0.00    -0.088 HD
ATOM     34  H   UNL     1      34.459 -24.625 -10.828  0.00  0.00    -0.088 HD
ATOM     35  H   UNL     1      35.857 -25.389 -10.342  0.00  0.00    -0.088 HD
ENDBRANCH  31  32
ENDBRANCH   9  31
TORSDOF 6
ENDMDL
MODEL 2
REMARK VINA RESULT:     -11.5      1.726      3.946
REMARK  Name = 46937081
REMARK  6 active torsions:
REMARK  status: ('A' for Active; 'I' for Inactive)
REMARK    1  A    between atoms: N_1  and  C_10
REMARK    2  A    between atoms: C_4  and  C_16
REMARK    3  A    between atoms: C_9  and  C_31
REMARK    4  A    between atoms: C_16  and  C_17
REMARK    5  A    between atoms: C_18  and  N_23
REMARK    6  A    between atoms: C_31  and  N_32
REMARK                            x       y       z     vdW  Elec       q    Type
REMARK                         _______ _______ _______ _____ _____    ______ ____
ROOT
ATOM      1  N   UNL     1      34.162 -23.369 -16.714  0.00  0.00    -0.267 N 
ATOM      2  N   UNL     1      32.551 -24.149 -15.097  0.00  0.00    -0.341 NA
ATOM      3  N   UNL     1      30.250 -23.712 -15.763  0.00  0.00    -0.188 NA
ATOM      4  C   UNL     1      34.126 -22.736 -17.929  0.00  0.00    +0.035 C 
ATOM      5  C   UNL     1      32.884 -23.557 -16.257  0.00  0.00    +0.199 C 
ATOM      6  C   UNL     1      32.011 -23.032 -17.202  0.00  0.00    +0.066 C 
ATOM      7  C   UNL     1      32.806 -22.514 -18.257  0.00  0.00    +0.016 C 
ATOM      8  C   UNL     1      30.650 -23.127 -16.916  0.00  0.00    +0.114 C 
ATOM      9  C   UNL     1      31.212 -24.180 -14.936  0.00  0.00    +0.042 C 
ENDROOT
BRANCH   1  10
ATOM     10  C   UNL     1      35.420 -23.798 -15.981  0.00  0.00    +0.079 C 
ATOM     11  C   UNL     1      35.712 -22.898 -14.767  0.00  0.00    +0.020 C 
ATOM     12  C   UNL     1      35.365 -25.279 -15.567  0.00  0.00    +0.020 C 
ATOM     13  C   UNL     1      36.986 -23.332 -14.043  0.00  0.00    +0.002 C 
ATOM     14  C   UNL     1      36.639 -25.704 -14.839  0.00  0.00    +0.002 C 
ATOM     15  C   UNL     1      36.931 -24.803 -13.642  0.00  0.00    +0.000 C 
ENDBRANCH   1  10
BRANCH   4  16
ATOM     16  C   UNL     1      35.387 -22.387 -18.696  0.00  0.00    +0.068 C 
BRANCH  16  17
ATOM     17  C   UNL     1      35.192 -21.334 -19.733  0.00  0.00    -0.016 C 
ATOM     18  C   UNL     1      34.826 -19.362 -21.673  0.00  0.00    +0.048 C 
ATOM     19  C   UNL     1      33.914 -21.069 -20.227  0.00  0.00    -0.003 C 
ATOM     20  C   UNL     1      36.286 -20.612 -20.209  0.00  0.00    -0.003 C 
ATOM     21  C   UNL     1      33.731 -20.083 -21.196  0.00  0.00    +0.014 C 
ATOM     22  C   UNL     1      36.104 -19.627 -21.179  0.00  0.00    +0.014 C 
BRANCH  18  23
ATOM     23  N   UNL     1      34.643 -18.373 -22.645  0.00  0.00    -0.312 N 
ATOM     24  N   UNL     1      34.523 -16.373 -24.681  0.00  0.00    +0.388 N 
ATOM     25  C   UNL     1      34.418 -18.759 -24.042  0.00  0.00    +0.068 C 
ATOM     26  C   UNL     1      35.300 -17.077 -22.443  0.00  0.00    +0.068 C 
ATOM     27  C   UNL     1      34.608 -15.989 -23.267  0.00  0.00    -0.056 C 
ATOM     28  C   UNL     1      33.754 -17.617 -24.815  0.00  0.00    -0.056 C 
ATOM     29  C   UNL     1      33.909 -15.304 -25.468  0.00  0.00    -0.101 C 
ATOM     30  H   UNL     1      35.465 -16.529 -25.038  0.00  0.00    -0.080 HD
ENDBRANCH  18  23
ENDBRANCH  16  17
ENDBRANCH   4  16
BRANCH   9  31
ATOM     31  C   UNL     1      30.727 -24.817 -13.676  0.00  0.00    +0.030 C 
BRANCH  31  32
ATOM     32  N   UNL     1      29.432 -25.477 -13.851  0.00  0.00    +0.390 N 
ATOM     33  H   UNL     1      29.387 -25.897 -14.780  0.00  0.00    -0.088 HD
ATOM     34  H   UNL     1      28.685 -24.790 -13.752  0.00  0.00    -0.088 HD
ATOM     35  H   UNL     1      29.323 -26.203 -13.143  0.00  0.00    -0.088 HD
ENDBRANCH  31  32
ENDBRANCH   9  31
TORSDOF 6
ENDMDL
MODEL 3
REMARK VINA RESULT:     -10.3      5.185     13.076
REMARK  Name = 46937081
REMARK  6 active torsions:
REMARK  status: ('A' for Active; 'I' for Inactive)
REMARK    1  A    between atoms: N_1  and  C_10
REMARK    2  A    between atoms: C_4  and  C_16
REMARK    3  A    between atoms: C_9  and  C_31
REMARK    4  A    between atoms: C_16  and  C_17
REMARK    5  A    between atoms: C_18  and  N_23
REMARK    6  A    between atoms: C_31  and  N_32
REMARK                            x       y       z     vdW  Elec       q    Type
REMARK                         _______ _______ _______ _____ _____    ______ ____
ROOT
ATOM      1  N   UNL     1      33.376 -11.821 -23.898  0.00  0.00    -0.267 N 
ATOM      2  N   UNL     1      32.606  -9.740 -22.952  0.00  0.00    -0.341 NA
ATOM      3  N   UNL     1      30.926 -10.050 -21.217  0.00  0.00    -0.188 NA
ATOM      4  C   UNL     1      33.116 -13.153 -23.714  0.00  0.00    +0.035 C 
ATOM      5  C   UNL     1      32.604 -11.081 -23.041  0.00  0.00    +0.199 C 
ATOM      6  C   UNL     1      31.833 -11.962 -22.293  0.00  0.00    +0.066 C 
ATOM      7  C   UNL     1      32.163 -13.272 -22.725  0.00  0.00    +0.016 C 
ATOM      8  C   UNL     1      30.970 -11.395 -21.354  0.00  0.00    +0.114 C 
ATOM      9  C   UNL     1      31.735  -9.315 -22.014  0.00  0.00    +0.042 C 
ENDROOT
BRANCH   1  10
ATOM     10  C   UNL     1      34.365 -11.245 -24.895  0.00  0.00    +0.079 C 
ATOM     11  C   UNL     1      33.819 -11.285 -26.333  0.00  0.00    +0.020 C 
ATOM     12  C   UNL     1      34.801  -9.820 -24.512  0.00  0.00    +0.020 C 
ATOM     13  C   UNL     1      34.826 -10.713 -27.330  0.00  0.00    +0.002 C 
ATOM     14  C   UNL     1      35.803  -9.253 -25.515  0.00  0.00    +0.002 C 
ATOM     15  C   UNL     1      35.262  -9.303 -26.942  0.00  0.00    +0.000 C 
ENDBRANCH   1  10
BRANCH   4  16
ATOM     16  C   UNL     1      33.817 -14.232 -24.518  0.00  0.00    +0.068 C 
BRANCH  16  17
ATOM     17  C   UNL     1      34.228 -15.417 -23.711  0.00  0.00    -0.016 C 
ATOM     18  C   UNL     1      34.994 -17.634 -22.202  0.00  0.00    +0.048 C 
ATOM     19  C   UNL     1      34.495 -15.275 -22.349  0.00  0.00    -0.003 C 
ATOM     20  C   UNL     1      34.343 -16.667 -24.318  0.00  0.00    -0.003 C 
ATOM     21  C   UNL     1      34.877 -16.384 -21.595  0.00  0.00    +0.014 C 
ATOM     22  C   UNL     1      34.727 -17.776 -23.564  0.00  0.00    +0.014 C 
BRANCH  18  23
ATOM     23  N   UNL     1      35.378 -18.747 -21.445  0.00  0.00    -0.312 N 
ATOM     24  N   UNL     1      36.198 -21.143 -20.125  0.00  0.00    +0.388 N 
ATOM     25  C   UNL     1      36.799 -18.987 -21.175  0.00  0.00    +0.068 C 
ATOM     26  C   UNL     1      34.531 -19.944 -21.500  0.00  0.00    +0.068 C 
ATOM     27  C   UNL     1      34.772 -20.829 -20.275  0.00  0.00    -0.056 C 
ATOM     28  C   UNL     1      36.967 -19.904 -19.961  0.00  0.00    -0.056 C 
ATOM     29  C   UNL     1      36.409 -22.033 -18.984  0.00  0.00    -0.101 C 
ATOM     30  H   UNL     1      36.520 -21.622 -20.965  0.00  0.00    -0.080 HD
ENDBRANCH  18  23
ENDBRANCH  16  17
ENDBRANCH   4  16
BRANCH   9  31
ATOM     31  C   UNL     1      31.653  -7.836 -21.829  0.00  0.00    +0.030 C 
BRANCH  31  32
ATOM     32  N   UNL     1      32.676  -7.334 -20.912  0.00  0.00    +0.390 N 
ATOM     33  H   UNL     1      33.544  -7.851 -21.055  0.00  0.00    -0.088 HD
ATOM     34  H   UNL     1      32.361  -7.458 -19.950  0.00  0.00    -0.088 HD
ATOM     35  H   UNL     1      32.837  -6.343 -21.092  0.00  0.00    -0.088 HD
ENDBRANCH  31  32
ENDBRANCH   9  31
TORSDOF 6
ENDMDL
