MODEL 1
REMARK VINA RESULT:     -11.6      0.000      0.000
REMARK  Name = 49831257
REMARK  4 active torsions:
REMARK  status: ('A' for Active; 'I' for Inactive)
REMARK    1  A    between atoms: C_1  and  C_23
REMARK    2  A    between atoms: C_4  and  C_14
REMARK    3  A    between atoms: C_12  and  C_20
REMARK    4  A    between atoms: C_23  and  N_27
REMARK                            x       y       z     vdW  Elec       q    Type
REMARK                         _______ _______ _______ _____ _____    ______ ____
ROOT
ATOM      1  C   UNL     1      35.306 -20.564 -20.978  0.00  0.00    -0.043 C 
ATOM      2  C   UNL     1      33.919 -20.559 -20.837  0.00  0.00    -0.006 C 
ATOM      3  C   UNL     1      36.098 -21.264 -20.068  0.00  0.00    -0.006 C 
ATOM      4  C   UNL     1      34.115 -21.952 -18.873  0.00  0.00    +0.016 C 
ATOM      5  C   UNL     1      33.323 -21.252 -19.784  0.00  0.00    +0.001 C 
ATOM      6  C   UNL     1      35.503 -21.958 -19.015  0.00  0.00    +0.001 C 
ENDROOT
BRANCH   4  14
ATOM      7  O   UNL     1      36.446 -25.721 -13.077  0.00  0.00    -0.274 OA
ATOM      8  N   UNL     1      36.978 -24.445 -14.988  0.00  0.00    -0.217 N 
ATOM      9  N   UNL     1      34.252 -23.329 -16.768  0.00  0.00    -0.152 N 
ATOM     10  N   UNL     1      35.604 -23.386 -16.631  0.00  0.00    -0.092 NA
ATOM     11  N   UNL     1      34.608 -24.539 -14.931  0.00  0.00    -0.319 NA
ATOM     12  C   UNL     1      37.254 -25.201 -13.834  0.00  0.00    +0.234 C 
ATOM     13  C   UNL     1      35.753 -24.117 -15.528  0.00  0.00    +0.167 C 
ATOM     14  C   UNL     1      33.486 -22.684 -17.760  0.00  0.00    +0.077 C 
ATOM     15  C   UNL     1      33.672 -24.041 -15.708  0.00  0.00    +0.219 C 
ATOM     16  C   UNL     1      32.139 -22.759 -17.681  0.00  0.00    +0.017 C 
ATOM     17  C   UNL     1      32.254 -24.105 -15.646  0.00  0.00    +0.051 C 
ATOM     18  C   UNL     1      31.519 -23.491 -16.590  0.00  0.00    +0.005 C 
ATOM     19  H   UNL     1      37.765 -24.105 -15.474  0.00  0.00    +0.167 HD
BRANCH  12  20
ATOM     20  C   UNL     1      38.712 -25.364 -13.537  0.00  0.00    +0.077 C 
ATOM     21  C   UNL     1      39.717 -24.964 -14.577  0.00  0.00    +0.010 C 
ATOM     22  C   UNL     1      39.494 -26.416 -14.268  0.00  0.00    +0.010 C 
ENDBRANCH  12  20
ENDBRANCH   4  14
BRANCH   1  23
ATOM     23  C   UNL     1      35.950 -19.816 -22.116  0.00  0.00    -0.050 C 
BRANCH  23  27
ATOM     24  S   UNL     1      34.100 -16.645 -24.744  0.00  0.00    -0.014 S 
ATOM     25  O   UNL     1      32.902 -15.856 -24.947  0.00  0.00    -0.173 OA
ATOM     26  O   UNL     1      35.248 -16.499 -25.618  0.00  0.00    -0.173 OA
ATOM     27  N   UNL     1      35.034 -18.840 -22.714  0.00  0.00    +0.392 N 
ATOM     28  C   UNL     1      34.727 -19.226 -24.102  0.00  0.00    -0.051 C 
ATOM     29  C   UNL     1      35.622 -17.492 -22.637  0.00  0.00    -0.051 C 
ATOM     30  C   UNL     1      34.638 -16.409 -23.068  0.00  0.00    +0.128 C 
ATOM     31  C   UNL     1      33.633 -18.359 -24.713  0.00  0.00    +0.128 C 
ATOM     32  H   UNL     1      34.156 -18.826 -22.194  0.00  0.00    -0.079 HD
ENDBRANCH  23  27
ENDBRANCH   1  23
TORSDOF 4
ENDMDL
MODEL 2
REMARK VINA RESULT:     -10.7      4.747     11.195
REMARK  Name = 49831257
REMARK  4 active torsions:
REMARK  status: ('A' for Active; 'I' for Inactive)
REMARK    1  A    between atoms: C_1  and  C_23
REMARK    2  A    between atoms: C_4  and  C_14
REMARK    3  A    between atoms: C_12  and  C_20
REMARK    4  A    between atoms: C_23  and  N_27
REMARK                            x       y       z     vdW  Elec       q    Type
REMARK                         _______ _______ _______ _____ _____    ______ ____
ROOT
ATOM      1  C   UNL     1      35.836 -18.882 -21.702  0.00  0.00    -0.043 C 
ATOM      2  C   UNL     1      35.670 -19.043 -23.077  0.00  0.00    -0.006 C 
ATOM      3  C   UNL     1      35.462 -17.686 -21.089  0.00  0.00    -0.006 C 
ATOM      4  C   UNL     1      34.758 -16.811 -23.228  0.00  0.00    +0.016 C 
ATOM      5  C   UNL     1      35.132 -18.007 -23.840  0.00  0.00    +0.001 C 
ATOM      6  C   UNL     1      34.923 -16.650 -21.852  0.00  0.00    +0.001 C 
ENDROOT
BRANCH   4  14
ATOM      7  O   UNL     1      31.147 -10.616 -21.879  0.00  0.00    -0.274 OA
ATOM      8  N   UNL     1      32.209 -12.545 -21.033  0.00  0.00    -0.217 N 
ATOM      9  N   UNL     1      33.527 -14.623 -23.440  0.00  0.00    -0.152 N 
ATOM     10  N   UNL     1      33.312 -14.364 -22.121  0.00  0.00    -0.092 NA
ATOM     11  N   UNL     1      32.415 -12.693 -23.393  0.00  0.00    -0.319 NA
ATOM     12  C   UNL     1      31.508 -11.329 -20.952  0.00  0.00    +0.234 C 
ATOM     13  C   UNL     1      32.648 -13.211 -22.158  0.00  0.00    +0.167 C 
ATOM     14  C   UNL     1      34.190 -15.717 -24.034  0.00  0.00    +0.077 C 
ATOM     15  C   UNL     1      32.969 -13.579 -24.191  0.00  0.00    +0.219 C 
ATOM     16  C   UNL     1      34.289 -15.752 -25.380  0.00  0.00    +0.017 C 
ATOM     17  C   UNL     1      33.086 -13.639 -25.606  0.00  0.00    +0.051 C 
ATOM     18  C   UNL     1      33.719 -14.679 -26.176  0.00  0.00    +0.005 C 
ATOM     19  H   UNL     1      32.414 -12.979 -20.173  0.00  0.00    +0.167 HD
BRANCH  12  20
ATOM     20  C   UNL     1      31.187 -10.894 -19.556  0.00  0.00    +0.077 C 
ATOM     21  C   UNL     1      30.827  -9.459 -19.304  0.00  0.00    +0.010 C 
ATOM     22  C   UNL     1      32.146  -9.996 -18.830  0.00  0.00    +0.010 C 
ENDBRANCH  12  20
ENDBRANCH   4  14
BRANCH   1  23
ATOM     23  C   UNL     1      36.416 -20.001 -20.877  0.00  0.00    -0.050 C 
BRANCH  23  27
ATOM     24  S   UNL     1      33.508 -22.766 -18.807  0.00  0.00    -0.014 S 
ATOM     25  O   UNL     1      32.578 -22.858 -17.699  0.00  0.00    -0.173 OA
ATOM     26  O   UNL     1      33.719 -23.887 -19.702  0.00  0.00    -0.173 OA
ATOM     27  N   UNL     1      35.424 -20.573 -19.961  0.00  0.00    +0.392 N 
ATOM     28  C   UNL     1      35.998 -21.737 -19.265  0.00  0.00    -0.051 C 
ATOM     29  C   UNL     1      34.203 -20.926 -20.705  0.00  0.00    -0.051 C 
ATOM     30  C   UNL     1      33.067 -21.347 -19.780  0.00  0.00    +0.128 C 
ATOM     31  C   UNL     1      35.084 -22.258 -18.162  0.00  0.00    +0.128 C 
ATOM     32  H   UNL     1      35.169 -19.884 -19.254  0.00  0.00    -0.079 HD
ENDBRANCH  23  27
ENDBRANCH   1  23
TORSDOF 4
ENDMDL
MODEL 3
REMARK VINA RESULT:     -10.1      2.512      5.022
REMARK  Name = 49831257
REMARK  4 active torsions:
REMARK  status: ('A' for Active; 'I' for Inactive)
REMARK    1  A    between atoms: C_1  and  C_23
REMARK    2  A    between atoms: C_4  and  C_14
REMARK    3  A    between atoms: C_12  and  C_20
REMARK    4  A    between atoms: C_23  and  N_27
REMARK                            x       y       z     vdW  Elec       q    Type
REMARK                         _______ _______ _______ _____ _____    ______ ____
ROOT
ATOM      1  C   UNL     1      35.140 -20.334 -21.558  0.00  0.00    -0.043 C 
ATOM      2  C   UNL     1      33.884 -20.596 -21.010  0.00  0.00    -0.006 C 
ATOM      3  C   UNL     1      36.292 -20.741 -20.886  0.00  0.00    -0.006 C 
ATOM      4  C   UNL     1      34.934 -21.670 -19.118  0.00  0.00    +0.016 C 
ATOM      5  C   UNL     1      33.781 -21.263 -19.790  0.00  0.00    +0.001 C 
ATOM      6  C   UNL     1      36.190 -21.408 -19.666  0.00  0.00    +0.001 C 
ENDROOT
BRANCH   4  14
ATOM      7  O   UNL     1      29.518 -24.366 -15.041  0.00  0.00    -0.274 OA
ATOM      8  N   UNL     1      30.185 -23.264 -17.016  0.00  0.00    -0.217 N 
ATOM      9  N   UNL     1      33.580 -22.770 -17.301  0.00  0.00    -0.152 N 
ATOM     10  N   UNL     1      32.337 -22.621 -17.834  0.00  0.00    -0.092 NA
ATOM     11  N   UNL     1      32.190 -23.685 -15.819  0.00  0.00    -0.319 NA
ATOM     12  C   UNL     1      29.269 -23.831 -16.112  0.00  0.00    +0.234 C 
ATOM     13  C   UNL     1      31.557 -23.179 -16.909  0.00  0.00    +0.167 C 
ATOM     14  C   UNL     1      34.826 -22.373 -17.828  0.00  0.00    +0.077 C 
ATOM     15  C   UNL     1      33.455 -23.429 -16.069  0.00  0.00    +0.219 C 
ATOM     16  C   UNL     1      35.940 -22.642 -17.113  0.00  0.00    +0.017 C 
ATOM     17  C   UNL     1      34.642 -23.701 -15.337  0.00  0.00    +0.051 C 
ATOM     18  C   UNL     1      35.832 -23.326 -15.836  0.00  0.00    +0.005 C 
ATOM     19  H   UNL     1      29.796 -22.877 -17.834  0.00  0.00    +0.167 HD
BRANCH  12  20
ATOM     20  C   UNL     1      27.840 -23.749 -16.549  0.00  0.00    +0.077 C 
ATOM     21  C   UNL     1      27.444 -22.707 -17.554  0.00  0.00    +0.010 C 
ATOM     22  C   UNL     1      27.012 -22.571 -16.123  0.00  0.00    +0.010 C 
ENDBRANCH  12  20
ENDBRANCH   4  14
BRANCH   1  23
ATOM     23  C   UNL     1      35.251 -19.615 -22.876  0.00  0.00    -0.050 C 
BRANCH  23  27
ATOM     24  S   UNL     1      34.211 -15.248 -23.361  0.00  0.00    -0.014 S 
ATOM     25  O   UNL     1      33.181 -14.262 -23.104  0.00  0.00    -0.173 OA
ATOM     26  O   UNL     1      35.452 -14.880 -24.014  0.00  0.00    -0.173 OA
ATOM     27  N   UNL     1      34.568 -18.318 -22.849  0.00  0.00    +0.392 N 
ATOM     28  C   UNL     1      34.350 -17.838 -24.224  0.00  0.00    -0.051 C 
ATOM     29  C   UNL     1      35.351 -17.359 -22.051  0.00  0.00    -0.051 C 
ATOM     30  C   UNL     1      34.602 -16.050 -21.825  0.00  0.00    +0.128 C 
ATOM     31  C   UNL     1      33.477 -16.589 -24.267  0.00  0.00    +0.128 C 
ATOM     32  H   UNL     1      33.655 -18.417 -22.406  0.00  0.00    -0.079 HD
ENDBRANCH  23  27
ENDBRANCH   1  23
TORSDOF 4
ENDMDL
MODEL 4
REMARK VINA RESULT:      -9.5      7.976     14.922
REMARK  Name = 49831257
REMARK  4 active torsions:
REMARK  status: ('A' for Active; 'I' for Inactive)
REMARK    1  A    between atoms: C_1  and  C_23
REMARK    2  A    between atoms: C_4  and  C_14
REMARK    3  A    between atoms: C_12  and  C_20
REMARK    4  A    between atoms: C_23  and  N_27
REMARK                            x       y       z     vdW  Elec       q    Type
REMARK                         _______ _______ _______ _____ _____    ______ ____
ROOT
ATOM      1  C   UNL     1      33.505 -13.827 -24.253  0.00  0.00    -0.043 C 
ATOM      2  C   UNL     1      33.954 -12.579 -24.684  0.00  0.00    -0.006 C 
ATOM      3  C   UNL     1      32.649 -13.919 -23.155  0.00  0.00    -0.006 C 
ATOM      4  C   UNL     1      32.693 -11.516 -22.919  0.00  0.00    +0.016 C 
ATOM      5  C   UNL     1      33.549 -11.423 -24.017  0.00  0.00    +0.001 C 
ATOM      6  C   UNL     1      32.243 -12.764 -22.488  0.00  0.00    +0.001 C 
ENDROOT
BRANCH   4  14
ATOM      7  O   UNL     1      32.844  -4.345 -24.256  0.00  0.00    -0.274 OA
ATOM      8  N   UNL     1      33.329  -6.534 -24.989  0.00  0.00    -0.217 N 
ATOM      9  N   UNL     1      32.449  -9.013 -22.769  0.00  0.00    -0.152 N 
ATOM     10  N   UNL     1      32.987  -8.668 -23.971  0.00  0.00    -0.092 NA
ATOM     11  N   UNL     1      32.343  -6.789 -22.846  0.00  0.00    -0.319 NA
ATOM     12  C   UNL     1      33.282  -5.131 -25.085  0.00  0.00    +0.234 C 
ATOM     13  C   UNL     1      32.899  -7.339 -23.956  0.00  0.00    +0.167 C 
ATOM     14  C   UNL     1      32.266 -10.295 -22.213  0.00  0.00    +0.077 C 
ATOM     15  C   UNL     1      32.061  -7.839 -22.107  0.00  0.00    +0.219 C 
ATOM     16  C   UNL     1      31.693 -10.390 -20.994  0.00  0.00    +0.017 C 
ATOM     17  C   UNL     1      31.460  -7.965 -20.826  0.00  0.00    +0.051 C 
ATOM     18  C   UNL     1      31.282  -9.186 -20.292  0.00  0.00    +0.005 C 
ATOM     19  H   UNL     1      33.721  -7.002 -25.762  0.00  0.00    +0.167 HD
BRANCH  12  20
ATOM     20  C   UNL     1      33.843  -4.580 -26.359  0.00  0.00    +0.077 C 
ATOM     21  C   UNL     1      33.823  -3.097 -26.583  0.00  0.00    +0.010 C 
ATOM     22  C   UNL     1      32.908  -3.987 -27.373  0.00  0.00    +0.010 C 
ENDBRANCH  12  20
ENDBRANCH   4  14
BRANCH   1  23
ATOM     23  C   UNL     1      33.941 -15.075 -24.975  0.00  0.00    -0.050 C 
BRANCH  23  27
ATOM     24  S   UNL     1      35.251 -18.706 -22.632  0.00  0.00    -0.014 S 
ATOM     25  O   UNL     1      34.800 -19.700 -21.680  0.00  0.00    -0.173 OA
ATOM     26  O   UNL     1      36.608 -18.719 -23.142  0.00  0.00    -0.173 OA
ATOM     27  N   UNL     1      33.979 -16.235 -24.080  0.00  0.00    +0.392 N 
ATOM     28  C   UNL     1      34.973 -16.013 -23.015  0.00  0.00    -0.051 C 
ATOM     29  C   UNL     1      34.269 -17.454 -24.855  0.00  0.00    -0.051 C 
ATOM     30  C   UNL     1      34.134 -18.718 -24.013  0.00  0.00    +0.128 C 
ATOM     31  C   UNL     1      34.925 -17.099 -21.946  0.00  0.00    +0.128 C 
ATOM     32  H   UNL     1      33.070 -16.359 -23.635  0.00  0.00    -0.079 HD
ENDBRANCH  23  27
ENDBRANCH   1  23
TORSDOF 4
ENDMDL
MODEL 5
REMARK VINA RESULT:      -9.4      7.203     13.591
REMARK  Name = 49831257
REMARK  4 active torsions:
REMARK  status: ('A' for Active; 'I' for Inactive)
REMARK    1  A    between atoms: C_1  and  C_23
REMARK    2  A    between atoms: C_4  and  C_14
REMARK    3  A    between atoms: C_12  and  C_20
REMARK    4  A    between atoms: C_23  and  N_27
REMARK                            x       y       z     vdW  Elec       q    Type
REMARK                         _______ _______ _______ _____ _____    ______ ____
ROOT
ATOM      1  C   UNL     1      34.240 -15.297 -24.062  0.00  0.00    -0.043 C 
ATOM      2  C   UNL     1      34.644 -14.917 -22.782  0.00  0.00    -0.006 C 
ATOM      3  C   UNL     1      33.180 -14.637 -24.683  0.00  0.00    -0.006 C 
ATOM      4  C   UNL     1      32.927 -13.217 -22.745  0.00  0.00    +0.016 C 
ATOM      5  C   UNL     1      33.987 -13.877 -22.123  0.00  0.00    +0.001 C 
ATOM      6  C   UNL     1      32.522 -13.597 -24.026  0.00  0.00    +0.001 C 
ENDROOT
BRANCH   4  14
ATOM      7  O   UNL     1      32.121  -6.035 -23.744  0.00  0.00    -0.274 OA
ATOM      8  N   UNL     1      33.027  -8.077 -24.500  0.00  0.00    -0.217 N 
ATOM      9  N   UNL     1      32.279 -10.793 -22.522  0.00  0.00    -0.152 N 
ATOM     10  N   UNL     1      32.900 -10.298 -23.627  0.00  0.00    -0.092 NA
ATOM     11  N   UNL     1      31.838  -8.609 -22.516  0.00  0.00    -0.319 NA
ATOM     12  C   UNL     1      32.775  -6.694 -24.541  0.00  0.00    +0.234 C 
ATOM     13  C   UNL     1      32.605  -9.001 -23.568  0.00  0.00    +0.167 C 
ATOM     14  C   UNL     1      32.232 -12.121 -22.049  0.00  0.00    +0.077 C 
ATOM     15  C   UNL     1      31.636  -9.734 -21.867  0.00  0.00    +0.219 C 
ATOM     16  C   UNL     1      31.536 -12.375 -20.920  0.00  0.00    +0.017 C 
ATOM     17  C   UNL     1      30.909 -10.027 -20.681  0.00  0.00    +0.051 C 
ATOM     18  C   UNL     1      30.860 -11.292 -20.228  0.00  0.00    +0.005 C 
ATOM     19  H   UNL     1      33.579  -8.434 -25.235  0.00  0.00    +0.167 HD
BRANCH  12  20
ATOM     20  C   UNL     1      33.394  -5.988 -25.706  0.00  0.00    +0.077 C 
ATOM     21  C   UNL     1      34.869  -5.710 -25.690  0.00  0.00    +0.010 C 
ATOM     22  C   UNL     1      33.890  -4.582 -25.530  0.00  0.00    +0.010 C 
ENDBRANCH  12  20
ENDBRANCH   4  14
BRANCH   1  23
ATOM     23  C   UNL     1      34.950 -16.418 -24.774  0.00  0.00    -0.050 C 
BRANCH  23  27
ATOM     24  S   UNL     1      34.786 -19.706 -21.683  0.00  0.00    -0.014 S 
ATOM     25  O   UNL     1      35.590 -20.694 -20.993  0.00  0.00    -0.173 OA
ATOM     26  O   UNL     1      33.369 -19.571 -21.410  0.00  0.00    -0.173 OA
ATOM     27  N   UNL     1      35.296 -17.510 -23.859  0.00  0.00    +0.392 N 
ATOM     28  C   UNL     1      34.544 -18.724 -24.223  0.00  0.00    -0.051 C 
ATOM     29  C   UNL     1      35.036 -17.099 -22.469  0.00  0.00    -0.051 C 
ATOM     30  C   UNL     1      35.553 -18.119 -21.461  0.00  0.00    +0.128 C 
ATOM     31  C   UNL     1      35.001 -19.944 -23.431  0.00  0.00    +0.128 C 
ATOM     32  H   UNL     1      36.290 -17.726 -23.939  0.00  0.00    -0.079 HD
ENDBRANCH  23  27
ENDBRANCH   1  23
TORSDOF 4
ENDMDL
