MODEL 1
REMARK VINA RESULT:     -11.8      0.000      0.000
REMARK  Name = 11224409
REMARK  8 active torsions:
REMARK  status: ('A' for Active; 'I' for Inactive)
REMARK    1  A    between atoms: C_2  and  N_10
REMARK    2  A    between atoms: C_5  and  C_20
REMARK    3  A    between atoms: C_11  and  C_14
REMARK    4  A    between atoms: C_14  and  N_16
REMARK    5  A    between atoms: C_21  and  C_26
REMARK    6  A    between atoms: C_26  and  N_27
REMARK    7  A    between atoms: N_27  and  C_30
REMARK    8  A    between atoms: C_30  and  C_34
REMARK                            x       y       z     vdW  Elec       q    Type
REMARK                         _______ _______ _______ _____ _____    ______ ____
ROOT
ATOM      1  F   UNL     1      37.098 -21.087 -18.129  0.00  0.00    -0.204 F 
ATOM      2  C   UNL     1      35.421 -23.640 -16.161  0.00  0.00    +0.059 C 
ATOM      3  C   UNL     1      36.387 -22.730 -16.591  0.00  0.00    +0.045 C 
ATOM      4  C   UNL     1      34.227 -23.775 -16.869  0.00  0.00    +0.015 C 
ATOM      5  C   UNL     1      34.966 -22.092 -18.436  0.00  0.00    +0.028 C 
ATOM      6  C   UNL     1      36.160 -21.957 -17.729  0.00  0.00    +0.141 C 
ATOM      7  C   UNL     1      33.998 -23.001 -18.007  0.00  0.00    +0.004 C 
ENDROOT
BRANCH   2  10
ATOM      8  O   UNL     1      36.106 -26.166 -13.629  0.00  0.00    -0.434 OA
ATOM      9  O   UNL     1      36.082 -26.594 -15.857  0.00  0.00    -0.226 OA
ATOM     10  N   UNL     1      35.654 -24.430 -14.999  0.00  0.00    -0.221 N 
ATOM     11  C   UNL     1      36.118 -24.994 -12.803  0.00  0.00    +0.210 C 
ATOM     12  C   UNL     1      35.486 -23.922 -13.664  0.00  0.00    +0.147 C 
ATOM     13  C   UNL     1      35.964 -25.787 -14.945  0.00  0.00    +0.409 C 
BRANCH  11  14
ATOM     14  C   UNL     1      37.556 -24.682 -12.414  0.00  0.00    +0.135 C 
BRANCH  14  16
ATOM     15  O   UNL     1      39.061 -24.261 -14.862  0.00  0.00    -0.275 OA
ATOM     16  N   UNL     1      38.471 -25.590 -13.042  0.00  0.00    -0.301 N 
ATOM     17  C   UNL     1      39.152 -25.304 -14.220  0.00  0.00    +0.223 C 
ATOM     18  C   UNL     1      40.067 -26.421 -14.646  0.00  0.00    +0.095 C 
ATOM     19  H   UNL     1      38.625 -26.464 -12.615  0.00  0.00    +0.150 HD
ENDBRANCH  14  16
ENDBRANCH  11  14
ENDBRANCH   2  10
BRANCH   5  20
ATOM     20  C   UNL     1      34.725 -21.291 -19.618  0.00  0.00    +0.002 C 
ATOM     21  C   UNL     1      34.261 -19.750 -21.896  0.00  0.00    -0.044 C 
ATOM     22  C   UNL     1      35.800 -20.767 -20.335  0.00  0.00    -0.000 C 
ATOM     23  C   UNL     1      33.418 -21.046 -20.040  0.00  0.00    -0.000 C 
ATOM     24  C   UNL     1      35.568 -19.996 -21.475  0.00  0.00    -0.006 C 
ATOM     25  C   UNL     1      33.186 -20.275 -21.178  0.00  0.00    -0.006 C 
BRANCH  21  26
ATOM     26  C   UNL     1      34.014 -18.927 -23.115  0.00  0.00    -0.054 C 
BRANCH  26  27
ATOM     27  N   UNL     1      34.905 -17.768 -23.195  0.00  0.00    +0.390 N 
ATOM     28  H   UNL     1      35.850 -18.053 -22.940  0.00  0.00    -0.083 HD
ATOM     29  H   UNL     1      34.567 -17.050 -22.555  0.00  0.00    -0.083 HD
BRANCH  27  30
ATOM     30  C   UNL     1      34.918 -17.223 -24.543  0.00  0.00    -0.031 C 
BRANCH  30  34
ATOM     31  N   UNL     1      33.499 -15.591 -25.747  0.00  0.00    -0.170 NA
ATOM     32  N   UNL     1      32.983 -14.404 -25.390  0.00  0.00    -0.157 N 
ATOM     33  N   UNL     1      33.240 -13.939 -24.156  0.00  0.00    -0.162 NA
ATOM     34  C   UNL     1      34.154 -15.928 -24.632  0.00  0.00    +0.077 C 
ATOM     35  C   UNL     1      33.997 -14.924 -23.666  0.00  0.00    +0.133 C 
ATOM     36  H   UNL     1      32.430 -13.886 -26.018  0.00  0.00    +0.197 HD
ENDBRANCH  30  34
ENDBRANCH  27  30
ENDBRANCH  26  27
ENDBRANCH  21  26
ENDBRANCH   5  20
TORSDOF 8
ENDMDL
MODEL 2
REMARK VINA RESULT:     -11.6      4.570     11.759
REMARK  Name = 11224409
REMARK  8 active torsions:
REMARK  status: ('A' for Active; 'I' for Inactive)
REMARK    1  A    between atoms: C_2  and  N_10
REMARK    2  A    between atoms: C_5  and  C_20
REMARK    3  A    between atoms: C_11  and  C_14
REMARK    4  A    between atoms: C_14  and  N_16
REMARK    5  A    between atoms: C_21  and  C_26
REMARK    6  A    between atoms: C_26  and  N_27
REMARK    7  A    between atoms: N_27  and  C_30
REMARK    8  A    between atoms: C_30  and  C_34
REMARK                            x       y       z     vdW  Elec       q    Type
REMARK                         _______ _______ _______ _____ _____    ______ ____
ROOT
ATOM      1  F   UNL     1      32.256 -20.905 -20.327  0.00  0.00    -0.204 F 
ATOM      2  C   UNL     1      34.658 -19.059 -22.336  0.00  0.00    +0.059 C 
ATOM      3  C   UNL     1      33.445 -19.555 -21.857  0.00  0.00    +0.045 C 
ATOM      4  C   UNL     1      35.855 -19.447 -21.734  0.00  0.00    +0.015 C 
ATOM      5  C   UNL     1      34.627 -20.824 -20.176  0.00  0.00    +0.028 C 
ATOM      6  C   UNL     1      33.430 -20.438 -20.777  0.00  0.00    +0.141 C 
ATOM      7  C   UNL     1      35.840 -20.329 -20.654  0.00  0.00    +0.004 C 
ENDROOT
BRANCH   2  10
ATOM      8  O   UNL     1      34.404 -17.263 -25.493  0.00  0.00    -0.434 OA
ATOM      9  O   UNL     1      33.686 -19.395 -25.199  0.00  0.00    -0.226 OA
ATOM     10  N   UNL     1      34.673 -18.159 -23.439  0.00  0.00    -0.221 N 
ATOM     11  C   UNL     1      34.818 -16.187 -24.642  0.00  0.00    +0.210 C 
ATOM     12  C   UNL     1      35.312 -16.872 -23.385  0.00  0.00    +0.147 C 
ATOM     13  C   UNL     1      34.195 -18.388 -24.727  0.00  0.00    +0.409 C 
BRANCH  11  14
ATOM     14  C   UNL     1      33.629 -15.268 -24.397  0.00  0.00    +0.135 C 
BRANCH  14  16
ATOM     15  O   UNL     1      34.136 -12.410 -24.458  0.00  0.00    -0.275 OA
ATOM     16  N   UNL     1      33.432 -14.372 -25.498  0.00  0.00    -0.301 N 
ATOM     17  C   UNL     1      33.702 -13.009 -25.438  0.00  0.00    +0.223 C 
ATOM     18  C   UNL     1      33.429 -12.307 -26.742  0.00  0.00    +0.095 C 
ATOM     19  H   UNL     1      33.085 -14.742 -26.342  0.00  0.00    +0.150 HD
ENDBRANCH  14  16
ENDBRANCH  11  14
ENDBRANCH   2  10
BRANCH   5  20
ATOM     20  C   UNL     1      34.616 -21.740 -19.055  0.00  0.00    +0.002 C 
ATOM     21  C   UNL     1      34.595 -23.502 -16.893  0.00  0.00    -0.044 C 
ATOM     22  C   UNL     1      35.750 -21.876 -18.255  0.00  0.00    -0.000 C 
ATOM     23  C   UNL     1      33.471 -22.485 -18.773  0.00  0.00    -0.000 C 
ATOM     24  C   UNL     1      35.740 -22.757 -17.173  0.00  0.00    -0.006 C 
ATOM     25  C   UNL     1      33.460 -23.367 -17.693  0.00  0.00    -0.006 C 
BRANCH  21  26
ATOM     26  C   UNL     1      34.584 -24.444 -15.736  0.00  0.00    -0.054 C 
BRANCH  26  27
ATOM     27  N   UNL     1      35.853 -24.447 -15.007  0.00  0.00    +0.390 N 
ATOM     28  H   UNL     1      35.689 -24.143 -14.047  0.00  0.00    -0.083 HD
ATOM     29  H   UNL     1      36.501 -23.813 -15.473  0.00  0.00    -0.083 HD
BRANCH  27  30
ATOM     30  C   UNL     1      36.433 -25.780 -14.992  0.00  0.00    -0.031 C 
BRANCH  30  34
ATOM     31  N   UNL     1      38.638 -26.849 -14.644  0.00  0.00    -0.170 NA
ATOM     32  N   UNL     1      39.887 -26.358 -14.617  0.00  0.00    -0.157 N 
ATOM     33  N   UNL     1      40.062 -25.040 -14.806  0.00  0.00    -0.162 NA
ATOM     34  C   UNL     1      37.934 -25.737 -14.875  0.00  0.00    +0.077 C 
ATOM     35  C   UNL     1      38.799 -24.639 -14.973  0.00  0.00    +0.133 C 
ATOM     36  H   UNL     1      40.658 -26.951 -14.460  0.00  0.00    +0.197 HD
ENDBRANCH  30  34
ENDBRANCH  27  30
ENDBRANCH  26  27
ENDBRANCH  21  26
ENDBRANCH   5  20
TORSDOF 8
ENDMDL
MODEL 3
REMARK VINA RESULT:     -11.5      3.006      4.720
REMARK  Name = 11224409
REMARK  8 active torsions:
REMARK  status: ('A' for Active; 'I' for Inactive)
REMARK    1  A    between atoms: C_2  and  N_10
REMARK    2  A    between atoms: C_5  and  C_20
REMARK    3  A    between atoms: C_11  and  C_14
REMARK    4  A    between atoms: C_14  and  N_16
REMARK    5  A    between atoms: C_21  and  C_26
REMARK    6  A    between atoms: C_26  and  N_27
REMARK    7  A    between atoms: N_27  and  C_30
REMARK    8  A    between atoms: C_30  and  C_34
REMARK                            x       y       z     vdW  Elec       q    Type
REMARK                         _______ _______ _______ _____ _____    ______ ____
ROOT
ATOM      1  F   UNL     1      32.162 -20.156 -21.097  0.00  0.00    -0.204 F 
ATOM      2  C   UNL     1      34.403 -21.999 -18.908  0.00  0.00    +0.059 C 
ATOM      3  C   UNL     1      33.231 -21.532 -19.504  0.00  0.00    +0.045 C 
ATOM      4  C   UNL     1      35.642 -21.528 -19.345  0.00  0.00    +0.015 C 
ATOM      5  C   UNL     1      34.536 -20.125 -20.971  0.00  0.00    +0.028 C 
ATOM      6  C   UNL     1      33.297 -20.595 -20.535  0.00  0.00    +0.141 C 
ATOM      7  C   UNL     1      35.708 -20.591 -20.377  0.00  0.00    +0.004 C 
ENDROOT
BRANCH   2  10
ATOM      8  O   UNL     1      34.848 -24.224 -16.061  0.00  0.00    -0.434 OA
ATOM      9  O   UNL     1      36.415 -22.735 -16.748  0.00  0.00    -0.226 OA
ATOM     10  N   UNL     1      34.335 -22.954 -17.856  0.00  0.00    -0.221 N 
ATOM     11  C   UNL     1      33.460 -24.461 -16.332  0.00  0.00    +0.210 C 
ATOM     12  C   UNL     1      33.242 -23.879 -17.712  0.00  0.00    +0.147 C 
ATOM     13  C   UNL     1      35.304 -23.226 -16.893  0.00  0.00    +0.409 C 
BRANCH  11  14
ATOM     14  C   UNL     1      32.626 -23.780 -15.255  0.00  0.00    +0.135 C 
BRANCH  14  16
ATOM     15  O   UNL     1      31.168 -25.378 -13.318  0.00  0.00    -0.275 OA
ATOM     16  N   UNL     1      31.255 -24.194 -15.322  0.00  0.00    -0.301 N 
ATOM     17  C   UNL     1      30.635 -24.963 -14.343  0.00  0.00    +0.223 C 
ATOM     18  C   UNL     1      29.186 -25.233 -14.651  0.00  0.00    +0.095 C 
ATOM     19  H   UNL     1      30.724 -23.919 -16.105  0.00  0.00    +0.150 HD
ENDBRANCH  14  16
ENDBRANCH  11  14
ENDBRANCH   2  10
BRANCH   5  20
ATOM     20  C   UNL     1      34.610 -19.152 -22.040  0.00  0.00    +0.002 C 
ATOM     21  C   UNL     1      34.754 -17.279 -24.102  0.00  0.00    -0.044 C 
ATOM     22  C   UNL     1      35.163 -17.895 -21.802  0.00  0.00    -0.000 C 
ATOM     23  C   UNL     1      34.129 -19.474 -23.310  0.00  0.00    -0.000 C 
ATOM     24  C   UNL     1      35.236 -16.958 -22.833  0.00  0.00    -0.006 C 
ATOM     25  C   UNL     1      34.201 -18.537 -24.341  0.00  0.00    -0.006 C 
BRANCH  21  26
ATOM     26  C   UNL     1      34.833 -16.278 -25.204  0.00  0.00    -0.054 C 
BRANCH  26  27
ATOM     27  N   UNL     1      33.567 -15.569 -25.406  0.00  0.00    +0.390 N 
ATOM     28  H   UNL     1      32.795 -16.230 -25.313  0.00  0.00    -0.083 HD
ATOM     29  H   UNL     1      33.568 -15.156 -26.339  0.00  0.00    -0.083 HD
BRANCH  27  30
ATOM     30  C   UNL     1      33.410 -14.509 -24.424  0.00  0.00    -0.031 C 
BRANCH  30  34
ATOM     31  N   UNL     1      33.499 -12.965 -26.357  0.00  0.00    -0.170 NA
ATOM     32  N   UNL     1      33.730 -11.647 -26.452  0.00  0.00    -0.157 N 
ATOM     33  N   UNL     1      33.971 -10.956 -25.325  0.00  0.00    -0.162 NA
ATOM     34  C   UNL     1      33.598 -13.146 -25.037  0.00  0.00    +0.077 C 
ATOM     35  C   UNL     1      33.885 -11.925 -24.410  0.00  0.00    +0.133 C 
ATOM     36  H   UNL     1      33.725 -11.196 -27.327  0.00  0.00    +0.197 HD
ENDBRANCH  30  34
ENDBRANCH  27  30
ENDBRANCH  26  27
ENDBRANCH  21  26
ENDBRANCH   5  20
TORSDOF 8
ENDMDL
MODEL 4
REMARK VINA RESULT:     -11.5      4.307     11.692
REMARK  Name = 11224409
REMARK  8 active torsions:
REMARK  status: ('A' for Active; 'I' for Inactive)
REMARK    1  A    between atoms: C_2  and  N_10
REMARK    2  A    between atoms: C_5  and  C_20
REMARK    3  A    between atoms: C_11  and  C_14
REMARK    4  A    between atoms: C_14  and  N_16
REMARK    5  A    between atoms: C_21  and  C_26
REMARK    6  A    between atoms: C_26  and  N_27
REMARK    7  A    between atoms: N_27  and  C_30
REMARK    8  A    between atoms: C_30  and  C_34
REMARK                            x       y       z     vdW  Elec       q    Type
REMARK                         _______ _______ _______ _____ _____    ______ ____
ROOT
ATOM      1  F   UNL     1      32.811 -21.036 -20.103  0.00  0.00    -0.204 F 
ATOM      2  C   UNL     1      34.953 -19.088 -22.301  0.00  0.00    +0.059 C 
ATOM      3  C   UNL     1      33.810 -19.664 -21.745  0.00  0.00    +0.045 C 
ATOM      4  C   UNL     1      36.204 -19.339 -21.738  0.00  0.00    +0.015 C 
ATOM      5  C   UNL     1      35.170 -20.740 -20.064  0.00  0.00    +0.028 C 
ATOM      6  C   UNL     1      33.919 -20.490 -20.626  0.00  0.00    +0.141 C 
ATOM      7  C   UNL     1      36.313 -20.165 -20.619  0.00  0.00    +0.004 C 
ENDROOT
BRANCH   2  10
ATOM      8  O   UNL     1      34.451 -17.490 -25.534  0.00  0.00    -0.434 OA
ATOM      9  O   UNL     1      34.043 -19.686 -25.141  0.00  0.00    -0.226 OA
ATOM     10  N   UNL     1      34.842 -18.245 -23.443  0.00  0.00    -0.221 N 
ATOM     11  C   UNL     1      34.707 -16.328 -24.733  0.00  0.00    +0.210 C 
ATOM     12  C   UNL     1      35.291 -16.879 -23.450  0.00  0.00    +0.147 C 
ATOM     13  C   UNL     1      34.403 -18.597 -24.717  0.00  0.00    +0.409 C 
BRANCH  11  14
ATOM     14  C   UNL     1      33.399 -15.578 -24.524  0.00  0.00    +0.135 C 
BRANCH  14  16
ATOM     15  O   UNL     1      34.310 -13.352 -22.897  0.00  0.00    -0.275 OA
ATOM     16  N   UNL     1      33.521 -14.205 -24.917  0.00  0.00    -0.301 N 
ATOM     17  C   UNL     1      33.968 -13.199 -24.067  0.00  0.00    +0.223 C 
ATOM     18  C   UNL     1      34.023 -11.853 -24.741  0.00  0.00    +0.095 C 
ATOM     19  H   UNL     1      33.273 -13.961 -25.838  0.00  0.00    +0.150 HD
ENDBRANCH  14  16
ENDBRANCH  11  14
ENDBRANCH   2  10
BRANCH   5  20
ATOM     20  C   UNL     1      35.288 -21.597 -18.903  0.00  0.00    +0.002 C 
ATOM     21  C   UNL     1      35.514 -23.246 -16.665  0.00  0.00    -0.044 C 
ATOM     22  C   UNL     1      36.462 -21.594 -18.151  0.00  0.00    -0.000 C 
ATOM     23  C   UNL     1      34.227 -22.425 -18.536  0.00  0.00    -0.000 C 
ATOM     24  C   UNL     1      36.575 -22.418 -17.031  0.00  0.00    -0.006 C 
ATOM     25  C   UNL     1      34.340 -23.250 -17.418  0.00  0.00    -0.006 C 
BRANCH  21  26
ATOM     26  C   UNL     1      35.636 -24.127 -15.468  0.00  0.00    -0.054 C 
BRANCH  26  27
ATOM     27  N   UNL     1      36.842 -24.956 -15.504  0.00  0.00    +0.390 N 
ATOM     28  H   UNL     1      37.663 -24.352 -15.516  0.00  0.00    -0.083 HD
ATOM     29  H   UNL     1      36.817 -25.535 -16.344  0.00  0.00    -0.083 HD
BRANCH  27  30
ATOM     30  C   UNL     1      36.904 -25.825 -14.340  0.00  0.00    -0.031 C 
BRANCH  30  34
ATOM     31  N   UNL     1      38.197 -24.290 -12.891  0.00  0.00    -0.170 NA
ATOM     32  N   UNL     1      37.967 -23.796 -11.664  0.00  0.00    -0.157 N 
ATOM     33  N   UNL     1      36.838 -24.154 -11.030  0.00  0.00    -0.162 NA
ATOM     34  C   UNL     1      37.107 -25.043 -13.068  0.00  0.00    +0.077 C 
ATOM     35  C   UNL     1      36.282 -24.961 -11.938  0.00  0.00    +0.133 C 
ATOM     36  H   UNL     1      38.611 -23.185 -11.239  0.00  0.00    +0.197 HD
ENDBRANCH  30  34
ENDBRANCH  27  30
ENDBRANCH  26  27
ENDBRANCH  21  26
ENDBRANCH   5  20
TORSDOF 8
ENDMDL
MODEL 5
REMARK VINA RESULT:     -11.3      2.886      4.659
REMARK  Name = 11224409
REMARK  8 active torsions:
REMARK  status: ('A' for Active; 'I' for Inactive)
REMARK    1  A    between atoms: C_2  and  N_10
REMARK    2  A    between atoms: C_5  and  C_20
REMARK    3  A    between atoms: C_11  and  C_14
REMARK    4  A    between atoms: C_14  and  N_16
REMARK    5  A    between atoms: C_21  and  C_26
REMARK    6  A    between atoms: C_26  and  N_27
REMARK    7  A    between atoms: N_27  and  C_30
REMARK    8  A    between atoms: C_30  and  C_34
REMARK                            x       y       z     vdW  Elec       q    Type
REMARK                         _______ _______ _______ _____ _____    ______ ____
ROOT
ATOM      1  F   UNL     1      36.863 -20.171 -20.791  0.00  0.00    -0.204 F 
ATOM      2  C   UNL     1      34.350 -22.012 -18.919  0.00  0.00    +0.059 C 
ATOM      3  C   UNL     1      35.592 -21.553 -19.361  0.00  0.00    +0.045 C 
ATOM      4  C   UNL     1      33.180 -21.517 -19.496  0.00  0.00    +0.015 C 
ATOM      5  C   UNL     1      34.492 -20.108 -20.954  0.00  0.00    +0.028 C 
ATOM      6  C   UNL     1      35.662 -20.602 -20.378  0.00  0.00    +0.141 C 
ATOM      7  C   UNL     1      33.250 -20.565 -20.512  0.00  0.00    +0.004 C 
ENDROOT
BRANCH   2  10
ATOM      8  O   UNL     1      34.779 -24.271 -16.096  0.00  0.00    -0.434 OA
ATOM      9  O   UNL     1      36.335 -22.749 -16.735  0.00  0.00    -0.226 OA
ATOM     10  N   UNL     1      34.278 -22.983 -17.882  0.00  0.00    -0.221 N 
ATOM     11  C   UNL     1      33.399 -24.524 -16.394  0.00  0.00    +0.210 C 
ATOM     12  C   UNL     1      33.197 -23.926 -17.770  0.00  0.00    +0.147 C 
ATOM     13  C   UNL     1      35.235 -23.255 -16.906  0.00  0.00    +0.409 C 
BRANCH  11  14
ATOM     14  C   UNL     1      32.537 -23.871 -15.323  0.00  0.00    +0.135 C 
BRANCH  14  16
ATOM     15  O   UNL     1      30.960 -25.134 -13.238  0.00  0.00    -0.275 OA
ATOM     16  N   UNL     1      31.178 -24.317 -15.409  0.00  0.00    -0.301 N 
ATOM     17  C   UNL     1      30.497 -24.916 -14.354  0.00  0.00    +0.223 C 
ATOM     18  C   UNL     1      29.075 -25.265 -14.706  0.00  0.00    +0.095 C 
ATOM     19  H   UNL     1      30.701 -24.194 -16.262  0.00  0.00    +0.150 HD
ENDBRANCH  14  16
ENDBRANCH  11  14
ENDBRANCH   2  10
BRANCH   5  20
ATOM     20  C   UNL     1      34.561 -19.120 -22.009  0.00  0.00    +0.002 C 
ATOM     21  C   UNL     1      34.691 -17.216 -24.043  0.00  0.00    -0.044 C 
ATOM     22  C   UNL     1      34.043 -19.411 -23.271  0.00  0.00    -0.000 C 
ATOM     23  C   UNL     1      35.144 -17.876 -21.765  0.00  0.00    -0.000 C 
ATOM     24  C   UNL     1      34.107 -18.458 -24.288  0.00  0.00    -0.006 C 
ATOM     25  C   UNL     1      35.210 -16.924 -22.781  0.00  0.00    -0.006 C 
BRANCH  21  26
ATOM     26  C   UNL     1      34.759 -16.198 -25.131  0.00  0.00    -0.054 C 
BRANCH  26  27
ATOM     27  N   UNL     1      33.598 -15.306 -25.135  0.00  0.00    +0.390 N 
ATOM     28  H   UNL     1      32.855 -15.721 -24.572  0.00  0.00    -0.083 HD
ATOM     29  H   UNL     1      33.285 -15.179 -26.097  0.00  0.00    -0.083 HD
BRANCH  27  30
ATOM     30  C   UNL     1      33.947 -14.007 -24.582  0.00  0.00    -0.031 C 
BRANCH  30  34
ATOM     31  N   UNL     1      32.023 -13.055 -23.349  0.00  0.00    -0.170 NA
ATOM     32  N   UNL     1      31.713 -13.021 -22.043  0.00  0.00    -0.157 N 
ATOM     33  N   UNL     1      32.559 -13.589 -21.168  0.00  0.00    -0.162 NA
ATOM     34  C   UNL     1      33.186 -13.714 -23.316  0.00  0.00    +0.077 C 
ATOM     35  C   UNL     1      33.511 -14.037 -21.991  0.00  0.00    +0.133 C 
ATOM     36  H   UNL     1      30.885 -12.587 -21.734  0.00  0.00    +0.197 HD
ENDBRANCH  30  34
ENDBRANCH  27  30
ENDBRANCH  26  27
ENDBRANCH  21  26
ENDBRANCH   5  20
TORSDOF 8
ENDMDL
MODEL 6
REMARK VINA RESULT:     -10.9      7.869     14.017
REMARK  Name = 11224409
REMARK  8 active torsions:
REMARK  status: ('A' for Active; 'I' for Inactive)
REMARK    1  A    between atoms: C_2  and  N_10
REMARK    2  A    between atoms: C_5  and  C_20
REMARK    3  A    between atoms: C_11  and  C_14
REMARK    4  A    between atoms: C_14  and  N_16
REMARK    5  A    between atoms: C_21  and  C_26
REMARK    6  A    between atoms: C_26  and  N_27
REMARK    7  A    between atoms: N_27  and  C_30
REMARK    8  A    between atoms: C_30  and  C_34
REMARK                            x       y       z     vdW  Elec       q    Type
REMARK                         _______ _______ _______ _____ _____    ______ ____
ROOT
ATOM      1  F   UNL     1      31.841 -13.728 -21.369  0.00  0.00    -0.204 F 
ATOM      2  C   UNL     1      32.310 -10.457 -22.882  0.00  0.00    +0.059 C 
ATOM      3  C   UNL     1      31.832 -11.466 -22.045  0.00  0.00    +0.045 C 
ATOM      4  C   UNL     1      33.265 -10.752 -23.854  0.00  0.00    +0.015 C 
ATOM      5  C   UNL     1      33.265 -13.064 -23.154  0.00  0.00    +0.028 C 
ATOM      6  C   UNL     1      32.310 -12.769 -22.181  0.00  0.00    +0.141 C 
ATOM      7  C   UNL     1      33.744 -12.055 -23.990  0.00  0.00    +0.004 C 
ENDROOT
BRANCH   2  10
ATOM      8  O   UNL     1      31.227  -7.129 -21.876  0.00  0.00    -0.434 OA
ATOM      9  O   UNL     1      32.113  -8.649 -20.443  0.00  0.00    -0.226 OA
ATOM     10  N   UNL     1      31.822  -9.127 -22.743  0.00  0.00    -0.221 N 
ATOM     11  C   UNL     1      31.119  -6.992 -23.299  0.00  0.00    +0.210 C 
ATOM     12  C   UNL     1      31.187  -8.413 -23.818  0.00  0.00    +0.147 C 
ATOM     13  C   UNL     1      31.775  -8.358 -21.582  0.00  0.00    +0.409 C 
BRANCH  11  14
ATOM     14  C   UNL     1      32.260  -6.116 -23.796  0.00  0.00    +0.135 C 
BRANCH  14  16
ATOM     15  O   UNL     1      34.944  -7.129 -23.345  0.00  0.00    -0.275 OA
ATOM     16  N   UNL     1      33.091  -6.825 -24.724  0.00  0.00    -0.301 N 
ATOM     17  C   UNL     1      34.372  -7.275 -24.422  0.00  0.00    +0.223 C 
ATOM     18  C   UNL     1      35.013  -8.011 -25.569  0.00  0.00    +0.095 C 
ATOM     19  H   UNL     1      32.736  -7.001 -25.626  0.00  0.00    +0.150 HD
ENDBRANCH  14  16
ENDBRANCH  11  14
ENDBRANCH   2  10
BRANCH   5  20
ATOM     20  C   UNL     1      33.764 -14.415 -23.299  0.00  0.00    +0.002 C 
ATOM     21  C   UNL     1      34.722 -17.019 -23.578  0.00  0.00    -0.044 C 
ATOM     22  C   UNL     1      34.437 -15.027 -22.242  0.00  0.00    -0.000 C 
ATOM     23  C   UNL     1      33.570 -15.105 -24.495  0.00  0.00    -0.000 C 
ATOM     24  C   UNL     1      34.916 -16.329 -22.381  0.00  0.00    -0.006 C 
ATOM     25  C   UNL     1      34.049 -16.407 -24.635  0.00  0.00    -0.006 C 
BRANCH  21  26
ATOM     26  C   UNL     1      35.234 -18.412 -23.726  0.00  0.00    -0.054 C 
BRANCH  26  27
ATOM     27  N   UNL     1      34.451 -19.380 -22.956  0.00  0.00    +0.390 N 
ATOM     28  H   UNL     1      34.324 -20.226 -23.511  0.00  0.00    -0.083 HD
ATOM     29  H   UNL     1      33.547 -18.965 -22.731  0.00  0.00    -0.083 HD
BRANCH  27  30
ATOM     30  C   UNL     1      35.131 -19.720 -21.716  0.00  0.00    -0.031 C 
BRANCH  30  34
ATOM     31  N   UNL     1      34.767 -21.415 -19.950  0.00  0.00    -0.170 NA
ATOM     32  N   UNL     1      33.657 -21.869 -19.347  0.00  0.00    -0.157 N 
ATOM     33  N   UNL     1      32.471 -21.356 -19.716  0.00  0.00    -0.162 NA
ATOM     34  C   UNL     1      34.248 -20.518 -20.793  0.00  0.00    +0.077 C 
ATOM     35  C   UNL     1      32.854 -20.483 -20.651  0.00  0.00    +0.133 C 
ATOM     36  H   UNL     1      33.710 -22.562 -18.650  0.00  0.00    +0.197 HD
ENDBRANCH  30  34
ENDBRANCH  27  30
ENDBRANCH  26  27
ENDBRANCH  21  26
ENDBRANCH   5  20
TORSDOF 8
ENDMDL
MODEL 7
REMARK VINA RESULT:     -10.9      4.673     11.318
REMARK  Name = 11224409
REMARK  8 active torsions:
REMARK  status: ('A' for Active; 'I' for Inactive)
REMARK    1  A    between atoms: C_2  and  N_10
REMARK    2  A    between atoms: C_5  and  C_20
REMARK    3  A    between atoms: C_11  and  C_14
REMARK    4  A    between atoms: C_14  and  N_16
REMARK    5  A    between atoms: C_21  and  C_26
REMARK    6  A    between atoms: C_26  and  N_27
REMARK    7  A    between atoms: N_27  and  C_30
REMARK    8  A    between atoms: C_30  and  C_34
REMARK                            x       y       z     vdW  Elec       q    Type
REMARK                         _______ _______ _______ _____ _____    ______ ____
ROOT
ATOM      1  F   UNL     1      32.824 -21.057 -20.028  0.00  0.00    -0.204 F 
ATOM      2  C   UNL     1      34.958 -19.135 -22.254  0.00  0.00    +0.059 C 
ATOM      3  C   UNL     1      33.817 -19.700 -21.685  0.00  0.00    +0.045 C 
ATOM      4  C   UNL     1      36.213 -19.391 -21.701  0.00  0.00    +0.015 C 
ATOM      5  C   UNL     1      35.185 -20.777 -20.011  0.00  0.00    +0.028 C 
ATOM      6  C   UNL     1      33.931 -20.521 -20.563  0.00  0.00    +0.141 C 
ATOM      7  C   UNL     1      36.327 -20.212 -20.579  0.00  0.00    +0.004 C 
ENDROOT
BRANCH   2  10
ATOM      8  O   UNL     1      34.379 -17.532 -25.472  0.00  0.00    -0.434 OA
ATOM      9  O   UNL     1      33.817 -19.682 -25.020  0.00  0.00    -0.226 OA
ATOM     10  N   UNL     1      34.842 -18.297 -23.399  0.00  0.00    -0.221 N 
ATOM     11  C   UNL     1      34.782 -16.388 -24.707  0.00  0.00    +0.210 C 
ATOM     12  C   UNL     1      35.402 -16.973 -23.456  0.00  0.00    +0.147 C 
ATOM     13  C   UNL     1      34.293 -18.623 -24.637  0.00  0.00    +0.409 C 
BRANCH  11  14
ATOM     14  C   UNL     1      33.557 -15.529 -24.425  0.00  0.00    +0.135 C 
BRANCH  14  16
ATOM     15  O   UNL     1      32.663 -13.262 -22.846  0.00  0.00    -0.275 OA
ATOM     16  N   UNL     1      33.832 -14.142 -24.659  0.00  0.00    -0.301 N 
ATOM     17  C   UNL     1      33.360 -13.116 -23.846  0.00  0.00    +0.223 C 
ATOM     18  C   UNL     1      33.817 -11.757 -24.305  0.00  0.00    +0.095 C 
ATOM     19  H   UNL     1      34.385 -13.902 -25.438  0.00  0.00    +0.150 HD
ENDBRANCH  14  16
ENDBRANCH  11  14
ENDBRANCH   2  10
BRANCH   5  20
ATOM     20  C   UNL     1      35.308 -21.629 -18.848  0.00  0.00    +0.002 C 
ATOM     21  C   UNL     1      35.543 -23.269 -16.604  0.00  0.00    -0.044 C 
ATOM     22  C   UNL     1      36.486 -21.625 -18.101  0.00  0.00    -0.000 C 
ATOM     23  C   UNL     1      34.247 -22.454 -18.471  0.00  0.00    -0.000 C 
ATOM     24  C   UNL     1      36.604 -22.445 -16.979  0.00  0.00    -0.006 C 
ATOM     25  C   UNL     1      34.365 -23.275 -17.350  0.00  0.00    -0.006 C 
BRANCH  21  26
ATOM     26  C   UNL     1      35.670 -24.146 -15.403  0.00  0.00    -0.054 C 
BRANCH  26  27
ATOM     27  N   UNL     1      34.414 -24.821 -15.070  0.00  0.00    +0.390 N 
ATOM     28  H   UNL     1      34.600 -25.809 -14.902  0.00  0.00    -0.083 HD
ATOM     29  H   UNL     1      33.766 -24.710 -15.849  0.00  0.00    -0.083 HD
BRANCH  27  30
ATOM     30  C   UNL     1      33.817 -24.237 -13.879  0.00  0.00    -0.031 C 
BRANCH  30  34
ATOM     31  N   UNL     1      31.651 -25.315 -13.362  0.00  0.00    -0.170 NA
ATOM     32  N   UNL     1      30.381 -24.968 -13.626  0.00  0.00    -0.157 N 
ATOM     33  N   UNL     1      30.156 -23.828 -14.300  0.00  0.00    -0.162 NA
ATOM     34  C   UNL     1      32.313 -24.297 -13.919  0.00  0.00    +0.077 C 
ATOM     35  C   UNL     1      31.405 -23.394 -14.489  0.00  0.00    +0.133 C 
ATOM     36  H   UNL     1      29.632 -25.536 -13.334  0.00  0.00    +0.197 HD
ENDBRANCH  30  34
ENDBRANCH  27  30
ENDBRANCH  26  27
ENDBRANCH  21  26
ENDBRANCH   5  20
TORSDOF 8
ENDMDL
MODEL 8
REMARK VINA RESULT:     -10.9      1.951      2.950
REMARK  Name = 11224409
REMARK  8 active torsions:
REMARK  status: ('A' for Active; 'I' for Inactive)
REMARK    1  A    between atoms: C_2  and  N_10
REMARK    2  A    between atoms: C_5  and  C_20
REMARK    3  A    between atoms: C_11  and  C_14
REMARK    4  A    between atoms: C_14  and  N_16
REMARK    5  A    between atoms: C_21  and  C_26
REMARK    6  A    between atoms: C_26  and  N_27
REMARK    7  A    between atoms: N_27  and  C_30
REMARK    8  A    between atoms: C_30  and  C_34
REMARK                            x       y       z     vdW  Elec       q    Type
REMARK                         _______ _______ _______ _____ _____    ______ ____
ROOT
ATOM      1  F   UNL     1      32.551 -20.945 -20.542  0.00  0.00    -0.204 F 
ATOM      2  C   UNL     1      34.883 -22.280 -18.094  0.00  0.00    +0.059 C 
ATOM      3  C   UNL     1      33.694 -22.016 -18.775  0.00  0.00    +0.045 C 
ATOM      4  C   UNL     1      36.080 -21.718 -18.539  0.00  0.00    +0.015 C 
ATOM      5  C   UNL     1      34.899 -20.628 -20.342  0.00  0.00    +0.028 C 
ATOM      6  C   UNL     1      33.702 -21.189 -19.898  0.00  0.00    +0.141 C 
ATOM      7  C   UNL     1      36.089 -20.892 -19.663  0.00  0.00    +0.004 C 
ENDROOT
BRANCH   2  10
ATOM      8  O   UNL     1      34.222 -24.564 -15.337  0.00  0.00    -0.434 OA
ATOM      9  O   UNL     1      32.685 -24.021 -16.915  0.00  0.00    -0.226 OA
ATOM     10  N   UNL     1      34.874 -23.123 -16.947  0.00  0.00    -0.221 N 
ATOM     11  C   UNL     1      35.637 -24.404 -15.176  0.00  0.00    +0.210 C 
ATOM     12  C   UNL     1      35.977 -23.198 -16.027  0.00  0.00    +0.147 C 
ATOM     13  C   UNL     1      33.820 -23.902 -16.476  0.00  0.00    +0.409 C 
BRANCH  11  14
ATOM     14  C   UNL     1      36.332 -25.677 -15.637  0.00  0.00    +0.135 C 
BRANCH  14  16
ATOM     15  O   UNL     1      38.009 -26.412 -13.383  0.00  0.00    -0.275 OA
ATOM     16  N   UNL     1      37.756 -25.557 -15.536  0.00  0.00    -0.301 N 
ATOM     17  C   UNL     1      38.482 -25.936 -14.411  0.00  0.00    +0.223 C 
ATOM     18  C   UNL     1      39.964 -25.725 -14.580  0.00  0.00    +0.095 C 
ATOM     19  H   UNL     1      38.248 -25.184 -16.304  0.00  0.00    +0.150 HD
ENDBRANCH  14  16
ENDBRANCH  11  14
ENDBRANCH   2  10
BRANCH   5  20
ATOM     20  C   UNL     1      34.913 -19.769 -21.507  0.00  0.00    +0.002 C 
ATOM     21  C   UNL     1      34.941 -18.116 -23.753  0.00  0.00    -0.044 C 
ATOM     22  C   UNL     1      35.281 -18.430 -21.383  0.00  0.00    -0.000 C 
ATOM     23  C   UNL     1      34.558 -20.282 -22.756  0.00  0.00    -0.000 C 
ATOM     24  C   UNL     1      35.296 -17.603 -22.506  0.00  0.00    -0.006 C 
ATOM     25  C   UNL     1      34.572 -19.455 -23.879  0.00  0.00    -0.006 C 
BRANCH  21  26
ATOM     26  C   UNL     1      34.957 -17.231 -24.954  0.00  0.00    -0.054 C 
BRANCH  26  27
ATOM     27  N   UNL     1      34.989 -15.811 -24.601  0.00  0.00    +0.390 N 
ATOM     28  H   UNL     1      35.720 -15.348 -25.141  0.00  0.00    -0.083 HD
ATOM     29  H   UNL     1      35.179 -15.726 -23.603  0.00  0.00    -0.083 HD
BRANCH  27  30
ATOM     30  C   UNL     1      33.711 -15.181 -24.890  0.00  0.00    -0.031 C 
BRANCH  30  34
ATOM     31  N   UNL     1      34.157 -12.996 -23.817  0.00  0.00    -0.170 NA
ATOM     32  N   UNL     1      34.132 -11.737 -24.283  0.00  0.00    -0.157 N 
ATOM     33  N   UNL     1      33.810 -11.537 -25.572  0.00  0.00    -0.162 NA
ATOM     34  C   UNL     1      33.819 -13.679 -24.915  0.00  0.00    +0.077 C 
ATOM     35  C   UNL     1      33.608 -12.793 -25.980  0.00  0.00    +0.133 C 
ATOM     36  H   UNL     1      34.343 -10.978 -23.694  0.00  0.00    +0.197 HD
ENDBRANCH  30  34
ENDBRANCH  27  30
ENDBRANCH  26  27
ENDBRANCH  21  26
ENDBRANCH   5  20
TORSDOF 8
ENDMDL
MODEL 9
REMARK VINA RESULT:     -10.8      1.970      3.072
REMARK  Name = 11224409
REMARK  8 active torsions:
REMARK  status: ('A' for Active; 'I' for Inactive)
REMARK    1  A    between atoms: C_2  and  N_10
REMARK    2  A    between atoms: C_5  and  C_20
REMARK    3  A    between atoms: C_11  and  C_14
REMARK    4  A    between atoms: C_14  and  N_16
REMARK    5  A    between atoms: C_21  and  C_26
REMARK    6  A    between atoms: C_26  and  N_27
REMARK    7  A    between atoms: N_27  and  C_30
REMARK    8  A    between atoms: C_30  and  C_34
REMARK                            x       y       z     vdW  Elec       q    Type
REMARK                         _______ _______ _______ _____ _____    ______ ____
ROOT
ATOM      1  F   UNL     1      32.954 -21.501 -20.152  0.00  0.00    -0.204 F 
ATOM      2  C   UNL     1      35.404 -22.587 -17.697  0.00  0.00    +0.059 C 
ATOM      3  C   UNL     1      34.197 -22.451 -18.384  0.00  0.00    +0.045 C 
ATOM      4  C   UNL     1      36.534 -21.893 -18.130  0.00  0.00    +0.015 C 
ATOM      5  C   UNL     1      35.251 -20.927 -19.935  0.00  0.00    +0.028 C 
ATOM      6  C   UNL     1      34.121 -21.621 -19.503  0.00  0.00    +0.141 C 
ATOM      7  C   UNL     1      36.458 -21.063 -19.249  0.00  0.00    +0.004 C 
ENDROOT
BRANCH   2  10
ATOM      8  O   UNL     1      36.238 -24.532 -14.734  0.00  0.00    -0.434 OA
ATOM      9  O   UNL     1      37.699 -23.148 -15.782  0.00  0.00    -0.226 OA
ATOM     10  N   UNL     1      35.481 -23.434 -16.556  0.00  0.00    -0.221 N 
ATOM     11  C   UNL     1      34.824 -24.766 -14.780  0.00  0.00    +0.210 C 
ATOM     12  C   UNL     1      34.415 -24.318 -16.167  0.00  0.00    +0.147 C 
ATOM     13  C   UNL     1      36.577 -23.629 -15.718  0.00  0.00    +0.409 C 
BRANCH  11  14
ATOM     14  C   UNL     1      34.157 -23.967 -13.670  0.00  0.00    +0.135 C 
BRANCH  14  16
ATOM     15  O   UNL     1      34.914 -25.256 -11.180  0.00  0.00    -0.275 OA
ATOM     16  N   UNL     1      35.119 -23.511 -12.710  0.00  0.00    -0.301 N 
ATOM     17  C   UNL     1      35.420 -24.196 -11.538  0.00  0.00    +0.223 C 
ATOM     18  C   UNL     1      36.483 -23.508 -10.722  0.00  0.00    +0.095 C 
ATOM     19  H   UNL     1      35.591 -22.665 -12.891  0.00  0.00    +0.150 HD
ENDBRANCH  14  16
ENDBRANCH  11  14
ENDBRANCH   2  10
BRANCH   5  20
ATOM     20  C   UNL     1      35.177 -20.065 -21.094  0.00  0.00    +0.002 C 
ATOM     21  C   UNL     1      35.034 -18.405 -23.331  0.00  0.00    -0.044 C 
ATOM     22  C   UNL     1      36.255 -19.243 -21.422  0.00  0.00    -0.000 C 
ATOM     23  C   UNL     1      34.027 -20.057 -21.885  0.00  0.00    -0.000 C 
ATOM     24  C   UNL     1      36.184 -18.413 -22.542  0.00  0.00    -0.006 C 
ATOM     25  C   UNL     1      33.956 -19.226 -23.003  0.00  0.00    -0.006 C 
BRANCH  21  26
ATOM     26  C   UNL     1      34.959 -17.517 -24.528  0.00  0.00    -0.054 C 
BRANCH  26  27
ATOM     27  N   UNL     1      35.294 -16.127 -24.214  0.00  0.00    +0.390 N 
ATOM     28  H   UNL     1      36.126 -15.856 -24.738  0.00  0.00    -0.083 HD
ATOM     29  H   UNL     1      35.467 -16.050 -23.212  0.00  0.00    -0.083 HD
BRANCH  27  30
ATOM     30  C   UNL     1      34.197 -15.242 -24.569  0.00  0.00    -0.031 C 
BRANCH  30  34
ATOM     31  N   UNL     1      32.677 -13.609 -23.496  0.00  0.00    -0.170 NA
ATOM     32  N   UNL     1      32.512 -13.231 -22.218  0.00  0.00    -0.157 N 
ATOM     33  N   UNL     1      33.282 -13.801 -21.277  0.00  0.00    -0.162 NA
ATOM     34  C   UNL     1      33.651 -14.515 -23.368  0.00  0.00    +0.077 C 
ATOM     35  C   UNL     1      34.019 -14.631 -22.020  0.00  0.00    +0.133 C 
ATOM     36  H   UNL     1      31.842 -12.551 -21.977  0.00  0.00    +0.197 HD
ENDBRANCH  30  34
ENDBRANCH  27  30
ENDBRANCH  26  27
ENDBRANCH  21  26
ENDBRANCH   5  20
TORSDOF 8
ENDMDL
