MODEL 1
REMARK VINA RESULT:     -11.7      0.000      0.000
REMARK  Name = 46937091
REMARK  8 active torsions:
REMARK  status: ('A' for Active; 'I' for Inactive)
REMARK    1  A    between atoms: C_1  and  C_4
REMARK    2  A    between atoms: C_1  and  C_18
REMARK    3  A    between atoms: C_10  and  C_12
REMARK    4  A    between atoms: C_18  and  C_19
REMARK    5  A    between atoms: C_19  and  N_20
REMARK    6  A    between atoms: C_19  and  C_30
REMARK    7  A    between atoms: C_24  and  C_27
REMARK    8  A    between atoms: C_30  and  O_32
REMARK                            x       y       z     vdW  Elec       q    Type
REMARK                         _______ _______ _______ _____ _____    ______ ____
ROOT
ATOM      1  C   UNL     1      34.459 -24.724 -14.597  0.00  0.00    +0.031 C 
ENDROOT
BRANCH   1   4
ATOM      2  O   UNL     1      33.515 -23.155 -17.046  0.00  0.00    -0.425 OA
ATOM      3  N   UNL     1      31.384 -22.778 -17.718  0.00  0.00    -0.368 NA
ATOM      4  C   UNL     1      33.032 -24.489 -15.022  0.00  0.00    +0.014 C 
ATOM      5  C   UNL     1      32.679 -23.761 -16.153  0.00  0.00    +0.170 C 
ATOM      6  C   UNL     1      31.966 -25.005 -14.277  0.00  0.00    -0.005 C 
ATOM      7  C   UNL     1      31.375 -23.529 -16.567  0.00  0.00    +0.151 C 
ATOM      8  C   UNL     1      30.636 -24.793 -14.661  0.00  0.00    -0.019 C 
ATOM      9  C   UNL     1      30.319 -24.053 -15.810  0.00  0.00    +0.088 C 
ATOM     10  C   UNL     1      32.665 -22.591 -17.948  0.00  0.00    +0.282 C 
BRANCH  10  12
ATOM     11 CL   UNL     1      35.293 -19.624 -22.381  0.00  0.00    -0.082 Cl
ATOM     12  C   UNL     1      33.300 -21.874 -19.019  0.00  0.00    +0.066 C 
ATOM     13  C   UNL     1      32.542 -21.055 -19.855  0.00  0.00    +0.007 C 
ATOM     14  C   UNL     1      34.674 -21.997 -19.222  0.00  0.00    +0.007 C 
ATOM     15  C   UNL     1      33.158 -20.359 -20.895  0.00  0.00    +0.012 C 
ATOM     16  C   UNL     1      35.291 -21.301 -20.262  0.00  0.00    +0.012 C 
ATOM     17  C   UNL     1      34.532 -20.482 -21.098  0.00  0.00    +0.058 C 
ENDBRANCH  10  12
ENDBRANCH   1   4
BRANCH   1  18
ATOM     18  C   UNL     1      34.750 -24.376 -13.127  0.00  0.00    +0.023 C 
BRANCH  18  19
ATOM     19  C   UNL     1      36.073 -23.603 -12.882  0.00  0.00    +0.087 C 
BRANCH  19  20
ATOM     20  N   UNL     1      37.184 -24.021 -13.837  0.00  0.00    -0.246 NA
ATOM     21  N   UNL     1      38.511 -24.011 -15.618  0.00  0.00    -0.251 NA
ATOM     22  C   UNL     1      38.045 -25.068 -13.668  0.00  0.00    +0.125 C 
ATOM     23  C   UNL     1      37.502 -23.416 -15.021  0.00  0.00    +0.201 C 
ATOM     24  C   UNL     1      38.855 -25.042 -14.779  0.00  0.00    +0.124 C 
BRANCH  24  27
ATOM     25  O   UNL     1      40.341 -26.144 -16.237  0.00  0.00    -0.269 OA
ATOM     26  N   UNL     1      40.538 -26.622 -14.003  0.00  0.00    -0.324 N 
ATOM     27  C   UNL     1      39.924 -25.947 -15.068  0.00  0.00    +0.257 C 
ATOM     28  H   UNL     1      41.276 -27.250 -14.178  0.00  0.00    +0.145 HD
ATOM     29  H   UNL     1      40.231 -26.469 -13.080  0.00  0.00    +0.145 HD
ENDBRANCH  24  27
ENDBRANCH  19  20
BRANCH  19  30
ATOM     30  C   UNL     1      36.490 -23.698 -11.390  0.00  0.00    +0.125 C 
ATOM     31  C   UNL     1      35.420 -24.304 -10.488  0.00  0.00    +0.033 C 
BRANCH  30  32
ATOM     32  O   UNL     1      36.859 -22.416 -10.885  0.00  0.00    -0.383 OA
ATOM     33  H   UNL     1      36.086 -21.994 -10.478  0.00  0.00    +0.210 HD
ENDBRANCH  30  32
ENDBRANCH  19  30
ENDBRANCH  18  19
ENDBRANCH   1  18
TORSDOF 8
ENDMDL
MODEL 2
REMARK VINA RESULT:     -11.1      3.579      7.327
REMARK  Name = 46937091
REMARK  8 active torsions:
REMARK  status: ('A' for Active; 'I' for Inactive)
REMARK    1  A    between atoms: C_1  and  C_4
REMARK    2  A    between atoms: C_1  and  C_18
REMARK    3  A    between atoms: C_10  and  C_12
REMARK    4  A    between atoms: C_18  and  C_19
REMARK    5  A    between atoms: C_19  and  N_20
REMARK    6  A    between atoms: C_19  and  C_30
REMARK    7  A    between atoms: C_24  and  C_27
REMARK    8  A    between atoms: C_30  and  O_32
REMARK                            x       y       z     vdW  Elec       q    Type
REMARK                         _______ _______ _______ _____ _____    ______ ____
ROOT
ATOM      1  C   UNL     1      32.924 -23.550 -17.419  0.00  0.00    +0.031 C 
ENDROOT
BRANCH   1   4
ATOM      2  O   UNL     1      34.640 -21.662 -19.105  0.00  0.00    -0.425 OA
ATOM      3  N   UNL     1      36.794 -21.055 -18.753  0.00  0.00    -0.368 NA
ATOM      4  C   UNL     1      34.358 -23.162 -17.162  0.00  0.00    +0.014 C 
ATOM      5  C   UNL     1      35.076 -22.294 -17.977  0.00  0.00    +0.170 C 
ATOM      6  C   UNL     1      35.053 -23.673 -16.060  0.00  0.00    -0.005 C 
ATOM      7  C   UNL     1      36.395 -21.921 -17.764  0.00  0.00    +0.151 C 
ATOM      8  C   UNL     1      36.385 -23.321 -15.810  0.00  0.00    -0.019 C 
ATOM      9  C   UNL     1      37.077 -22.441 -16.655  0.00  0.00    +0.088 C 
ATOM     10  C   UNL     1      35.724 -20.942 -19.507  0.00  0.00    +0.282 C 
BRANCH  10  12
ATOM     11 CL   UNL     1      34.923 -17.731 -24.449  0.00  0.00    -0.082 Cl
ATOM     12  C   UNL     1      35.531 -20.166 -20.701  0.00  0.00    +0.066 C 
ATOM     13  C   UNL     1      34.290 -20.163 -21.338  0.00  0.00    +0.007 C 
ATOM     14  C   UNL     1      36.584 -19.415 -21.223  0.00  0.00    +0.007 C 
ATOM     15  C   UNL     1      34.102 -19.410 -22.497  0.00  0.00    +0.012 C 
ATOM     16  C   UNL     1      36.396 -18.662 -22.382  0.00  0.00    +0.012 C 
ATOM     17  C   UNL     1      35.155 -18.660 -23.019  0.00  0.00    +0.058 C 
ENDBRANCH  10  12
ENDBRANCH   1   4
BRANCH   1  18
ATOM     18  C   UNL     1      31.946 -23.149 -16.302  0.00  0.00    +0.023 C 
BRANCH  18  19
ATOM     19  C   UNL     1      30.954 -24.260 -15.864  0.00  0.00    +0.087 C 
BRANCH  19  20
ATOM     20  N   UNL     1      29.521 -23.972 -16.293  0.00  0.00    -0.246 NA
ATOM     21  N   UNL     1      27.494 -24.309 -17.135  0.00  0.00    -0.251 NA
ATOM     22  C   UNL     1      28.859 -22.785 -16.159  0.00  0.00    +0.125 C 
ATOM     23  C   UNL     1      28.663 -24.857 -16.884  0.00  0.00    +0.201 C 
ATOM     24  C   UNL     1      27.610 -23.017 -16.685  0.00  0.00    +0.124 C 
BRANCH  24  27
ATOM     25  O   UNL     1      26.417 -21.287 -17.749  0.00  0.00    -0.269 OA
ATOM     26  N   UNL     1      25.590 -22.032 -15.745  0.00  0.00    -0.324 N 
ATOM     27  C   UNL     1      26.541 -22.071 -16.775  0.00  0.00    +0.257 C 
ATOM     28  H   UNL     1      24.845 -21.389 -15.785  0.00  0.00    +0.145 HD
ATOM     29  H   UNL     1      25.667 -22.648 -14.981  0.00  0.00    +0.145 HD
ENDBRANCH  24  27
ENDBRANCH  19  20
BRANCH  19  30
ATOM     30  C   UNL     1      31.086 -24.537 -14.342  0.00  0.00    +0.125 C 
ATOM     31  C   UNL     1      31.811 -23.436 -13.576  0.00  0.00    +0.033 C 
BRANCH  30  32
ATOM     32  O   UNL     1      31.742 -25.782 -14.110  0.00  0.00    -0.383 OA
ATOM     33  H   UNL     1      32.169 -26.080 -14.928  0.00  0.00    +0.210 HD
ENDBRANCH  30  32
ENDBRANCH  19  30
ENDBRANCH  18  19
ENDBRANCH   1  18
TORSDOF 8
ENDMDL
MODEL 3
REMARK VINA RESULT:     -10.6     11.369     15.187
REMARK  Name = 46937091
REMARK  8 active torsions:
REMARK  status: ('A' for Active; 'I' for Inactive)
REMARK    1  A    between atoms: C_1  and  C_4
REMARK    2  A    between atoms: C_1  and  C_18
REMARK    3  A    between atoms: C_10  and  C_12
REMARK    4  A    between atoms: C_18  and  C_19
REMARK    5  A    between atoms: C_19  and  N_20
REMARK    6  A    between atoms: C_19  and  C_30
REMARK    7  A    between atoms: C_24  and  C_27
REMARK    8  A    between atoms: C_30  and  O_32
REMARK                            x       y       z     vdW  Elec       q    Type
REMARK                         _______ _______ _______ _____ _____    ______ ____
ROOT
ATOM      1  C   UNL     1      31.702 -12.002 -22.641  0.00  0.00    +0.031 C 
ENDROOT
BRANCH   1   4
ATOM      2  O   UNL     1      32.574  -9.075 -22.808  0.00  0.00    -0.425 OA
ATOM      3  N   UNL     1      32.532  -7.517 -21.163  0.00  0.00    -0.368 NA
ATOM      4  C   UNL     1      31.662 -10.984 -21.530  0.00  0.00    +0.014 C 
ATOM      5  C   UNL     1      32.078  -9.666 -21.681  0.00  0.00    +0.170 C 
ATOM      6  C   UNL     1      31.194 -11.329 -20.257  0.00  0.00    -0.005 C 
ATOM      7  C   UNL     1      32.054  -8.710 -20.676  0.00  0.00    +0.151 C 
ATOM      8  C   UNL     1      31.153 -10.393 -19.216  0.00  0.00    -0.019 C 
ATOM      9  C   UNL     1      31.581  -9.071 -19.407  0.00  0.00    +0.088 C 
ATOM     10  C   UNL     1      32.820  -7.795 -22.415  0.00  0.00    +0.282 C 
BRANCH  10  12
ATOM     11 CL   UNL     1      35.050  -4.246 -26.635  0.00  0.00    -0.082 Cl
ATOM     12  C   UNL     1      33.359  -6.938 -23.435  0.00  0.00    +0.066 C 
ATOM     13  C   UNL     1      32.707  -5.749 -23.763  0.00  0.00    +0.007 C 
ATOM     14  C   UNL     1      34.535  -7.293 -24.095  0.00  0.00    +0.007 C 
ATOM     15  C   UNL     1      33.230  -4.917 -24.753  0.00  0.00    +0.012 C 
ATOM     16  C   UNL     1      35.058  -6.461 -25.085  0.00  0.00    +0.012 C 
ATOM     17  C   UNL     1      34.405  -5.273 -25.413  0.00  0.00    +0.058 C 
ENDBRANCH  10  12
ENDBRANCH   1   4
BRANCH   1  18
ATOM     18  C   UNL     1      33.093 -12.603 -22.903  0.00  0.00    +0.023 C 
BRANCH  18  19
ATOM     19  C   UNL     1      33.233 -13.381 -24.240  0.00  0.00    +0.087 C 
BRANCH  19  20
ATOM     20  N   UNL     1      33.820 -14.774 -24.052  0.00  0.00    -0.246 NA
ATOM     21  N   UNL     1      34.406 -16.865 -24.518  0.00  0.00    -0.251 NA
ATOM     22  C   UNL     1      34.434 -15.249 -22.929  0.00  0.00    +0.125 C 
ATOM     23  C   UNL     1      33.826 -15.778 -24.979  0.00  0.00    +0.201 C 
ATOM     24  C   UNL     1      34.788 -16.541 -23.240  0.00  0.00    +0.124 C 
BRANCH  24  27
ATOM     25  O   UNL     1      35.209 -17.548 -21.153  0.00  0.00    -0.269 OA
ATOM     26  N   UNL     1      36.432 -18.312 -22.935  0.00  0.00    -0.324 N 
ATOM     27  C   UNL     1      35.464 -17.462 -22.380  0.00  0.00    +0.257 C 
ATOM     28  H   UNL     1      36.910 -18.955 -22.362  0.00  0.00    +0.145 HD
ATOM     29  H   UNL     1      36.634 -18.266 -23.897  0.00  0.00    +0.145 HD
ENDBRANCH  24  27
ENDBRANCH  19  20
BRANCH  19  30
ATOM     30  C   UNL     1      34.011 -12.532 -25.282  0.00  0.00    +0.125 C 
ATOM     31  C   UNL     1      34.168 -11.067 -24.891  0.00  0.00    +0.033 C 
BRANCH  30  32
ATOM     32  O   UNL     1      33.390 -12.612 -26.564  0.00  0.00    -0.383 OA
ATOM     33  H   UNL     1      32.984 -13.486 -26.671  0.00  0.00    +0.210 HD
ENDBRANCH  30  32
ENDBRANCH  19  30
ENDBRANCH  18  19
ENDBRANCH   1  18
TORSDOF 8
ENDMDL
MODEL 4
REMARK VINA RESULT:     -10.5      7.811     12.722
REMARK  Name = 46937091
REMARK  8 active torsions:
REMARK  status: ('A' for Active; 'I' for Inactive)
REMARK    1  A    between atoms: C_1  and  C_4
REMARK    2  A    between atoms: C_1  and  C_18
REMARK    3  A    between atoms: C_10  and  C_12
REMARK    4  A    between atoms: C_18  and  C_19
REMARK    5  A    between atoms: C_19  and  N_20
REMARK    6  A    between atoms: C_19  and  C_30
REMARK    7  A    between atoms: C_24  and  C_27
REMARK    8  A    between atoms: C_30  and  O_32
REMARK                            x       y       z     vdW  Elec       q    Type
REMARK                         _______ _______ _______ _____ _____    ______ ____
ROOT
ATOM      1  C   UNL     1      34.584 -15.318 -21.412  0.00  0.00    +0.031 C 
ENDROOT
BRANCH   1   4
ATOM      2  O   UNL     1      34.475 -18.369 -21.234  0.00  0.00    -0.425 OA
ATOM      3  N   UNL     1      34.626 -19.866 -22.929  0.00  0.00    -0.368 NA
ATOM      4  C   UNL     1      34.686 -16.293 -22.558  0.00  0.00    +0.014 C 
ATOM      5  C   UNL     1      34.628 -17.673 -22.399  0.00  0.00    +0.170 C 
ATOM      6  C   UNL     1      34.849 -15.842 -23.872  0.00  0.00    -0.005 C 
ATOM      7  C   UNL     1      34.720 -18.592 -23.434  0.00  0.00    +0.151 C 
ATOM      8  C   UNL     1      34.946 -16.736 -24.945  0.00  0.00    -0.019 C 
ATOM      9  C   UNL     1      34.883 -18.123 -24.745  0.00  0.00    +0.088 C 
ATOM     10  C   UNL     1      34.484 -19.670 -21.637  0.00  0.00    +0.282 C 
BRANCH  10  12
ATOM     11 CL   UNL     1      33.868 -23.664 -17.273  0.00  0.00    -0.082 Cl
ATOM     12  C   UNL     1      34.336 -20.636 -20.582  0.00  0.00    +0.066 C 
ATOM     13  C   UNL     1      33.062 -21.027 -20.170  0.00  0.00    +0.007 C 
ATOM     14  C   UNL     1      35.464 -21.181 -19.972  0.00  0.00    +0.007 C 
ATOM     15  C   UNL     1      32.917 -21.963 -19.146  0.00  0.00    +0.012 C 
ATOM     16  C   UNL     1      35.320 -22.118 -18.949  0.00  0.00    +0.012 C 
ATOM     17  C   UNL     1      34.046 -22.509 -18.536  0.00  0.00    +0.058 C 
ENDBRANCH  10  12
ENDBRANCH   1   4
BRANCH   1  18
ATOM     18  C   UNL     1      34.476 -13.844 -21.839  0.00  0.00    +0.023 C 
BRANCH  18  19
ATOM     19  C   UNL     1      33.174 -13.472 -22.599  0.00  0.00    +0.087 C 
BRANCH  19  20
ATOM     20  N   UNL     1      33.438 -12.637 -23.845  0.00  0.00    -0.246 NA
ATOM     21  N   UNL     1      33.951 -10.878 -25.100  0.00  0.00    -0.251 NA
ATOM     22  C   UNL     1      33.362 -13.066 -25.139  0.00  0.00    +0.125 C 
ATOM     23  C   UNL     1      33.795 -11.317 -23.870  0.00  0.00    +0.201 C 
ATOM     24  C   UNL     1      33.683 -11.964 -25.896  0.00  0.00    +0.124 C 
BRANCH  24  27
ATOM     25  O   UNL     1      32.709 -11.891 -28.039  0.00  0.00    -0.269 OA
ATOM     26  N   UNL     1      35.000 -11.847 -27.942  0.00  0.00    -0.324 N 
ATOM     27  C   UNL     1      33.742 -11.907 -27.323  0.00  0.00    +0.257 C 
ATOM     28  H   UNL     1      35.065 -11.807 -28.924  0.00  0.00    +0.145 HD
ATOM     29  H   UNL     1      35.818 -11.846 -27.395  0.00  0.00    +0.145 HD
ENDBRANCH  24  27
ENDBRANCH  19  20
BRANCH  19  30
ATOM     30  C   UNL     1      32.151 -12.814 -21.634  0.00  0.00    +0.125 C 
ATOM     31  C   UNL     1      31.798 -13.678 -20.428  0.00  0.00    +0.033 C 
BRANCH  30  32
ATOM     32  O   UNL     1      30.956 -12.463 -22.327  0.00  0.00    -0.383 OA
ATOM     33  H   UNL     1      30.847 -13.042 -23.097  0.00  0.00    +0.210 HD
ENDBRANCH  30  32
ENDBRANCH  19  30
ENDBRANCH  18  19
ENDBRANCH   1  18
TORSDOF 8
ENDMDL
MODEL 5
REMARK VINA RESULT:     -10.4      1.507      2.073
REMARK  Name = 46937091
REMARK  8 active torsions:
REMARK  status: ('A' for Active; 'I' for Inactive)
REMARK    1  A    between atoms: C_1  and  C_4
REMARK    2  A    between atoms: C_1  and  C_18
REMARK    3  A    between atoms: C_10  and  C_12
REMARK    4  A    between atoms: C_18  and  C_19
REMARK    5  A    between atoms: C_19  and  N_20
REMARK    6  A    between atoms: C_19  and  C_30
REMARK    7  A    between atoms: C_24  and  C_27
REMARK    8  A    between atoms: C_30  and  O_32
REMARK                            x       y       z     vdW  Elec       q    Type
REMARK                         _______ _______ _______ _____ _____    ______ ____
ROOT
ATOM      1  C   UNL     1      33.244 -24.296 -13.691  0.00  0.00    +0.031 C 
ENDROOT
BRANCH   1   4
ATOM      2  O   UNL     1      32.743 -23.150 -16.482  0.00  0.00    -0.425 OA
ATOM      3  N   UNL     1      30.797 -23.120 -17.643  0.00  0.00    -0.368 NA
ATOM      4  C   UNL     1      31.938 -24.290 -14.442  0.00  0.00    +0.014 C 
ATOM      5  C   UNL     1      31.786 -23.747 -15.713  0.00  0.00    +0.170 C 
ATOM      6  C   UNL     1      30.783 -24.844 -13.879  0.00  0.00    -0.005 C 
ATOM      7  C   UNL     1      30.596 -23.728 -16.427  0.00  0.00    +0.151 C 
ATOM      8  C   UNL     1      29.563 -24.844 -14.566  0.00  0.00    -0.019 C 
ATOM      9  C   UNL     1      29.449 -24.288 -15.849  0.00  0.00    +0.088 C 
ATOM     10  C   UNL     1      32.073 -22.804 -17.616  0.00  0.00    +0.282 C 
BRANCH  10  12
ATOM     11 CL   UNL     1      35.360 -20.069 -21.749  0.00  0.00    -0.082 Cl
ATOM     12  C   UNL     1      32.867 -22.143 -18.615  0.00  0.00    +0.066 C 
ATOM     13  C   UNL     1      34.240 -22.377 -18.681  0.00  0.00    +0.007 C 
ATOM     14  C   UNL     1      32.265 -21.267 -19.518  0.00  0.00    +0.007 C 
ATOM     15  C   UNL     1      35.011 -21.736 -19.651  0.00  0.00    +0.012 C 
ATOM     16  C   UNL     1      33.036 -20.626 -20.487  0.00  0.00    +0.012 C 
ATOM     17  C   UNL     1      34.409 -20.861 -20.554  0.00  0.00    +0.058 C 
ENDBRANCH  10  12
ENDBRANCH   1   4
BRANCH   1  18
ATOM     18  C   UNL     1      34.295 -25.270 -14.251  0.00  0.00    +0.023 C 
BRANCH  18  19
ATOM     19  C   UNL     1      35.426 -24.611 -15.086  0.00  0.00    +0.087 C 
BRANCH  19  20
ATOM     20  N   UNL     1      36.742 -25.374 -15.001  0.00  0.00    -0.246 NA
ATOM     21  N   UNL     1      38.157 -27.085 -14.986  0.00  0.00    -0.251 NA
ATOM     22  C   UNL     1      37.981 -24.832 -14.814  0.00  0.00    +0.125 C 
ATOM     23  C   UNL     1      36.896 -26.729 -15.099  0.00  0.00    +0.201 C 
ATOM     24  C   UNL     1      38.839 -25.907 -14.808  0.00  0.00    +0.124 C 
BRANCH  24  27
ATOM     25  O   UNL     1      40.940 -24.859 -14.990  0.00  0.00    -0.269 OA
ATOM     26  N   UNL     1      40.905 -26.951 -14.052  0.00  0.00    -0.324 N 
ATOM     27  C   UNL     1      40.258 -25.855 -14.642  0.00  0.00    +0.257 C 
ATOM     28  H   UNL     1      41.882 -26.938 -13.927  0.00  0.00    +0.145 HD
ATOM     29  H   UNL     1      40.383 -27.733 -13.762  0.00  0.00    +0.145 HD
ENDBRANCH  24  27
ENDBRANCH  19  20
BRANCH  19  30
ATOM     30  C   UNL     1      35.571 -23.111 -14.714  0.00  0.00    +0.125 C 
ATOM     31  C   UNL     1      36.360 -22.296 -15.734  0.00  0.00    +0.033 C 
BRANCH  30  32
ATOM     32  O   UNL     1      36.172 -22.963 -13.429  0.00  0.00    -0.383 OA
ATOM     33  H   UNL     1      35.993 -22.073 -13.089  0.00  0.00    +0.210 HD
ENDBRANCH  30  32
ENDBRANCH  19  30
ENDBRANCH  18  19
ENDBRANCH   1  18
TORSDOF 8
ENDMDL
MODEL 6
REMARK VINA RESULT:     -10.0      4.032      8.044
REMARK  Name = 46937091
REMARK  8 active torsions:
REMARK  status: ('A' for Active; 'I' for Inactive)
REMARK    1  A    between atoms: C_1  and  C_4
REMARK    2  A    between atoms: C_1  and  C_18
REMARK    3  A    between atoms: C_10  and  C_12
REMARK    4  A    between atoms: C_18  and  C_19
REMARK    5  A    between atoms: C_19  and  N_20
REMARK    6  A    between atoms: C_19  and  C_30
REMARK    7  A    between atoms: C_24  and  C_27
REMARK    8  A    between atoms: C_30  and  O_32
REMARK                            x       y       z     vdW  Elec       q    Type
REMARK                         _______ _______ _______ _____ _____    ______ ____
ROOT
ATOM      1  C   UNL     1      33.314 -22.974 -19.238  0.00  0.00    +0.031 C 
ENDROOT
BRANCH   1   4
ATOM      2  O   UNL     1      34.802 -23.973 -16.760  0.00  0.00    -0.425 OA
ATOM      3  N   UNL     1      34.008 -24.165 -14.646  0.00  0.00    -0.368 NA
ATOM      4  C   UNL     1      32.762 -23.091 -17.840  0.00  0.00    +0.014 C 
ATOM      5  C   UNL     1      33.502 -23.557 -16.759  0.00  0.00    +0.170 C 
ATOM      6  C   UNL     1      31.441 -22.728 -17.558  0.00  0.00    -0.005 C 
ATOM      7  C   UNL     1      33.019 -23.675 -15.464  0.00  0.00    +0.151 C 
ATOM      8  C   UNL     1      30.915 -22.833 -16.264  0.00  0.00    -0.019 C 
ATOM      9  C   UNL     1      31.693 -23.307 -15.198  0.00  0.00    +0.088 C 
ATOM     10  C   UNL     1      35.027 -24.319 -15.462  0.00  0.00    +0.282 C 
BRANCH  10  12
ATOM     11 CL   UNL     1      40.507 -26.317 -14.301  0.00  0.00    -0.082 Cl
ATOM     12  C   UNL     1      36.351 -24.803 -15.181  0.00  0.00    +0.066 C 
ATOM     13  C   UNL     1      37.450 -23.960 -15.346  0.00  0.00    +0.007 C 
ATOM     14  C   UNL     1      36.538 -26.113 -14.743  0.00  0.00    +0.007 C 
ATOM     15  C   UNL     1      38.736 -24.428 -15.074  0.00  0.00    +0.012 C 
ATOM     16  C   UNL     1      37.823 -26.582 -14.471  0.00  0.00    +0.012 C 
ATOM     17  C   UNL     1      38.922 -25.739 -14.637  0.00  0.00    +0.058 C 
ENDBRANCH  10  12
ENDBRANCH   1   4
BRANCH   1  18
ATOM     18  C   UNL     1      33.356 -21.538 -19.787  0.00  0.00    +0.023 C 
BRANCH  18  19
ATOM     19  C   UNL     1      34.730 -20.826 -19.666  0.00  0.00    +0.087 C 
BRANCH  19  20
ATOM     20  N   UNL     1      35.042 -19.941 -20.866  0.00  0.00    -0.246 NA
ATOM     21  N   UNL     1      36.167 -18.573 -22.205  0.00  0.00    -0.251 NA
ATOM     22  C   UNL     1      34.218 -19.695 -21.926  0.00  0.00    +0.125 C 
ATOM     23  C   UNL     1      36.201 -19.247 -21.077  0.00  0.00    +0.201 C 
ATOM     24  C   UNL     1      34.934 -18.849 -22.741  0.00  0.00    +0.124 C 
BRANCH  24  27
ATOM     25  O   UNL     1      33.580 -18.829 -24.668  0.00  0.00    -0.269 OA
ATOM     26  N   UNL     1      35.095 -17.122 -24.451  0.00  0.00    -0.324 N 
ATOM     27  C   UNL     1      34.494 -18.301 -23.986  0.00  0.00    +0.257 C 
ATOM     28  H   UNL     1      34.809 -16.727 -25.307  0.00  0.00    +0.145 HD
ATOM     29  H   UNL     1      35.804 -16.690 -23.923  0.00  0.00    +0.145 HD
ENDBRANCH  24  27
ENDBRANCH  19  20
BRANCH  19  30
ATOM     30  C   UNL     1      35.851 -21.858 -19.368  0.00  0.00    +0.125 C 
ATOM     31  C   UNL     1      36.681 -21.526 -18.131  0.00  0.00    +0.033 C 
BRANCH  30  32
ATOM     32  O   UNL     1      36.718 -22.003 -20.490  0.00  0.00    -0.383 OA
ATOM     33  H   UNL     1      36.919 -21.128 -20.858  0.00  0.00    +0.210 HD
ENDBRANCH  30  32
ENDBRANCH  19  30
ENDBRANCH  18  19
ENDBRANCH   1  18
TORSDOF 8
ENDMDL
MODEL 7
REMARK VINA RESULT:     -10.0     11.981     15.901
REMARK  Name = 46937091
REMARK  8 active torsions:
REMARK  status: ('A' for Active; 'I' for Inactive)
REMARK    1  A    between atoms: C_1  and  C_4
REMARK    2  A    between atoms: C_1  and  C_18
REMARK    3  A    between atoms: C_10  and  C_12
REMARK    4  A    between atoms: C_18  and  C_19
REMARK    5  A    between atoms: C_19  and  N_20
REMARK    6  A    between atoms: C_19  and  C_30
REMARK    7  A    between atoms: C_24  and  C_27
REMARK    8  A    between atoms: C_30  and  O_32
REMARK                            x       y       z     vdW  Elec       q    Type
REMARK                         _______ _______ _______ _____ _____    ______ ____
ROOT
ATOM      1  C   UNL     1      31.838 -12.247 -22.292  0.00  0.00    +0.031 C 
ENDROOT
BRANCH   1   4
ATOM      2  O   UNL     1      32.681  -9.327 -22.627  0.00  0.00    -0.425 OA
ATOM      3  N   UNL     1      32.486  -7.643 -21.123  0.00  0.00    -0.368 NA
ATOM      4  C   UNL     1      31.695 -11.145 -21.274  0.00  0.00    +0.014 C 
ATOM      5  C   UNL     1      32.104  -9.835 -21.499  0.00  0.00    +0.170 C 
ATOM      6  C   UNL     1      31.130 -11.395 -20.019  0.00  0.00    -0.005 C 
ATOM      7  C   UNL     1      31.985  -8.802 -20.581  0.00  0.00    +0.151 C 
ATOM      8  C   UNL     1      30.992 -10.380 -19.064  0.00  0.00    -0.019 C 
ATOM      9  C   UNL     1      31.416  -9.070 -19.328  0.00  0.00    +0.088 C 
ATOM     10  C   UNL     1      32.877  -8.014 -22.321  0.00  0.00    +0.282 C 
BRANCH  10  12
ATOM     11 CL   UNL     1      35.395  -4.771 -26.625  0.00  0.00    -0.082 Cl
ATOM     12  C   UNL     1      33.486  -7.231 -23.361  0.00  0.00    +0.066 C 
ATOM     13  C   UNL     1      32.873  -6.057 -23.800  0.00  0.00    +0.007 C 
ATOM     14  C   UNL     1      34.690  -7.643 -23.931  0.00  0.00    +0.007 C 
ATOM     15  C   UNL     1      33.463  -5.297 -24.809  0.00  0.00    +0.012 C 
ATOM     16  C   UNL     1      35.281  -6.883 -24.941  0.00  0.00    +0.012 C 
ATOM     17  C   UNL     1      34.667  -5.709 -25.379  0.00  0.00    +0.058 C 
ENDBRANCH  10  12
ENDBRANCH   1   4
BRANCH   1  18
ATOM     18  C   UNL     1      32.711 -13.428 -21.833  0.00  0.00    +0.023 C 
BRANCH  18  19
ATOM     19  C   UNL     1      33.960 -13.704 -22.711  0.00  0.00    +0.087 C 
BRANCH  19  20
ATOM     20  N   UNL     1      33.852 -13.087 -24.100  0.00  0.00    -0.246 NA
ATOM     21  N   UNL     1      33.443 -12.921 -26.276  0.00  0.00    -0.251 NA
ATOM     22  C   UNL     1      34.165 -11.803 -24.441  0.00  0.00    +0.125 C 
ATOM     23  C   UNL     1      33.423 -13.721 -25.233  0.00  0.00    +0.201 C 
ATOM     24  C   UNL     1      33.904 -11.723 -25.789  0.00  0.00    +0.124 C 
BRANCH  24  27
ATOM     25  O   UNL     1      35.029 -10.460 -27.429  0.00  0.00    -0.269 OA
ATOM     26  N   UNL     1      33.135  -9.533 -26.528  0.00  0.00    -0.324 N 
ATOM     27  C   UNL     1      34.076 -10.569 -26.617  0.00  0.00    +0.257 C 
ATOM     28  H   UNL     1      33.233  -8.729 -27.088  0.00  0.00    +0.145 HD
ATOM     29  H   UNL     1      32.376  -9.609 -25.906  0.00  0.00    +0.145 HD
ENDBRANCH  24  27
ENDBRANCH  19  20
BRANCH  19  30
ATOM     30  C   UNL     1      34.273 -15.224 -22.747  0.00  0.00    +0.125 C 
ATOM     31  C   UNL     1      34.531 -15.833 -21.372  0.00  0.00    +0.033 C 
BRANCH  30  32
ATOM     32  O   UNL     1      35.387 -15.492 -23.596  0.00  0.00    -0.383 OA
ATOM     33  H   UNL     1      36.047 -14.789 -23.494  0.00  0.00    +0.210 HD
ENDBRANCH  30  32
ENDBRANCH  19  30
ENDBRANCH  18  19
ENDBRANCH   1  18
TORSDOF 8
ENDMDL
MODEL 8
REMARK VINA RESULT:      -9.9      1.663      3.459
REMARK  Name = 46937091
REMARK  8 active torsions:
REMARK  status: ('A' for Active; 'I' for Inactive)
REMARK    1  A    between atoms: C_1  and  C_4
REMARK    2  A    between atoms: C_1  and  C_18
REMARK    3  A    between atoms: C_10  and  C_12
REMARK    4  A    between atoms: C_18  and  C_19
REMARK    5  A    between atoms: C_19  and  N_20
REMARK    6  A    between atoms: C_19  and  C_30
REMARK    7  A    between atoms: C_24  and  C_27
REMARK    8  A    between atoms: C_30  and  O_32
REMARK                            x       y       z     vdW  Elec       q    Type
REMARK                         _______ _______ _______ _____ _____    ______ ____
ROOT
ATOM      1  C   UNL     1      33.876 -24.649 -15.186  0.00  0.00    +0.031 C 
ENDROOT
BRANCH   1   4
ATOM      2  O   UNL     1      33.292 -22.846 -17.587  0.00  0.00    -0.425 OA
ATOM      3  N   UNL     1      31.275 -22.123 -18.323  0.00  0.00    -0.368 NA
ATOM      4  C   UNL     1      32.522 -24.182 -15.656  0.00  0.00    +0.014 C 
ATOM      5  C   UNL     1      32.334 -23.359 -16.760  0.00  0.00    +0.170 C 
ATOM      6  C   UNL     1      31.357 -24.565 -14.982  0.00  0.00    -0.005 C 
ATOM      7  C   UNL     1      31.101 -22.915 -17.214  0.00  0.00    +0.151 C 
ATOM      8  C   UNL     1      30.093 -24.139 -15.407  0.00  0.00    -0.019 C 
ATOM      9  C   UNL     1      29.944 -23.309 -16.528  0.00  0.00    +0.088 C 
ATOM     10  C   UNL     1      32.579 -22.121 -18.492  0.00  0.00    +0.282 C 
BRANCH  10  12
ATOM     11 CL   UNL     1      35.830 -19.387 -22.654  0.00  0.00    -0.082 Cl
ATOM     12  C   UNL     1      33.364 -21.460 -19.498  0.00  0.00    +0.066 C 
ATOM     13  C   UNL     1      34.741 -21.674 -19.559  0.00  0.00    +0.007 C 
ATOM     14  C   UNL     1      32.750 -20.605 -20.413  0.00  0.00    +0.007 C 
ATOM     15  C   UNL     1      35.504 -21.032 -20.535  0.00  0.00    +0.012 C 
ATOM     16  C   UNL     1      33.513 -19.964 -21.389  0.00  0.00    +0.012 C 
ATOM     17  C   UNL     1      34.890 -20.178 -21.450  0.00  0.00    +0.058 C 
ENDBRANCH  10  12
ENDBRANCH   1   4
BRANCH   1  18
ATOM     18  C   UNL     1      35.055 -24.127 -16.027  0.00  0.00    +0.023 C 
BRANCH  18  19
ATOM     19  C   UNL     1      36.461 -24.396 -15.427  0.00  0.00    +0.087 C 
BRANCH  19  20
ATOM     20  N   UNL     1      36.411 -24.757 -13.948  0.00  0.00    -0.246 NA
ATOM     21  N   UNL     1      36.601 -25.964 -12.094  0.00  0.00    -0.251 NA
ATOM     22  C   UNL     1      36.021 -23.938 -12.928  0.00  0.00    +0.125 C 
ATOM     23  C   UNL     1      36.751 -25.963 -13.400  0.00  0.00    +0.201 C 
ATOM     24  C   UNL     1      36.147 -24.704 -11.793  0.00  0.00    +0.124 C 
BRANCH  24  27
ATOM     25  O   UNL     1      35.090 -24.941  -9.701  0.00  0.00    -0.269 OA
ATOM     26  N   UNL     1      36.459 -23.121  -9.968  0.00  0.00    -0.324 N 
ATOM     27  C   UNL     1      35.854 -24.289 -10.456  0.00  0.00    +0.257 C 
ATOM     28  H   UNL     1      36.272 -22.816  -9.050  0.00  0.00    +0.145 HD
ATOM     29  H   UNL     1      37.070 -22.606 -10.542  0.00  0.00    +0.145 HD
ENDBRANCH  24  27
ENDBRANCH  19  20
BRANCH  19  30
ATOM     30  C   UNL     1      37.416 -23.210 -15.729  0.00  0.00    +0.125 C 
ATOM     31  C   UNL     1      36.905 -22.268 -16.814  0.00  0.00    +0.033 C 
BRANCH  30  32
ATOM     32  O   UNL     1      38.712 -23.683 -16.091  0.00  0.00    -0.383 OA
ATOM     33  H   UNL     1      38.910 -23.418 -17.002  0.00  0.00    +0.210 HD
ENDBRANCH  30  32
ENDBRANCH  19  30
ENDBRANCH  18  19
ENDBRANCH   1  18
TORSDOF 8
ENDMDL
MODEL 9
REMARK VINA RESULT:      -9.7      2.966      5.790
REMARK  Name = 46937091
REMARK  8 active torsions:
REMARK  status: ('A' for Active; 'I' for Inactive)
REMARK    1  A    between atoms: C_1  and  C_4
REMARK    2  A    between atoms: C_1  and  C_18
REMARK    3  A    between atoms: C_10  and  C_12
REMARK    4  A    between atoms: C_18  and  C_19
REMARK    5  A    between atoms: C_19  and  N_20
REMARK    6  A    between atoms: C_19  and  C_30
REMARK    7  A    between atoms: C_24  and  C_27
REMARK    8  A    between atoms: C_30  and  O_32
REMARK                            x       y       z     vdW  Elec       q    Type
REMARK                         _______ _______ _______ _____ _____    ______ ____
ROOT
ATOM      1  C   UNL     1      32.607 -22.531 -18.552  0.00  0.00    +0.031 C 
ENDROOT
BRANCH   1   4
ATOM      2  O   UNL     1      34.252 -20.662 -20.328  0.00  0.00    -0.425 OA
ATOM      3  N   UNL     1      36.478 -20.247 -20.223  0.00  0.00    -0.368 NA
ATOM      4  C   UNL     1      34.089 -22.271 -18.459  0.00  0.00    +0.014 C 
ATOM      5  C   UNL     1      34.771 -21.405 -19.306  0.00  0.00    +0.170 C 
ATOM      6  C   UNL     1      34.871 -22.910 -17.490  0.00  0.00    -0.005 C 
ATOM      7  C   UNL     1      36.133 -21.148 -19.244  0.00  0.00    +0.151 C 
ATOM      8  C   UNL     1      36.249 -22.679 -17.394  0.00  0.00    -0.019 C 
ATOM      9  C   UNL     1      36.901 -21.796 -18.267  0.00  0.00    +0.088 C 
ATOM     10  C   UNL     1      35.335 -20.000 -20.823  0.00  0.00    +0.282 C 
BRANCH  10  12
ATOM     11 CL   UNL     1      34.202 -16.392 -25.413  0.00  0.00    -0.082 Cl
ATOM     12  C   UNL     1      35.061 -19.129 -21.933  0.00  0.00    +0.066 C 
ATOM     13  C   UNL     1      35.302 -17.760 -21.820  0.00  0.00    +0.007 C 
ATOM     14  C   UNL     1      34.555 -19.652 -23.122  0.00  0.00    +0.007 C 
ATOM     15  C   UNL     1      35.036 -16.914 -22.896  0.00  0.00    +0.012 C 
ATOM     16  C   UNL     1      34.289 -18.805 -24.199  0.00  0.00    +0.012 C 
ATOM     17  C   UNL     1      34.530 -17.436 -24.085  0.00  0.00    +0.058 C 
ENDBRANCH  10  12
ENDBRANCH   1   4
BRANCH   1  18
ATOM     18  C   UNL     1      32.078 -23.562 -17.540  0.00  0.00    +0.023 C 
BRANCH  18  19
ATOM     19  C   UNL     1      31.434 -22.960 -16.262  0.00  0.00    +0.087 C 
BRANCH  19  20
ATOM     20  N   UNL     1      32.143 -23.393 -14.986  0.00  0.00    -0.246 NA
ATOM     21  N   UNL     1      32.534 -23.685 -12.819  0.00  0.00    -0.251 NA
ATOM     22  C   UNL     1      33.338 -24.049 -14.906  0.00  0.00    +0.125 C 
ATOM     23  C   UNL     1      31.698 -23.196 -13.708  0.00  0.00    +0.201 C 
ATOM     24  C   UNL     1      33.559 -24.219 -13.559  0.00  0.00    +0.124 C 
BRANCH  24  27
ATOM     25  O   UNL     1      34.779 -25.047 -11.723  0.00  0.00    -0.269 OA
ATOM     26  N   UNL     1      35.727 -25.304 -13.794  0.00  0.00    -0.324 N 
ATOM     27  C   UNL     1      34.690 -24.858 -12.962  0.00  0.00    +0.257 C 
ATOM     28  H   UNL     1      36.516 -25.747 -13.405  0.00  0.00    +0.145 HD
ATOM     29  H   UNL     1      35.666 -25.174 -14.768  0.00  0.00    +0.145 HD
ENDBRANCH  24  27
ENDBRANCH  19  20
BRANCH  19  30
ATOM     30  C   UNL     1      29.909 -23.248 -16.235  0.00  0.00    +0.125 C 
ATOM     31  C   UNL     1      29.563 -24.733 -16.217  0.00  0.00    +0.033 C 
BRANCH  30  32
ATOM     32  O   UNL     1      29.256 -22.627 -17.340  0.00  0.00    -0.383 OA
ATOM     33  H   UNL     1      29.756 -22.806 -18.152  0.00  0.00    +0.210 HD
ENDBRANCH  30  32
ENDBRANCH  19  30
ENDBRANCH  18  19
ENDBRANCH   1  18
TORSDOF 8
ENDMDL
