MODEL 1
REMARK VINA RESULT:     -12.1      0.000      0.000
REMARK  Name = 5288711
REMARK  4 active torsions:
REMARK  status: ('A' for Active; 'I' for Inactive)
REMARK    1  A    between atoms: C_1  and  S_7
REMARK    2  A    between atoms: C_2  and  N_17
REMARK    3  A    between atoms: S_7  and  N_11
REMARK    4  A    between atoms: N_17  and  C_25
REMARK                            x       y       z     vdW  Elec       q    Type
REMARK                         _______ _______ _______ _____ _____    ______ ____
ROOT
ATOM      1  C   UNL     1      34.124 -22.041 -19.238  0.00  0.00    +0.125 C 
ATOM      2  C   UNL     1      35.155 -20.152 -21.023  0.00  0.00    +0.048 C 
ATOM      3  C   UNL     1      33.259 -21.248 -19.992  0.00  0.00    +0.021 C 
ATOM      4  C   UNL     1      35.504 -21.892 -19.376  0.00  0.00    +0.021 C 
ATOM      5  C   UNL     1      33.773 -20.306 -20.882  0.00  0.00    +0.016 C 
ATOM      6  C   UNL     1      36.019 -20.950 -20.266  0.00  0.00    +0.016 C 
ENDROOT
BRANCH   1   7
ATOM      7  S   UNL     1      33.481 -23.221 -18.123  0.00  0.00    +0.075 S 
ATOM      8  O   UNL     1      33.197 -24.446 -18.860  0.00  0.00    -0.150 OA
ATOM      9  O   UNL     1      34.368 -23.267 -16.968  0.00  0.00    -0.150 OA
BRANCH   7  11
ATOM     10  S   UNL     1      29.524 -23.296 -16.707  0.00  0.00    -0.050 S 
ATOM     11  N   UNL     1      31.991 -22.484 -17.683  0.00  0.00    -0.194 N 
ATOM     12  N   UNL     1      31.820 -23.689 -15.587  0.00  0.00    -0.221 NA
ATOM     13  C   UNL     1      31.221 -23.167 -16.620  0.00  0.00    +0.179 C 
ATOM     14  C   UNL     1      29.555 -24.139 -15.214  0.00  0.00    +0.059 C 
ATOM     15  C   UNL     1      30.857 -24.252 -14.773  0.00  0.00    +0.108 C 
ATOM     16  H   UNL     1      31.671 -21.657 -18.111  0.00  0.00    +0.176 HD
ENDBRANCH   7  11
ENDBRANCH   1   7
BRANCH   2  17
ATOM     17  N   UNL     1      35.673 -19.204 -21.919  0.00  0.00    -0.311 N 
ATOM     18  H   UNL     1      36.375 -19.529 -22.528  0.00  0.00    +0.152 HD
BRANCH  17  25
ATOM     19  O   UNL     1      34.603 -19.209 -24.614  0.00  0.00    -0.270 OA
ATOM     20  N   UNL     1      33.895 -17.035 -25.209  0.00  0.00    -0.280 N 
ATOM     21  C   UNL     1      34.416 -15.896 -23.280  0.00  0.00    +0.019 C 
ATOM     22  C   UNL     1      34.784 -17.299 -23.117  0.00  0.00    +0.069 C 
ATOM     23  C   UNL     1      33.881 -15.791 -24.568  0.00  0.00    +0.051 C 
ATOM     24  C   UNL     1      34.438 -18.026 -24.384  0.00  0.00    +0.251 C 
ATOM     25  C   UNL     1      35.335 -17.896 -22.058  0.00  0.00    +0.066 C 
ATOM     26  C   UNL     1      34.502 -14.788 -22.459  0.00  0.00    +0.001 C 
ATOM     27  C   UNL     1      33.419 -14.596 -25.081  0.00  0.00    +0.015 C 
ATOM     28  C   UNL     1      34.039 -13.566 -22.959  0.00  0.00    +0.000 C 
ATOM     29  C   UNL     1      33.503 -13.471 -24.257  0.00  0.00    +0.001 C 
ATOM     30  H   UNL     1      33.567 -17.193 -26.123  0.00  0.00    +0.155 HD
ENDBRANCH  17  25
ENDBRANCH   2  17
TORSDOF 4
ENDMDL
MODEL 2
REMARK VINA RESULT:     -11.2      2.059      2.321
REMARK  Name = 5288711
REMARK  4 active torsions:
REMARK  status: ('A' for Active; 'I' for Inactive)
REMARK    1  A    between atoms: C_1  and  S_7
REMARK    2  A    between atoms: C_2  and  N_17
REMARK    3  A    between atoms: S_7  and  N_11
REMARK    4  A    between atoms: N_17  and  C_25
REMARK                            x       y       z     vdW  Elec       q    Type
REMARK                         _______ _______ _______ _____ _____    ______ ____
ROOT
ATOM      1  C   UNL     1      33.810 -22.208 -18.850  0.00  0.00    +0.125 C 
ATOM      2  C   UNL     1      35.092 -20.463 -20.618  0.00  0.00    +0.048 C 
ATOM      3  C   UNL     1      33.057 -21.412 -19.714  0.00  0.00    +0.021 C 
ATOM      4  C   UNL     1      35.202 -22.134 -18.869  0.00  0.00    +0.021 C 
ATOM      5  C   UNL     1      33.696 -20.542 -20.596  0.00  0.00    +0.016 C 
ATOM      6  C   UNL     1      35.843 -21.263 -19.752  0.00  0.00    +0.016 C 
ENDROOT
BRANCH   1   7
ATOM      7  S   UNL     1      33.010 -23.298 -17.745  0.00  0.00    +0.075 S 
ATOM      8  O   UNL     1      31.581 -23.010 -17.767  0.00  0.00    -0.150 OA
ATOM      9  O   UNL     1      33.474 -24.648 -18.041  0.00  0.00    -0.150 OA
BRANCH   7  11
ATOM     10  S   UNL     1      34.372 -23.933 -13.820  0.00  0.00    -0.050 S 
ATOM     11  N   UNL     1      33.656 -22.779 -16.240  0.00  0.00    -0.194 N 
ATOM     12  N   UNL     1      35.313 -24.545 -16.149  0.00  0.00    -0.221 NA
ATOM     13  C   UNL     1      34.480 -23.769 -15.513  0.00  0.00    +0.179 C 
ATOM     14  C   UNL     1      35.556 -25.170 -13.907  0.00  0.00    +0.059 C 
ATOM     15  C   UNL     1      35.936 -25.355 -15.221  0.00  0.00    +0.108 C 
ATOM     16  H   UNL     1      33.488 -21.876 -15.883  0.00  0.00    +0.176 HD
ENDBRANCH   7  11
ENDBRANCH   1   7
BRANCH   2  17
ATOM     17  N   UNL     1      35.736 -19.586 -21.506  0.00  0.00    -0.311 N 
ATOM     18  H   UNL     1      36.513 -19.956 -21.984  0.00  0.00    +0.152 HD
BRANCH  17  25
ATOM     19  O   UNL     1      34.758 -19.860 -24.222  0.00  0.00    -0.270 OA
ATOM     20  N   UNL     1      34.115 -17.750 -25.068  0.00  0.00    -0.280 N 
ATOM     21  C   UNL     1      34.592 -16.421 -23.252  0.00  0.00    +0.019 C 
ATOM     22  C   UNL     1      34.926 -17.805 -22.929  0.00  0.00    +0.069 C 
ATOM     23  C   UNL     1      34.104 -16.445 -24.562  0.00  0.00    +0.051 C 
ATOM     24  C   UNL     1      34.609 -18.656 -24.124  0.00  0.00    +0.251 C 
ATOM     25  C   UNL     1      35.428 -18.295 -21.794  0.00  0.00    +0.066 C 
ATOM     26  C   UNL     1      34.673 -15.234 -22.550  0.00  0.00    +0.001 C 
ATOM     27  C   UNL     1      33.683 -15.303 -25.215  0.00  0.00    +0.015 C 
ATOM     28  C   UNL     1      34.252 -14.064 -23.193  0.00  0.00    +0.000 C 
ATOM     29  C   UNL     1      33.762 -14.099 -24.512  0.00  0.00    +0.001 C 
ATOM     30  H   UNL     1      33.814 -17.998 -25.972  0.00  0.00    +0.155 HD
ENDBRANCH  17  25
ENDBRANCH   2  17
TORSDOF 4
ENDMDL
MODEL 3
REMARK VINA RESULT:     -11.2      2.768      9.686
REMARK  Name = 5288711
REMARK  4 active torsions:
REMARK  status: ('A' for Active; 'I' for Inactive)
REMARK    1  A    between atoms: C_1  and  S_7
REMARK    2  A    between atoms: C_2  and  N_17
REMARK    3  A    between atoms: S_7  and  N_11
REMARK    4  A    between atoms: N_17  and  C_25
REMARK                            x       y       z     vdW  Elec       q    Type
REMARK                         _______ _______ _______ _____ _____    ______ ____
ROOT
ATOM      1  C   UNL     1      35.374 -19.890 -20.873  0.00  0.00    +0.125 C 
ATOM      2  C   UNL     1      34.271 -22.166 -19.683  0.00  0.00    +0.048 C 
ATOM      3  C   UNL     1      36.204 -20.831 -20.265  0.00  0.00    +0.021 C 
ATOM      4  C   UNL     1      33.993 -20.084 -20.888  0.00  0.00    +0.021 C 
ATOM      5  C   UNL     1      35.654 -21.967 -19.672  0.00  0.00    +0.016 C 
ATOM      6  C   UNL     1      33.442 -21.220 -20.295  0.00  0.00    +0.016 C 
ENDROOT
BRANCH   1   7
ATOM      7  S   UNL     1      36.062 -18.467 -21.616  0.00  0.00    +0.075 S 
ATOM      8  O   UNL     1      35.387 -17.293 -21.078  0.00  0.00    -0.150 OA
ATOM      9  O   UNL     1      37.512 -18.572 -21.512  0.00  0.00    -0.150 OA
BRANCH   7  11
ATOM     10  S   UNL     1      33.649 -17.655 -24.960  0.00  0.00    -0.050 S 
ATOM     11  N   UNL     1      35.581 -18.681 -23.253  0.00  0.00    -0.194 N 
ATOM     12  N   UNL     1      35.457 -16.303 -23.703  0.00  0.00    -0.221 NA
ATOM     13  C   UNL     1      34.981 -17.498 -23.909  0.00  0.00    +0.179 C 
ATOM     14  C   UNL     1      33.680 -15.955 -25.185  0.00  0.00    +0.059 C 
ATOM     15  C   UNL     1      34.705 -15.409 -24.441  0.00  0.00    +0.108 C 
ATOM     16  H   UNL     1      35.697 -19.537 -23.724  0.00  0.00    +0.176 HD
ENDBRANCH   7  11
ENDBRANCH   1   7
BRANCH   2  17
ATOM     17  N   UNL     1      33.717 -23.310 -19.085  0.00  0.00    -0.311 N 
ATOM     18  H   UNL     1      34.086 -24.171 -19.387  0.00  0.00    +0.152 HD
BRANCH  17  25
ATOM     19  O   UNL     1      35.306 -23.371 -16.661  0.00  0.00    -0.270 OA
ATOM     20  N   UNL     1      33.895 -23.506 -14.770  0.00  0.00    -0.280 N 
ATOM     21  C   UNL     1      31.838 -23.525 -15.800  0.00  0.00    +0.019 C 
ATOM     22  C   UNL     1      32.878 -23.443 -16.820  0.00  0.00    +0.069 C 
ATOM     23  C   UNL     1      32.510 -23.560 -14.574  0.00  0.00    +0.051 C 
ATOM     24  C   UNL     1      34.212 -23.432 -16.131  0.00  0.00    +0.251 C 
ATOM     25  C   UNL     1      32.740 -23.386 -18.146  0.00  0.00    +0.066 C 
ATOM     26  C   UNL     1      30.458 -23.568 -15.850  0.00  0.00    +0.001 C 
ATOM     27  C   UNL     1      31.844 -23.639 -13.368  0.00  0.00    +0.015 C 
ATOM     28  C   UNL     1      29.762 -23.648 -14.638  0.00  0.00    +0.000 C 
ATOM     29  C   UNL     1      30.448 -23.683 -13.410  0.00  0.00    +0.001 C 
ATOM     30  H   UNL     1      34.560 -23.518 -14.045  0.00  0.00    +0.155 HD
ENDBRANCH  17  25
ENDBRANCH   2  17
TORSDOF 4
ENDMDL
MODEL 4
REMARK VINA RESULT:     -11.0      2.751      9.975
REMARK  Name = 5288711
REMARK  4 active torsions:
REMARK  status: ('A' for Active; 'I' for Inactive)
REMARK    1  A    between atoms: C_1  and  S_7
REMARK    2  A    between atoms: C_2  and  N_17
REMARK    3  A    between atoms: S_7  and  N_11
REMARK    4  A    between atoms: N_17  and  C_25
REMARK                            x       y       z     vdW  Elec       q    Type
REMARK                         _______ _______ _______ _____ _____    ______ ____
ROOT
ATOM      1  C   UNL     1      35.292 -19.861 -21.265  0.00  0.00    +0.125 C 
ATOM      2  C   UNL     1      34.772 -21.817 -19.336  0.00  0.00    +0.048 C 
ATOM      3  C   UNL     1      36.347 -20.465 -20.581  0.00  0.00    +0.021 C 
ATOM      4  C   UNL     1      33.977 -20.233 -20.986  0.00  0.00    +0.021 C 
ATOM      5  C   UNL     1      36.088 -21.441 -19.619  0.00  0.00    +0.016 C 
ATOM      6  C   UNL     1      33.717 -21.209 -20.024  0.00  0.00    +0.016 C 
ENDROOT
BRANCH   1   7
ATOM      7  S   UNL     1      35.616 -18.638 -22.468  0.00  0.00    +0.075 S 
ATOM      8  O   UNL     1      37.029 -18.286 -22.399  0.00  0.00    -0.150 OA
ATOM      9  O   UNL     1      35.054 -19.100 -23.731  0.00  0.00    -0.150 OA
BRANCH   7  11
ATOM     10  S   UNL     1      34.524 -14.584 -22.278  0.00  0.00    -0.050 S 
ATOM     11  N   UNL     1      34.688 -17.323 -21.865  0.00  0.00    -0.194 N 
ATOM     12  N   UNL     1      34.219 -16.425 -24.067  0.00  0.00    -0.221 NA
ATOM     13  C   UNL     1      34.466 -16.203 -22.806  0.00  0.00    +0.179 C 
ATOM     14  C   UNL     1      34.186 -14.092 -23.885  0.00  0.00    +0.059 C 
ATOM     15  C   UNL     1      34.057 -15.204 -24.692  0.00  0.00    +0.108 C 
ATOM     16  H   UNL     1      34.326 -17.316 -20.950  0.00  0.00    +0.176 HD
ENDBRANCH   7  11
ENDBRANCH   1   7
BRANCH   2  17
ATOM     17  N   UNL     1      34.511 -22.800 -18.368  0.00  0.00    -0.311 N 
ATOM     18  H   UNL     1      35.266 -23.390 -18.144  0.00  0.00    +0.152 HD
BRANCH  17  25
ATOM     19  O   UNL     1      35.527 -24.164 -16.020  0.00  0.00    -0.270 OA
ATOM     20  N   UNL     1      33.742 -24.754 -14.589  0.00  0.00    -0.280 N 
ATOM     21  C   UNL     1      31.966 -23.929 -15.795  0.00  0.00    +0.019 C 
ATOM     22  C   UNL     1      33.200 -23.659 -16.525  0.00  0.00    +0.069 C 
ATOM     23  C   UNL     1      32.352 -24.595 -14.628  0.00  0.00    +0.051 C 
ATOM     24  C   UNL     1      34.348 -24.205 -15.724  0.00  0.00    +0.251 C 
ATOM     25  C   UNL     1      33.355 -23.044 -17.699  0.00  0.00    +0.066 C 
ATOM     26  C   UNL     1      30.634 -23.661 -16.047  0.00  0.00    +0.001 C 
ATOM     27  C   UNL     1      31.440 -25.014 -13.680  0.00  0.00    +0.015 C 
ATOM     28  C   UNL     1      29.692 -24.077 -15.099  0.00  0.00    +0.000 C 
ATOM     29  C   UNL     1      30.092 -24.747 -13.927  0.00  0.00    +0.001 C 
ATOM     30  H   UNL     1      34.230 -25.197 -13.859  0.00  0.00    +0.155 HD
ENDBRANCH  17  25
ENDBRANCH   2  17
TORSDOF 4
ENDMDL
MODEL 5
REMARK VINA RESULT:     -10.8      3.916      6.794
REMARK  Name = 5288711
REMARK  4 active torsions:
REMARK  status: ('A' for Active; 'I' for Inactive)
REMARK    1  A    between atoms: C_1  and  S_7
REMARK    2  A    between atoms: C_2  and  N_17
REMARK    3  A    between atoms: S_7  and  N_11
REMARK    4  A    between atoms: N_17  and  C_25
REMARK                            x       y       z     vdW  Elec       q    Type
REMARK                         _______ _______ _______ _____ _____    ______ ____
ROOT
ATOM      1  C   UNL     1      34.734 -17.100 -23.468  0.00  0.00    +0.125 C 
ATOM      2  C   UNL     1      33.964 -14.538 -24.277  0.00  0.00    +0.048 C 
ATOM      3  C   UNL     1      34.282 -16.886 -24.770  0.00  0.00    +0.021 C 
ATOM      4  C   UNL     1      34.803 -16.035 -22.570  0.00  0.00    +0.021 C 
ATOM      5  C   UNL     1      33.898 -15.608 -25.174  0.00  0.00    +0.016 C 
ATOM      6  C   UNL     1      34.419 -14.756 -22.973  0.00  0.00    +0.016 C 
ENDROOT
BRANCH   1   7
ATOM      7  S   UNL     1      35.215 -18.700 -22.961  0.00  0.00    +0.075 S 
ATOM      8  O   UNL     1      34.843 -19.646 -24.006  0.00  0.00    -0.150 OA
ATOM      9  O   UNL     1      36.602 -18.627 -22.521  0.00  0.00    -0.150 OA
BRANCH   7  11
ATOM     10  S   UNL     1      33.182 -21.091 -20.166  0.00  0.00    -0.050 S 
ATOM     11  N   UNL     1      34.187 -18.943 -21.605  0.00  0.00    -0.194 N 
ATOM     12  N   UNL     1      35.677 -20.534 -20.546  0.00  0.00    -0.221 NA
ATOM     13  C   UNL     1      34.456 -20.152 -20.798  0.00  0.00    +0.179 C 
ATOM     14  C   UNL     1      34.352 -22.135 -19.472  0.00  0.00    +0.059 C 
ATOM     15  C   UNL     1      35.617 -21.681 -19.779  0.00  0.00    +0.108 C 
ATOM     16  H   UNL     1      33.463 -18.314 -21.379  0.00  0.00    +0.176 HD
ENDBRANCH   7  11
ENDBRANCH   1   7
BRANCH   2  17
ATOM     17  N   UNL     1      33.577 -13.250 -24.685  0.00  0.00    -0.311 N 
ATOM     18  H   UNL     1      33.693 -13.052 -25.642  0.00  0.00    +0.152 HD
BRANCH  17  25
ATOM     19  O   UNL     1      35.041 -10.986 -25.752  0.00  0.00    -0.270 OA
ATOM     20  N   UNL     1      34.385  -9.004 -24.646  0.00  0.00    -0.280 N 
ATOM     21  C   UNL     1      32.827  -9.852 -23.183  0.00  0.00    +0.019 C 
ATOM     22  C   UNL     1      33.369 -10.945 -23.983  0.00  0.00    +0.069 C 
ATOM     23  C   UNL     1      33.478  -8.696 -23.626  0.00  0.00    +0.051 C 
ATOM     24  C   UNL     1      34.384 -10.374 -24.932  0.00  0.00    +0.251 C 
ATOM     25  C   UNL     1      33.064 -12.243 -23.933  0.00  0.00    +0.066 C 
ATOM     26  C   UNL     1      31.884  -9.787 -22.175  0.00  0.00    +0.001 C 
ATOM     27  C   UNL     1      33.219  -7.450 -23.091  0.00  0.00    +0.015 C 
ATOM     28  C   UNL     1      31.605  -8.534 -21.619  0.00  0.00    +0.000 C 
ATOM     29  C   UNL     1      32.266  -7.377 -22.073  0.00  0.00    +0.001 C 
ATOM     30  H   UNL     1      34.952  -8.343 -25.104  0.00  0.00    +0.155 HD
ENDBRANCH  17  25
ENDBRANCH   2  17
TORSDOF 4
ENDMDL
MODEL 6
REMARK VINA RESULT:     -10.7      4.203      6.082
REMARK  Name = 5288711
REMARK  4 active torsions:
REMARK  status: ('A' for Active; 'I' for Inactive)
REMARK    1  A    between atoms: C_1  and  S_7
REMARK    2  A    between atoms: C_2  and  N_17
REMARK    3  A    between atoms: S_7  and  N_11
REMARK    4  A    between atoms: N_17  and  C_25
REMARK                            x       y       z     vdW  Elec       q    Type
REMARK                         _______ _______ _______ _____ _____    ______ ____
ROOT
ATOM      1  C   UNL     1      35.214 -23.532 -14.360  0.00  0.00    +0.125 C 
ATOM      2  C   UNL     1      34.755 -22.925 -17.050  0.00  0.00    +0.048 C 
ATOM      3  C   UNL     1      34.020 -23.918 -14.969  0.00  0.00    +0.021 C 
ATOM      4  C   UNL     1      36.180 -22.844 -15.094  0.00  0.00    +0.021 C 
ATOM      5  C   UNL     1      33.791 -23.615 -16.310  0.00  0.00    +0.016 C 
ATOM      6  C   UNL     1      35.952 -22.541 -16.437  0.00  0.00    +0.016 C 
ENDROOT
BRANCH   1   7
ATOM      7  S   UNL     1      35.501 -23.910 -12.680  0.00  0.00    +0.075 S 
ATOM      8  O   UNL     1      36.551 -23.030 -12.182  0.00  0.00    -0.150 OA
ATOM      9  O   UNL     1      34.209 -23.938 -12.006  0.00  0.00    -0.150 OA
BRANCH   7  11
ATOM     10  S   UNL     1      37.759 -26.931 -14.535  0.00  0.00    -0.050 S 
ATOM     11  N   UNL     1      36.128 -25.506 -12.800  0.00  0.00    -0.194 N 
ATOM     12  N   UNL     1      38.386 -24.764 -13.273  0.00  0.00    -0.221 NA
ATOM     13  C   UNL     1      37.439 -25.636 -13.474  0.00  0.00    +0.179 C 
ATOM     14  C   UNL     1      39.331 -26.289 -14.776  0.00  0.00    +0.059 C 
ATOM     15  C   UNL     1      39.481 -25.141 -14.026  0.00  0.00    +0.108 C 
ATOM     16  H   UNL     1      35.645 -26.286 -12.442  0.00  0.00    +0.176 HD
ENDBRANCH   7  11
ENDBRANCH   1   7
BRANCH   2  17
ATOM     17  N   UNL     1      34.524 -22.621 -18.401  0.00  0.00    -0.311 N 
ATOM     18  H   UNL     1      33.780 -23.103 -18.827  0.00  0.00    +0.152 HD
BRANCH  17  25
ATOM     19  O   UNL     1      32.343 -21.582 -20.005  0.00  0.00    -0.270 OA
ATOM     20  N   UNL     1      33.159 -19.991 -21.549  0.00  0.00    -0.280 N 
ATOM     21  C   UNL     1      35.398 -20.024 -21.022  0.00  0.00    +0.019 C 
ATOM     22  C   UNL     1      34.693 -20.965 -20.157  0.00  0.00    +0.069 C 
ATOM     23  C   UNL     1      34.420 -19.460 -21.847  0.00  0.00    +0.051 C 
ATOM     24  C   UNL     1      33.235 -20.930 -20.515  0.00  0.00    +0.251 C 
ATOM     25  C   UNL     1      35.192 -21.748 -19.199  0.00  0.00    +0.066 C 
ATOM     26  C   UNL     1      36.722 -19.648 -21.139  0.00  0.00    +0.001 C 
ATOM     27  C   UNL     1      34.718 -18.514 -22.807  0.00  0.00    +0.015 C 
ATOM     28  C   UNL     1      37.047 -18.690 -22.105  0.00  0.00    +0.000 C 
ATOM     29  C   UNL     1      36.055 -18.129 -22.930  0.00  0.00    +0.001 C 
ATOM     30  H   UNL     1      32.327 -19.736 -22.008  0.00  0.00    +0.155 HD
ENDBRANCH  17  25
ENDBRANCH   2  17
TORSDOF 4
ENDMDL
MODEL 7
REMARK VINA RESULT:     -10.7      3.866      6.809
REMARK  Name = 5288711
REMARK  4 active torsions:
REMARK  status: ('A' for Active; 'I' for Inactive)
REMARK    1  A    between atoms: C_1  and  S_7
REMARK    2  A    between atoms: C_2  and  N_17
REMARK    3  A    between atoms: S_7  and  N_11
REMARK    4  A    between atoms: N_17  and  C_25
REMARK                            x       y       z     vdW  Elec       q    Type
REMARK                         _______ _______ _______ _____ _____    ______ ____
ROOT
ATOM      1  C   UNL     1      34.810 -17.030 -23.349  0.00  0.00    +0.125 C 
ATOM      2  C   UNL     1      33.754 -14.613 -24.275  0.00  0.00    +0.048 C 
ATOM      3  C   UNL     1      34.730 -15.931 -22.494  0.00  0.00    +0.021 C 
ATOM      4  C   UNL     1      34.364 -16.924 -24.666  0.00  0.00    +0.021 C 
ATOM      5  C   UNL     1      34.202 -14.725 -22.956  0.00  0.00    +0.016 C 
ATOM      6  C   UNL     1      33.836 -15.718 -25.129  0.00  0.00    +0.016 C 
ENDROOT
BRANCH   1   7
ATOM      7  S   UNL     1      35.471 -18.540 -22.771  0.00  0.00    +0.075 S 
ATOM      8  O   UNL     1      35.263 -19.556 -23.795  0.00  0.00    -0.150 OA
ATOM      9  O   UNL     1      36.819 -18.276 -22.286  0.00  0.00    -0.150 OA
BRANCH   7  11
ATOM     10  S   UNL     1      33.437 -21.110 -20.140  0.00  0.00    -0.050 S 
ATOM     11  N   UNL     1      34.430 -18.871 -21.444  0.00  0.00    -0.194 N 
ATOM     12  N   UNL     1      35.929 -20.501 -20.458  0.00  0.00    -0.221 NA
ATOM     13  C   UNL     1      34.706 -20.122 -20.703  0.00  0.00    +0.179 C 
ATOM     14  C   UNL     1      34.612 -22.178 -19.492  0.00  0.00    +0.059 C 
ATOM     15  C   UNL     1      35.875 -21.691 -19.758  0.00  0.00    +0.108 C 
ATOM     16  H   UNL     1      33.696 -18.266 -21.191  0.00  0.00    +0.176 HD
ENDBRANCH   7  11
ENDBRANCH   1   7
BRANCH   2  17
ATOM     17  N   UNL     1      33.224 -13.399 -24.741  0.00  0.00    -0.311 N 
ATOM     18  H   UNL     1      32.316 -13.446 -25.118  0.00  0.00    +0.152 HD
BRANCH  17  25
ATOM     19  O   UNL     1      31.541 -12.026 -22.819  0.00  0.00    -0.270 OA
ATOM     20  N   UNL     1      32.267  -9.793 -22.556  0.00  0.00    -0.280 N 
ATOM     21  C   UNL     1      34.044  -9.769 -24.016  0.00  0.00    +0.019 C 
ATOM     22  C   UNL     1      33.438 -11.097 -24.028  0.00  0.00    +0.069 C 
ATOM     23  C   UNL     1      33.294  -9.018 -23.106  0.00  0.00    +0.051 C 
ATOM     24  C   UNL     1      32.281 -11.094 -23.071  0.00  0.00    +0.251 C 
ATOM     25  C   UNL     1      33.797 -12.168 -24.739  0.00  0.00    +0.066 C 
ATOM     26  C   UNL     1      35.114  -9.206 -24.684  0.00  0.00    +0.001 C 
ATOM     27  C   UNL     1      33.577  -7.695 -22.829  0.00  0.00    +0.015 C 
ATOM     28  C   UNL     1      35.418  -7.866 -24.419  0.00  0.00    +0.000 C 
ATOM     29  C   UNL     1      34.657  -7.119 -23.500  0.00  0.00    +0.001 C 
ATOM     30  H   UNL     1      31.618  -9.466 -21.893  0.00  0.00    +0.155 HD
ENDBRANCH  17  25
ENDBRANCH   2  17
TORSDOF 4
ENDMDL
MODEL 8
REMARK VINA RESULT:     -10.7      4.957     10.626
REMARK  Name = 5288711
REMARK  4 active torsions:
REMARK  status: ('A' for Active; 'I' for Inactive)
REMARK    1  A    between atoms: C_1  and  S_7
REMARK    2  A    between atoms: C_2  and  N_17
REMARK    3  A    between atoms: S_7  and  N_11
REMARK    4  A    between atoms: N_17  and  C_25
REMARK                            x       y       z     vdW  Elec       q    Type
REMARK                         _______ _______ _______ _____ _____    ______ ____
ROOT
ATOM      1  C   UNL     1      33.797 -14.595 -24.182  0.00  0.00    +0.125 C 
ATOM      2  C   UNL     1      34.777 -17.102 -23.427  0.00  0.00    +0.048 C 
ATOM      3  C   UNL     1      34.246 -14.805 -22.878  0.00  0.00    +0.021 C 
ATOM      4  C   UNL     1      33.839 -15.635 -25.109  0.00  0.00    +0.021 C 
ATOM      5  C   UNL     1      34.735 -16.056 -22.502  0.00  0.00    +0.016 C 
ATOM      6  C   UNL     1      34.328 -16.887 -24.734  0.00  0.00    +0.016 C 
ENDROOT
BRANCH   1   7
ATOM      7  S   UNL     1      33.185 -13.029 -24.654  0.00  0.00    +0.075 S 
ATOM      8  O   UNL     1      32.835 -13.078 -26.068  0.00  0.00    -0.150 OA
ATOM      9  O   UNL     1      32.175 -12.637 -23.678  0.00  0.00    -0.150 OA
BRANCH   7  11
ATOM     10  S   UNL     1      35.665  -9.783 -25.641  0.00  0.00    -0.050 S 
ATOM     11  N   UNL     1      34.586 -12.053 -24.465  0.00  0.00    -0.194 N 
ATOM     12  N   UNL     1      33.348  -9.970 -24.510  0.00  0.00    -0.221 NA
ATOM     13  C   UNL     1      34.432 -10.625 -24.819  0.00  0.00    +0.179 C 
ATOM     14  C   UNL     1      34.676  -8.382 -25.600  0.00  0.00    +0.059 C 
ATOM     15  C   UNL     1      33.488  -8.672 -24.962  0.00  0.00    +0.108 C 
ATOM     16  H   UNL     1      35.440 -12.421 -24.140  0.00  0.00    +0.176 HD
ENDBRANCH   7  11
ENDBRANCH   1   7
BRANCH   2  17
ATOM     17  N   UNL     1      35.270 -18.361 -23.048  0.00  0.00    -0.311 N 
ATOM     18  H   UNL     1      36.130 -18.622 -23.449  0.00  0.00    +0.152 HD
BRANCH  17  25
ATOM     19  O   UNL     1      37.542 -18.966 -21.351  0.00  0.00    -0.270 OA
ATOM     20  N   UNL     1      36.930 -20.554 -19.713  0.00  0.00    -0.280 N 
ATOM     21  C   UNL     1      34.722 -20.880 -20.268  0.00  0.00    +0.019 C 
ATOM     22  C   UNL     1      35.303 -19.905 -21.186  0.00  0.00    +0.069 C 
ATOM     23  C   UNL     1      35.753 -21.241 -19.395  0.00  0.00    +0.051 C 
ATOM     24  C   UNL     1      36.743 -19.705 -20.809  0.00  0.00    +0.251 C 
ATOM     25  C   UNL     1      34.717 -19.267 -22.201  0.00  0.00    +0.066 C 
ATOM     26  C   UNL     1      33.464 -21.436 -20.143  0.00  0.00    +0.001 C 
ATOM     27  C   UNL     1      35.573 -22.156 -18.377  0.00  0.00    +0.015 C 
ATOM     28  C   UNL     1      33.259 -22.367 -19.118  0.00  0.00    +0.000 C 
ATOM     29  C   UNL     1      34.303 -22.722 -18.244  0.00  0.00    +0.001 C 
ATOM     30  H   UNL     1      37.780 -20.655 -19.228  0.00  0.00    +0.155 HD
ENDBRANCH  17  25
ENDBRANCH   2  17
TORSDOF 4
ENDMDL
MODEL 9
REMARK VINA RESULT:     -10.4      3.431      4.437
REMARK  Name = 5288711
REMARK  4 active torsions:
REMARK  status: ('A' for Active; 'I' for Inactive)
REMARK    1  A    between atoms: C_1  and  S_7
REMARK    2  A    between atoms: C_2  and  N_17
REMARK    3  A    between atoms: S_7  and  N_11
REMARK    4  A    between atoms: N_17  and  C_25
REMARK                            x       y       z     vdW  Elec       q    Type
REMARK                         _______ _______ _______ _____ _____    ______ ____
ROOT
ATOM      1  C   UNL     1      34.670 -23.183 -16.725  0.00  0.00    +0.125 C 
ATOM      2  C   UNL     1      35.610 -21.803 -18.967  0.00  0.00    +0.048 C 
ATOM      3  C   UNL     1      33.847 -23.020 -17.840  0.00  0.00    +0.021 C 
ATOM      4  C   UNL     1      35.962 -22.657 -16.730  0.00  0.00    +0.021 C 
ATOM      5  C   UNL     1      34.316 -22.332 -18.958  0.00  0.00    +0.016 C 
ATOM      6  C   UNL     1      36.432 -21.969 -17.849  0.00  0.00    +0.016 C 
ENDROOT
BRANCH   1   7
ATOM      7  S   UNL     1      34.084 -24.044 -15.324  0.00  0.00    +0.075 S 
ATOM      8  O   UNL     1      32.636 -23.884 -15.257  0.00  0.00    -0.150 OA
ATOM      9  O   UNL     1      34.657 -25.383 -15.356  0.00  0.00    -0.150 OA
BRANCH   7  11
ATOM     10  S   UNL     1      36.225 -23.653 -11.728  0.00  0.00    -0.050 S 
ATOM     11  N   UNL     1      34.799 -23.136 -14.052  0.00  0.00    -0.194 N 
ATOM     12  N   UNL     1      36.888 -24.363 -14.124  0.00  0.00    -0.221 NA
ATOM     13  C   UNL     1      35.988 -23.742 -13.414  0.00  0.00    +0.179 C 
ATOM     14  C   UNL     1      37.684 -24.531 -11.930  0.00  0.00    +0.059 C 
ATOM     15  C   UNL     1      37.870 -24.819 -13.266  0.00  0.00    +0.108 C 
ATOM     16  H   UNL     1      34.441 -22.264 -13.766  0.00  0.00    +0.176 HD
ENDBRANCH   7  11
ENDBRANCH   1   7
BRANCH   2  17
ATOM     17  N   UNL     1      36.081 -21.109 -20.094  0.00  0.00    -0.311 N 
ATOM     18  H   UNL     1      37.050 -20.933 -20.113  0.00  0.00    +0.152 HD
BRANCH  17  25
ATOM     19  O   UNL     1      37.498 -18.641 -20.647  0.00  0.00    -0.270 OA
ATOM     20  N   UNL     1      36.522 -17.544 -22.498  0.00  0.00    -0.280 N 
ATOM     21  C   UNL     1      34.835 -19.023 -23.004  0.00  0.00    +0.019 C 
ATOM     22  C   UNL     1      35.581 -19.529 -21.856  0.00  0.00    +0.069 C 
ATOM     23  C   UNL     1      35.448 -17.817 -23.354  0.00  0.00    +0.051 C 
ATOM     24  C   UNL     1      36.676 -18.551 -21.540  0.00  0.00    +0.251 C 
ATOM     25  C   UNL     1      35.380 -20.651 -21.162  0.00  0.00    +0.066 C 
ATOM     26  C   UNL     1      33.748 -19.495 -23.714  0.00  0.00    +0.001 C 
ATOM     27  C   UNL     1      35.009 -17.043 -24.409  0.00  0.00    +0.015 C 
ATOM     28  C   UNL     1      33.285 -18.726 -24.788  0.00  0.00    +0.000 C 
ATOM     29  C   UNL     1      33.910 -17.513 -25.132  0.00  0.00    +0.001 C 
ATOM     30  H   UNL     1      37.094 -16.746 -22.562  0.00  0.00    +0.155 HD
ENDBRANCH  17  25
ENDBRANCH   2  17
TORSDOF 4
ENDMDL
