MODEL 1
REMARK VINA RESULT:     -11.5      0.000      0.000
REMARK  Name = 11659487
REMARK  5 active torsions:
REMARK  status: ('A' for Active; 'I' for Inactive)
REMARK    1  A    between atoms: C_1  and  C_15
REMARK    2  A    between atoms: C_2  and  C_7
REMARK    3  A    between atoms: C_10  and  O_13
REMARK    4  A    between atoms: C_15  and  C_16
REMARK    5  A    between atoms: C_16  and  C_18
REMARK                            x       y       z     vdW  Elec       q    Type
REMARK                         _______ _______ _______ _____ _____    ______ ____
ROOT
ATOM      1  C   UNL     1      34.161 -21.366 -19.904  0.00  0.00    -0.022 C 
ATOM      2  C   UNL     1      35.018 -19.762 -21.495  0.00  0.00    -0.000 C 
ATOM      3  C   UNL     1      33.943 -20.462 -20.943  0.00  0.00    -0.004 C 
ATOM      4  C   UNL     1      35.452 -21.573 -19.417  0.00  0.00    -0.004 C 
ATOM      5  C   UNL     1      36.308 -19.968 -21.008  0.00  0.00    -0.000 C 
ATOM      6  C   UNL     1      36.526 -20.873 -19.969  0.00  0.00    -0.000 C 
ENDROOT
BRANCH   2   7
ATOM      7  C   UNL     1      34.792 -18.823 -22.571  0.00  0.00    +0.003 C 
ATOM      8  C   UNL     1      35.118 -17.477 -22.404  0.00  0.00    +0.037 C 
ATOM      9  C   UNL     1      34.249 -19.263 -23.778  0.00  0.00    +0.000 C 
ATOM     10  C   UNL     1      34.901 -16.572 -23.442  0.00  0.00    +0.139 C 
ATOM     11  C   UNL     1      34.032 -18.358 -24.817  0.00  0.00    +0.003 C 
ATOM     12  C   UNL     1      34.358 -17.012 -24.649  0.00  0.00    +0.037 C 
BRANCH  10  13
ATOM     13  O   UNL     1      35.220 -15.258 -23.278  0.00  0.00    -0.471 OA
ATOM     14  C   UNL     1      34.165 -14.310 -23.431  0.00  0.00    +0.252 C 
ENDBRANCH  10  13
ENDBRANCH   2   7
BRANCH   1  15
ATOM     15  C   UNL     1      33.014 -22.115 -19.313  0.00  0.00    +0.034 C 
BRANCH  15  16
ATOM     16  C   UNL     1      33.396 -23.004 -18.113  0.00  0.00    +0.064 C 
BRANCH  16  18
ATOM     17  N   UNL     1      31.050 -22.898 -17.518  0.00  0.00    -0.396 NA
ATOM     18  C   UNL     1      32.304 -23.101 -17.075  0.00  0.00    +0.110 C 
ATOM     19  C   UNL     1      32.652 -23.383 -15.772  0.00  0.00    +0.023 C 
ATOM     20  C   UNL     1      31.623 -23.466 -14.841  0.00  0.00    -0.015 C 
ATOM     21  C   UNL     1      30.077 -22.986 -16.585  0.00  0.00    +0.158 C 
ATOM     22  C   UNL     1      30.308 -23.265 -15.246  0.00  0.00    +0.100 C 
ATOM     23  N   UNL     1      28.732 -22.785 -16.982  0.00  0.00    -0.336 N 
ATOM     24  H   UNL     1      28.522 -22.584 -17.922  0.00  0.00    +0.144 HD
ATOM     25  H   UNL     1      28.008 -22.844 -16.317  0.00  0.00    +0.144 HD
ENDBRANCH  16  18
ENDBRANCH  15  16
ENDBRANCH   1  15
TORSDOF 5
ENDMDL
MODEL 2
REMARK VINA RESULT:     -11.0      4.454      8.664
REMARK  Name = 11659487
REMARK  5 active torsions:
REMARK  status: ('A' for Active; 'I' for Inactive)
REMARK    1  A    between atoms: C_1  and  C_15
REMARK    2  A    between atoms: C_2  and  C_7
REMARK    3  A    between atoms: C_10  and  O_13
REMARK    4  A    between atoms: C_15  and  C_16
REMARK    5  A    between atoms: C_16  and  C_18
REMARK                            x       y       z     vdW  Elec       q    Type
REMARK                         _______ _______ _______ _____ _____    ______ ____
ROOT
ATOM      1  C   UNL     1      34.949 -18.952 -22.825  0.00  0.00    -0.022 C 
ATOM      2  C   UNL     1      35.291 -20.273 -20.831  0.00  0.00    -0.000 C 
ATOM      3  C   UNL     1      34.458 -19.832 -21.861  0.00  0.00    -0.004 C 
ATOM      4  C   UNL     1      36.271 -18.512 -22.759  0.00  0.00    -0.004 C 
ATOM      5  C   UNL     1      36.612 -19.833 -20.765  0.00  0.00    -0.000 C 
ATOM      6  C   UNL     1      37.103 -18.952 -21.729  0.00  0.00    -0.000 C 
ENDROOT
BRANCH   2   7
ATOM      7  C   UNL     1      34.782 -21.187 -19.831  0.00  0.00    +0.003 C 
ATOM      8  C   UNL     1      35.636 -21.699 -18.855  0.00  0.00    +0.037 C 
ATOM      9  C   UNL     1      33.437 -21.555 -19.844  0.00  0.00    +0.000 C 
ATOM     10  C   UNL     1      35.144 -22.580 -17.891  0.00  0.00    +0.139 C 
ATOM     11  C   UNL     1      32.945 -22.436 -18.881  0.00  0.00    +0.003 C 
ATOM     12  C   UNL     1      33.799 -22.948 -17.903  0.00  0.00    +0.037 C 
BRANCH  10  13
ATOM     13  O   UNL     1      35.978 -23.079 -16.937  0.00  0.00    -0.471 OA
ATOM     14  C   UNL     1      37.040 -22.236 -16.495  0.00  0.00    +0.252 C 
ENDBRANCH  10  13
ENDBRANCH   2   7
BRANCH   1  15
ATOM     15  C   UNL     1      34.061 -18.481 -23.926  0.00  0.00    +0.034 C 
BRANCH  15  16
ATOM     16  C   UNL     1      34.734 -17.484 -24.892  0.00  0.00    +0.064 C 
BRANCH  16  18
ATOM     17  N   UNL     1      33.823 -15.379 -25.670  0.00  0.00    -0.396 NA
ATOM     18  C   UNL     1      34.347 -16.049 -24.629  0.00  0.00    +0.110 C 
ATOM     19  C   UNL     1      34.552 -15.528 -23.370  0.00  0.00    +0.023 C 
ATOM     20  C   UNL     1      34.185 -14.203 -23.160  0.00  0.00    -0.015 C 
ATOM     21  C   UNL     1      33.479 -14.095 -25.430  0.00  0.00    +0.158 C 
ATOM     22  C   UNL     1      33.638 -13.466 -24.204  0.00  0.00    +0.100 C 
ATOM     23  N   UNL     1      32.919 -13.331 -26.483  0.00  0.00    -0.336 N 
ATOM     24  H   UNL     1      32.789 -13.736 -27.370  0.00  0.00    +0.144 HD
ATOM     25  H   UNL     1      32.662 -12.393 -26.328  0.00  0.00    +0.144 HD
ENDBRANCH  16  18
ENDBRANCH  15  16
ENDBRANCH   1  15
TORSDOF 5
ENDMDL
MODEL 3
REMARK VINA RESULT:     -11.0      4.483      8.540
REMARK  Name = 11659487
REMARK  5 active torsions:
REMARK  status: ('A' for Active; 'I' for Inactive)
REMARK    1  A    between atoms: C_1  and  C_15
REMARK    2  A    between atoms: C_2  and  C_7
REMARK    3  A    between atoms: C_10  and  O_13
REMARK    4  A    between atoms: C_15  and  C_16
REMARK    5  A    between atoms: C_16  and  C_18
REMARK                            x       y       z     vdW  Elec       q    Type
REMARK                         _______ _______ _______ _____ _____    ______ ____
ROOT
ATOM      1  C   UNL     1      34.695 -16.591 -23.127  0.00  0.00    -0.022 C 
ATOM      2  C   UNL     1      34.648 -18.899 -22.415  0.00  0.00    -0.000 C 
ATOM      3  C   UNL     1      34.806 -17.545 -22.116  0.00  0.00    -0.004 C 
ATOM      4  C   UNL     1      34.429 -16.990 -24.437  0.00  0.00    -0.004 C 
ATOM      5  C   UNL     1      34.382 -19.299 -23.724  0.00  0.00    -0.000 C 
ATOM      6  C   UNL     1      34.273 -18.344 -24.735  0.00  0.00    -0.000 C 
ENDROOT
BRANCH   2   7
ATOM      7  C   UNL     1      34.761 -19.888 -21.365  0.00  0.00    +0.003 C 
ATOM      8  C   UNL     1      33.616 -20.503 -20.860  0.00  0.00    +0.037 C 
ATOM      9  C   UNL     1      36.015 -20.229 -20.860  0.00  0.00    +0.000 C 
ATOM     10  C   UNL     1      33.725 -21.458 -19.849  0.00  0.00    +0.139 C 
ATOM     11  C   UNL     1      36.125 -21.183 -19.848  0.00  0.00    +0.003 C 
ATOM     12  C   UNL     1      34.979 -21.798 -19.343  0.00  0.00    +0.037 C 
BRANCH  10  13
ATOM     13  O   UNL     1      32.607 -22.059 -19.355  0.00  0.00    -0.471 OA
ATOM     14  C   UNL     1      32.745 -22.791 -18.139  0.00  0.00    +0.252 C 
ENDBRANCH  10  13
ENDBRANCH   2   7
BRANCH   1  15
ATOM     15  C   UNL     1      34.863 -15.143 -22.810  0.00  0.00    +0.034 C 
BRANCH  15  16
ATOM     16  C   UNL     1      33.841 -14.225 -23.508  0.00  0.00    +0.064 C 
BRANCH  16  18
ATOM     17  N   UNL     1      32.594 -12.224 -22.949  0.00  0.00    -0.396 NA
ATOM     18  C   UNL     1      32.986 -13.444 -22.539  0.00  0.00    +0.110 C 
ATOM     19  C   UNL     1      32.670 -14.014 -21.326  0.00  0.00    +0.023 C 
ATOM     20  C   UNL     1      31.881 -13.269 -20.456  0.00  0.00    -0.015 C 
ATOM     21  C   UNL     1      31.830 -11.529 -22.079  0.00  0.00    +0.158 C 
ATOM     22  C   UNL     1      31.449 -12.002 -20.832  0.00  0.00    +0.100 C 
ATOM     23  N   UNL     1      31.381 -10.237 -22.447  0.00  0.00    -0.336 N 
ATOM     24  H   UNL     1      31.628  -9.862 -23.323  0.00  0.00    +0.144 HD
ATOM     25  H   UNL     1      30.823  -9.714 -21.827  0.00  0.00    +0.144 HD
ENDBRANCH  16  18
ENDBRANCH  15  16
ENDBRANCH   1  15
TORSDOF 5
ENDMDL
MODEL 4
REMARK VINA RESULT:     -10.8      4.744      9.674
REMARK  Name = 11659487
REMARK  5 active torsions:
REMARK  status: ('A' for Active; 'I' for Inactive)
REMARK    1  A    between atoms: C_1  and  C_15
REMARK    2  A    between atoms: C_2  and  C_7
REMARK    3  A    between atoms: C_10  and  O_13
REMARK    4  A    between atoms: C_15  and  C_16
REMARK    5  A    between atoms: C_16  and  C_18
REMARK                            x       y       z     vdW  Elec       q    Type
REMARK                         _______ _______ _______ _____ _____    ______ ____
ROOT
ATOM      1  C   UNL     1      34.662 -16.734 -23.384  0.00  0.00    -0.022 C 
ATOM      2  C   UNL     1      34.627 -19.000 -22.546  0.00  0.00    -0.000 C 
ATOM      3  C   UNL     1      34.794 -17.632 -22.325  0.00  0.00    -0.004 C 
ATOM      4  C   UNL     1      34.366 -17.204 -24.664  0.00  0.00    -0.004 C 
ATOM      5  C   UNL     1      34.331 -19.469 -23.825  0.00  0.00    -0.000 C 
ATOM      6  C   UNL     1      34.200 -18.571 -24.884  0.00  0.00    -0.000 C 
ENDROOT
BRANCH   2   7
ATOM      7  C   UNL     1      34.762 -19.932 -21.447  0.00  0.00    +0.003 C 
ATOM      8  C   UNL     1      33.630 -20.536 -20.901  0.00  0.00    +0.037 C 
ATOM      9  C   UNL     1      36.025 -20.228 -20.935  0.00  0.00    +0.000 C 
ATOM     10  C   UNL     1      33.761 -21.434 -19.842  0.00  0.00    +0.139 C 
ATOM     11  C   UNL     1      36.156 -21.126 -19.876  0.00  0.00    +0.003 C 
ATOM     12  C   UNL     1      35.024 -21.730 -19.330  0.00  0.00    +0.037 C 
BRANCH  10  13
ATOM     13  O   UNL     1      32.655 -22.024 -19.309  0.00  0.00    -0.471 OA
ATOM     14  C   UNL     1      32.848 -22.849 -18.161  0.00  0.00    +0.252 C 
ENDBRANCH  10  13
ENDBRANCH   2   7
BRANCH   1  15
ATOM     15  C   UNL     1      34.840 -15.272 -23.149  0.00  0.00    +0.034 C 
BRANCH  15  16
ATOM     16  C   UNL     1      33.550 -14.447 -23.326  0.00  0.00    +0.064 C 
BRANCH  16  18
ATOM     17  N   UNL     1      34.030 -12.164 -23.977  0.00  0.00    -0.396 NA
ATOM     18  C   UNL     1      33.665 -13.388 -24.396  0.00  0.00    +0.110 C 
ATOM     19  C   UNL     1      33.393 -13.735 -25.702  0.00  0.00    +0.023 C 
ATOM     20  C   UNL     1      33.508 -12.736 -26.663  0.00  0.00    -0.015 C 
ATOM     21  C   UNL     1      34.130 -11.220 -24.939  0.00  0.00    +0.158 C 
ATOM     22  C   UNL     1      33.883 -11.453 -26.283  0.00  0.00    +0.100 C 
ATOM     23  N   UNL     1      34.512  -9.907 -24.568  0.00  0.00    -0.336 N 
ATOM     24  H   UNL     1      34.697  -9.697 -23.624  0.00  0.00    +0.144 HD
ATOM     25  H   UNL     1      34.591  -9.205 -25.254  0.00  0.00    +0.144 HD
ENDBRANCH  16  18
ENDBRANCH  15  16
ENDBRANCH   1  15
TORSDOF 5
ENDMDL
MODEL 5
REMARK VINA RESULT:     -10.7      1.144      1.813
REMARK  Name = 11659487
REMARK  5 active torsions:
REMARK  status: ('A' for Active; 'I' for Inactive)
REMARK    1  A    between atoms: C_1  and  C_15
REMARK    2  A    between atoms: C_2  and  C_7
REMARK    3  A    between atoms: C_10  and  O_13
REMARK    4  A    between atoms: C_15  and  C_16
REMARK    5  A    between atoms: C_16  and  C_18
REMARK                            x       y       z     vdW  Elec       q    Type
REMARK                         _______ _______ _______ _____ _____    ______ ____
ROOT
ATOM      1  C   UNL     1      34.039 -21.659 -19.577  0.00  0.00    -0.022 C 
ATOM      2  C   UNL     1      35.047 -19.978 -20.990  0.00  0.00    -0.000 C 
ATOM      3  C   UNL     1      33.909 -20.618 -20.496  0.00  0.00    -0.004 C 
ATOM      4  C   UNL     1      35.306 -22.061 -19.153  0.00  0.00    -0.004 C 
ATOM      5  C   UNL     1      36.313 -20.380 -20.567  0.00  0.00    -0.000 C 
ATOM      6  C   UNL     1      36.443 -21.422 -19.648  0.00  0.00    -0.000 C 
ENDROOT
BRANCH   2   7
ATOM      7  C   UNL     1      34.912 -18.897 -21.942  0.00  0.00    +0.003 C 
ATOM      8  C   UNL     1      34.399 -19.148 -23.215  0.00  0.00    +0.037 C 
ATOM      9  C   UNL     1      35.293 -17.603 -21.587  0.00  0.00    +0.000 C 
ATOM     10  C   UNL     1      34.269 -18.105 -24.132  0.00  0.00    +0.139 C 
ATOM     11  C   UNL     1      35.163 -16.561 -22.504  0.00  0.00    +0.003 C 
ATOM     12  C   UNL     1      34.650 -16.811 -23.777  0.00  0.00    +0.037 C 
BRANCH  10  13
ATOM     13  O   UNL     1      33.769 -18.350 -25.375  0.00  0.00    -0.471 OA
ATOM     14  C   UNL     1      32.468 -18.930 -25.449  0.00  0.00    +0.252 C 
ENDBRANCH  10  13
ENDBRANCH   2   7
BRANCH   1  15
ATOM     15  C   UNL     1      32.824 -22.343 -19.047  0.00  0.00    +0.034 C 
BRANCH  15  16
ATOM     16  C   UNL     1      33.070 -23.146 -17.754  0.00  0.00    +0.064 C 
BRANCH  16  18
ATOM     17  N   UNL     1      30.686 -22.942 -17.372  0.00  0.00    -0.396 NA
ATOM     18  C   UNL     1      31.893 -23.121 -16.807  0.00  0.00    +0.110 C 
ATOM     19  C   UNL     1      32.126 -23.277 -15.458  0.00  0.00    +0.023 C 
ATOM     20  C   UNL     1      31.021 -23.250 -14.614  0.00  0.00    -0.015 C 
ATOM     21  C   UNL     1      29.638 -22.919 -16.521  0.00  0.00    +0.158 C 
ATOM     22  C   UNL     1      29.750 -23.068 -15.147  0.00  0.00    +0.100 C 
ATOM     23  N   UNL     1      28.335 -22.736 -17.049  0.00  0.00    -0.336 N 
ATOM     24  H   UNL     1      28.209 -22.626 -18.018  0.00  0.00    +0.144 HD
ATOM     25  H   UNL     1      27.557 -22.717 -16.445  0.00  0.00    +0.144 HD
ENDBRANCH  16  18
ENDBRANCH  15  16
ENDBRANCH   1  15
TORSDOF 5
ENDMDL
MODEL 6
REMARK VINA RESULT:     -10.7      3.078      3.943
REMARK  Name = 11659487
REMARK  5 active torsions:
REMARK  status: ('A' for Active; 'I' for Inactive)
REMARK    1  A    between atoms: C_1  and  C_15
REMARK    2  A    between atoms: C_2  and  C_7
REMARK    3  A    between atoms: C_10  and  O_13
REMARK    4  A    between atoms: C_15  and  C_16
REMARK    5  A    between atoms: C_16  and  C_18
REMARK                            x       y       z     vdW  Elec       q    Type
REMARK                         _______ _______ _______ _____ _____    ______ ____
ROOT
ATOM      1  C   UNL     1      35.414 -21.413 -19.554  0.00  0.00    -0.022 C 
ATOM      2  C   UNL     1      34.385 -20.035 -21.251  0.00  0.00    -0.000 C 
ATOM      3  C   UNL     1      35.530 -20.499 -20.600  0.00  0.00    -0.004 C 
ATOM      4  C   UNL     1      34.155 -21.862 -19.156  0.00  0.00    -0.004 C 
ATOM      5  C   UNL     1      33.126 -20.484 -20.853  0.00  0.00    -0.000 C 
ATOM      6  C   UNL     1      33.011 -21.398 -19.806  0.00  0.00    -0.000 C 
ENDROOT
BRANCH   2   7
ATOM      7  C   UNL     1      34.505 -19.088 -22.338  0.00  0.00    +0.003 C 
ATOM      8  C   UNL     1      34.820 -17.756 -22.071  0.00  0.00    +0.037 C 
ATOM      9  C   UNL     1      34.307 -19.507 -23.653  0.00  0.00    +0.000 C 
ATOM     10  C   UNL     1      34.936 -16.843 -23.119  0.00  0.00    +0.139 C 
ATOM     11  C   UNL     1      34.422 -18.595 -24.701  0.00  0.00    +0.003 C 
ATOM     12  C   UNL     1      34.738 -17.262 -24.435  0.00  0.00    +0.037 C 
BRANCH  10  13
ATOM     13  O   UNL     1      35.244 -15.542 -22.859  0.00  0.00    -0.471 OA
ATOM     14  C   UNL     1      34.298 -14.789 -22.103  0.00  0.00    +0.252 C 
ENDBRANCH  10  13
ENDBRANCH   2   7
BRANCH   1  15
ATOM     15  C   UNL     1      36.636 -21.910 -18.858  0.00  0.00    +0.034 C 
BRANCH  15  16
ATOM     16  C   UNL     1      36.785 -21.400 -17.410  0.00  0.00    +0.064 C 
BRANCH  16  18
ATOM     17  N   UNL     1      37.745 -23.176 -16.073  0.00  0.00    -0.396 NA
ATOM     18  C   UNL     1      36.630 -22.490 -16.378  0.00  0.00    +0.110 C 
ATOM     19  C   UNL     1      35.385 -22.709 -15.828  0.00  0.00    +0.023 C 
ATOM     20  C   UNL     1      35.276 -23.720 -14.880  0.00  0.00    -0.015 C 
ATOM     21  C   UNL     1      37.601 -24.151 -15.149  0.00  0.00    +0.158 C 
ATOM     22  C   UNL     1      36.400 -24.460 -14.528  0.00  0.00    +0.100 C 
ATOM     23  N   UNL     1      38.736 -24.913 -14.778  0.00  0.00    -0.336 N 
ATOM     24  H   UNL     1      39.609 -24.728 -15.193  0.00  0.00    +0.144 HD
ATOM     25  H   UNL     1      38.652 -25.628 -14.106  0.00  0.00    +0.144 HD
ENDBRANCH  16  18
ENDBRANCH  15  16
ENDBRANCH   1  15
TORSDOF 5
ENDMDL
MODEL 7
REMARK VINA RESULT:     -10.6      4.781      9.535
REMARK  Name = 11659487
REMARK  5 active torsions:
REMARK  status: ('A' for Active; 'I' for Inactive)
REMARK    1  A    between atoms: C_1  and  C_15
REMARK    2  A    between atoms: C_2  and  C_7
REMARK    3  A    between atoms: C_10  and  O_13
REMARK    4  A    between atoms: C_15  and  C_16
REMARK    5  A    between atoms: C_16  and  C_18
REMARK                            x       y       z     vdW  Elec       q    Type
REMARK                         _______ _______ _______ _____ _____    ______ ____
ROOT
ATOM      1  C   UNL     1      33.231 -23.325 -17.138  0.00  0.00    -0.022 C 
ATOM      2  C   UNL     1      34.098 -24.256 -15.085  0.00  0.00    -0.000 C 
ATOM      3  C   UNL     1      34.298 -23.836 -16.400  0.00  0.00    -0.004 C 
ATOM      4  C   UNL     1      31.963 -23.236 -16.562  0.00  0.00    -0.004 C 
ATOM      5  C   UNL     1      32.832 -24.167 -14.508  0.00  0.00    -0.000 C 
ATOM      6  C   UNL     1      31.764 -23.657 -15.247  0.00  0.00    -0.000 C 
ENDROOT
BRANCH   2   7
ATOM      7  C   UNL     1      35.206 -24.785 -14.318  0.00  0.00    +0.003 C 
ATOM      8  C   UNL     1      36.249 -25.446 -14.965  0.00  0.00    +0.037 C 
ATOM      9  C   UNL     1      35.231 -24.632 -12.932  0.00  0.00    +0.000 C 
ATOM     10  C   UNL     1      37.318 -25.955 -14.226  0.00  0.00    +0.139 C 
ATOM     11  C   UNL     1      36.298 -25.141 -12.193  0.00  0.00    +0.003 C 
ATOM     12  C   UNL     1      37.343 -25.802 -12.840  0.00  0.00    +0.037 C 
BRANCH  10  13
ATOM     13  O   UNL     1      38.337 -26.600 -14.858  0.00  0.00    -0.471 OA
ATOM     14  C   UNL     1      39.613 -25.964 -14.850  0.00  0.00    +0.252 C 
ENDBRANCH  10  13
ENDBRANCH   2   7
BRANCH   1  15
ATOM     15  C   UNL     1      33.443 -22.876 -18.545  0.00  0.00    +0.034 C 
BRANCH  15  16
ATOM     16  C   UNL     1      34.871 -22.372 -18.834  0.00  0.00    +0.064 C 
BRANCH  16  18
ATOM     17  N   UNL     1      36.114 -20.671 -20.029  0.00  0.00    -0.396 NA
ATOM     18  C   UNL     1      34.910 -21.236 -19.827  0.00  0.00    +0.110 C 
ATOM     19  C   UNL     1      33.740 -20.859 -20.448  0.00  0.00    +0.023 C 
ATOM     20  C   UNL     1      33.811 -19.809 -21.358  0.00  0.00    -0.015 C 
ATOM     21  C   UNL     1      36.144 -19.655 -20.918  0.00  0.00    +0.158 C 
ATOM     22  C   UNL     1      35.031 -19.190 -21.603  0.00  0.00    +0.100 C 
ATOM     23  N   UNL     1      37.380 -19.014 -21.180  0.00  0.00    -0.336 N 
ATOM     24  H   UNL     1      38.196 -19.311 -20.716  0.00  0.00    +0.144 HD
ATOM     25  H   UNL     1      37.423 -18.271 -21.825  0.00  0.00    +0.144 HD
ENDBRANCH  16  18
ENDBRANCH  15  16
ENDBRANCH   1  15
TORSDOF 5
ENDMDL
MODEL 8
REMARK VINA RESULT:     -10.5      3.727      8.543
REMARK  Name = 11659487
REMARK  5 active torsions:
REMARK  status: ('A' for Active; 'I' for Inactive)
REMARK    1  A    between atoms: C_1  and  C_15
REMARK    2  A    between atoms: C_2  and  C_7
REMARK    3  A    between atoms: C_10  and  O_13
REMARK    4  A    between atoms: C_15  and  C_16
REMARK    5  A    between atoms: C_16  and  C_18
REMARK                            x       y       z     vdW  Elec       q    Type
REMARK                         _______ _______ _______ _____ _____    ______ ____
ROOT
ATOM      1  C   UNL     1      34.809 -22.920 -16.912  0.00  0.00    -0.022 C 
ATOM      2  C   UNL     1      32.805 -23.676 -15.794  0.00  0.00    -0.000 C 
ATOM      3  C   UNL     1      33.422 -23.059 -16.884  0.00  0.00    -0.004 C 
ATOM      4  C   UNL     1      35.579 -23.396 -15.850  0.00  0.00    -0.004 C 
ATOM      5  C   UNL     1      33.575 -24.152 -14.733  0.00  0.00    -0.000 C 
ATOM      6  C   UNL     1      34.962 -24.011 -14.761  0.00  0.00    -0.000 C 
ENDROOT
BRANCH   2   7
ATOM      7  C   UNL     1      31.365 -23.822 -15.765  0.00  0.00    +0.003 C 
ATOM      8  C   UNL     1      30.562 -22.964 -16.515  0.00  0.00    +0.037 C 
ATOM      9  C   UNL     1      30.781 -24.822 -14.989  0.00  0.00    +0.000 C 
ATOM     10  C   UNL     1      29.174 -23.105 -16.488  0.00  0.00    +0.139 C 
ATOM     11  C   UNL     1      29.394 -24.964 -14.961  0.00  0.00    +0.003 C 
ATOM     12  C   UNL     1      28.590 -24.105 -15.711  0.00  0.00    +0.037 C 
BRANCH  10  13
ATOM     13  O   UNL     1      28.390 -22.267 -17.220  0.00  0.00    -0.471 OA
ATOM     14  C   UNL     1      26.978 -22.446 -17.121  0.00  0.00    +0.252 C 
ENDBRANCH  10  13
ENDBRANCH   2   7
BRANCH   1  15
ATOM     15  C   UNL     1      35.469 -22.262 -18.076  0.00  0.00    +0.034 C 
BRANCH  15  16
ATOM     16  C   UNL     1      34.617 -22.257 -19.361  0.00  0.00    +0.064 C 
BRANCH  16  18
ATOM     17  N   UNL     1      36.095 -20.561 -20.257  0.00  0.00    -0.396 NA
ATOM     18  C   UNL     1      34.836 -21.030 -20.214  0.00  0.00    +0.110 C 
ATOM     19  C   UNL     1      33.759 -20.484 -20.876  0.00  0.00    +0.023 C 
ATOM     20  C   UNL     1      33.995 -19.355 -21.653  0.00  0.00    -0.015 C 
ATOM     21  C   UNL     1      36.286 -19.463 -21.022  0.00  0.00    +0.158 C 
ATOM     22  C   UNL     1      35.279 -18.828 -21.733  0.00  0.00    +0.100 C 
ATOM     23  N   UNL     1      37.589 -18.915 -21.114  0.00  0.00    -0.336 N 
ATOM     24  H   UNL     1      38.334 -19.332 -20.626  0.00  0.00    +0.144 HD
ATOM     25  H   UNL     1      37.749 -18.115 -21.666  0.00  0.00    +0.144 HD
ENDBRANCH  16  18
ENDBRANCH  15  16
ENDBRANCH   1  15
TORSDOF 5
ENDMDL
MODEL 9
REMARK VINA RESULT:     -10.5      3.469      4.619
REMARK  Name = 11659487
REMARK  5 active torsions:
REMARK  status: ('A' for Active; 'I' for Inactive)
REMARK    1  A    between atoms: C_1  and  C_15
REMARK    2  A    between atoms: C_2  and  C_7
REMARK    3  A    between atoms: C_10  and  O_13
REMARK    4  A    between atoms: C_15  and  C_16
REMARK    5  A    between atoms: C_16  and  C_18
REMARK                            x       y       z     vdW  Elec       q    Type
REMARK                         _______ _______ _______ _____ _____    ______ ____
ROOT
ATOM      1  C   UNL     1      35.876 -22.200 -17.918  0.00  0.00    -0.022 C 
ATOM      2  C   UNL     1      35.157 -21.051 -19.919  0.00  0.00    -0.000 C 
ATOM      3  C   UNL     1      36.143 -21.324 -18.970  0.00  0.00    -0.004 C 
ATOM      4  C   UNL     1      34.621 -22.802 -17.814  0.00  0.00    -0.004 C 
ATOM      5  C   UNL     1      33.903 -21.653 -19.815  0.00  0.00    -0.000 C 
ATOM      6  C   UNL     1      33.635 -22.528 -18.762  0.00  0.00    -0.000 C 
ENDROOT
BRANCH   2   7
ATOM      7  C   UNL     1      35.435 -20.144 -21.011  0.00  0.00    +0.003 C 
ATOM      8  C   UNL     1      34.472 -19.920 -21.994  0.00  0.00    +0.037 C 
ATOM      9  C   UNL     1      36.666 -19.493 -21.080  0.00  0.00    +0.000 C 
ATOM     10  C   UNL     1      34.741 -19.044 -23.047  0.00  0.00    +0.139 C 
ATOM     11  C   UNL     1      36.935 -18.618 -22.132  0.00  0.00    +0.003 C 
ATOM     12  C   UNL     1      35.972 -18.393 -23.116  0.00  0.00    +0.037 C 
BRANCH  10  13
ATOM     13  O   UNL     1      33.800 -18.825 -24.007  0.00  0.00    -0.471 OA
ATOM     14  C   UNL     1      34.019 -17.729 -24.893  0.00  0.00    +0.252 C 
ENDBRANCH  10  13
ENDBRANCH   2   7
BRANCH   1  15
ATOM     15  C   UNL     1      36.929 -22.493 -16.904  0.00  0.00    +0.034 C 
BRANCH  15  16
ATOM     16  C   UNL     1      36.401 -22.583 -15.459  0.00  0.00    +0.064 C 
BRANCH  16  18
ATOM     17  N   UNL     1      36.290 -25.002 -15.480  0.00  0.00    -0.396 NA
ATOM     18  C   UNL     1      36.690 -23.912 -14.802  0.00  0.00    +0.110 C 
ATOM     19  C   UNL     1      37.327 -23.922 -13.581  0.00  0.00    +0.023 C 
ATOM     20  C   UNL     1      37.578 -25.162 -13.004  0.00  0.00    -0.015 C 
ATOM     21  C   UNL     1      36.551 -26.189 -14.888  0.00  0.00    +0.158 C 
ATOM     22  C   UNL     1      37.186 -26.322 -13.663  0.00  0.00    +0.100 C 
ATOM     23  N   UNL     1      36.159 -27.380 -15.548  0.00  0.00    -0.336 N 
ATOM     24  H   UNL     1      35.704 -27.333 -16.419  0.00  0.00    +0.144 HD
ATOM     25  H   UNL     1      36.339 -28.255 -15.133  0.00  0.00    +0.144 HD
ENDBRANCH  16  18
ENDBRANCH  15  16
ENDBRANCH   1  15
TORSDOF 5
ENDMDL
