MODEL 1
REMARK VINA RESULT:     -11.9      0.000      0.000
REMARK  Name = 10224181
REMARK  7 active torsions:
REMARK  status: ('A' for Active; 'I' for Inactive)
REMARK    1  A    between atoms: N_3  and  C_23
REMARK    2  A    between atoms: C_12  and  C_14
REMARK    3  A    between atoms: C_15  and  C_16
REMARK    4  A    between atoms: C_16  and  C_17
REMARK    5  A    between atoms: C_23  and  C_24
REMARK    6  A    between atoms: C_29  and  C_31
REMARK    7  A    between atoms: C_31  and  O_32
REMARK                            x       y       z     vdW  Elec       q    Type
REMARK                         _______ _______ _______ _____ _____    ______ ____
ROOT
ATOM      1  O   UNL     1      32.067 -23.760 -17.625  0.00  0.00    -0.267 OA
ATOM      2  O   UNL     1      34.389 -24.650 -13.698  0.00  0.00    -0.246 OA
ATOM      3  N   UNL     1      33.209 -24.222 -15.643  0.00  0.00    -0.244 N 
ATOM      4  N   UNL     1      35.426 -23.390 -15.342  0.00  0.00    -0.279 N 
ATOM      5  C   UNL     1      35.377 -22.781 -16.632  0.00  0.00    +0.069 A 
ATOM      6  C   UNL     1      34.229 -22.905 -17.417  0.00  0.00    +0.073 A 
ATOM      7  C   UNL     1      33.068 -23.661 -16.919  0.00  0.00    +0.266 A 
ATOM      8  C   UNL     1      34.350 -24.122 -14.815  0.00  0.00    +0.334 A 
ATOM      9  C   UNL     1      34.161 -22.313 -18.688  0.00  0.00    +0.014 C 
ATOM     10  C   UNL     1      36.459 -22.049 -17.152  0.00  0.00    +0.018 C 
ATOM     11  C   UNL     1      36.641 -23.245 -14.541  0.00  0.00    +0.135 C 
ATOM     12  C   UNL     1      35.243 -21.593 -19.186  0.00  0.00    +0.042 C 
ATOM     13  C   UNL     1      36.392 -21.460 -18.417  0.00  0.00    +0.010 C 
ENDROOT
BRANCH  12  14
ATOM     14  C   UNL     1      35.171 -20.991 -20.479  0.00  0.00    -0.064 C 
ATOM     15  C   UNL     1      35.110 -20.487 -21.572  0.00  0.00    -0.082 C 
BRANCH  15  16
ATOM     16  C   UNL     1      35.038 -19.877 -22.904  0.00  0.00    +0.103 C 
BRANCH  16  17
ATOM     17  C   UNL     1      34.907 -18.377 -22.831  0.00  0.00    -0.009 C 
ATOM     18  C   UNL     1      34.712 -17.651 -23.996  0.00  0.00    -0.003 C 
ATOM     19  C   UNL     1      34.981 -17.746 -21.598  0.00  0.00    -0.003 C 
ATOM     20  C   UNL     1      34.590 -16.263 -23.928  0.00  0.00    -0.000 C 
ATOM     21  C   UNL     1      34.860 -16.359 -21.529  0.00  0.00    -0.000 C 
ATOM     22  C   UNL     1      34.664 -15.617 -22.693  0.00  0.00    -0.000 C 
ENDBRANCH  16  17
ENDBRANCH  15  16
ENDBRANCH  12  14
BRANCH   3  23
ATOM     23  C   UNL     1      32.074 -24.978 -15.121  0.00  0.00    +0.140 C 
BRANCH  23  24
ATOM     24  C   UNL     1      30.763 -24.304 -15.425  0.00  0.00    +0.001 C 
ATOM     25  C   UNL     1      30.546 -23.004 -14.990  0.00  0.00    -0.002 C 
ATOM     26  C   UNL     1      29.790 -24.991 -16.137  0.00  0.00    -0.002 C 
ATOM     27  C   UNL     1      29.332 -22.379 -15.272  0.00  0.00    +0.006 C 
ATOM     28  C   UNL     1      28.575 -24.366 -16.419  0.00  0.00    +0.006 C 
ATOM     29  C   UNL     1      28.346 -23.060 -15.987  0.00  0.00    +0.075 C 
BRANCH  29  31
ATOM     30  O   UNL     1      26.076 -22.435 -15.562  0.00  0.00    -0.245 OA
ATOM     31  C   UNL     1      27.079 -22.408 -16.282  0.00  0.00    +0.338 C 
BRANCH  31  32
ATOM     32  O   UNL     1      27.101 -21.741 -17.468  0.00  0.00    -0.477 OA
ATOM     33  H   UNL     1      26.674 -20.911 -17.546  0.00  0.00    +0.295 HD
ENDBRANCH  31  32
ENDBRANCH  29  31
ENDBRANCH  23  24
ENDBRANCH   3  23
TORSDOF 7
ENDMDL
MODEL 2
REMARK VINA RESULT:     -11.7      2.520      6.311
REMARK  Name = 10224181
REMARK  7 active torsions:
REMARK  status: ('A' for Active; 'I' for Inactive)
REMARK    1  A    between atoms: N_3  and  C_23
REMARK    2  A    between atoms: C_12  and  C_14
REMARK    3  A    between atoms: C_15  and  C_16
REMARK    4  A    between atoms: C_16  and  C_17
REMARK    5  A    between atoms: C_23  and  C_24
REMARK    6  A    between atoms: C_29  and  C_31
REMARK    7  A    between atoms: C_31  and  O_32
REMARK                            x       y       z     vdW  Elec       q    Type
REMARK                         _______ _______ _______ _____ _____    ______ ____
ROOT
ATOM      1  O   UNL     1      36.232 -22.895 -15.670  0.00  0.00    -0.267 OA
ATOM      2  O   UNL     1      32.307 -24.864 -14.146  0.00  0.00    -0.246 OA
ATOM      3  N   UNL     1      34.276 -23.892 -14.880  0.00  0.00    -0.244 N 
ATOM      4  N   UNL     1      32.293 -23.806 -16.207  0.00  0.00    -0.279 N 
ATOM      5  C   UNL     1      32.994 -23.077 -17.213  0.00  0.00    +0.069 A 
ATOM      6  C   UNL     1      34.342 -22.763 -17.034  0.00  0.00    +0.073 A 
ATOM      7  C   UNL     1      35.045 -23.182 -15.810  0.00  0.00    +0.266 A 
ATOM      8  C   UNL     1      32.911 -24.232 -15.020  0.00  0.00    +0.334 A 
ATOM      9  C   UNL     1      35.050 -22.047 -18.013  0.00  0.00    +0.014 C 
ATOM     10  C   UNL     1      32.368 -22.655 -18.400  0.00  0.00    +0.018 C 
ATOM     11  C   UNL     1      30.881 -24.121 -16.420  0.00  0.00    +0.135 C 
ATOM     12  C   UNL     1      34.413 -21.637 -19.181  0.00  0.00    +0.042 C 
ATOM     13  C   UNL     1      33.072 -21.942 -19.374  0.00  0.00    +0.010 C 
ENDROOT
BRANCH  12  14
ATOM     14  C   UNL     1      35.135 -20.909 -20.175  0.00  0.00    -0.064 C 
ATOM     15  C   UNL     1      35.745 -20.292 -21.011  0.00  0.00    -0.082 C 
BRANCH  15  16
ATOM     16  C   UNL     1      36.489 -19.539 -22.027  0.00  0.00    +0.103 C 
BRANCH  16  17
ATOM     17  C   UNL     1      35.570 -18.812 -22.974  0.00  0.00    -0.009 C 
ATOM     18  C   UNL     1      35.554 -17.424 -22.980  0.00  0.00    -0.003 C 
ATOM     19  C   UNL     1      34.754 -19.541 -23.827  0.00  0.00    -0.003 C 
ATOM     20  C   UNL     1      34.705 -16.752 -23.858  0.00  0.00    -0.000 C 
ATOM     21  C   UNL     1      33.904 -18.868 -24.704  0.00  0.00    -0.000 C 
ATOM     22  C   UNL     1      33.879 -17.474 -24.720  0.00  0.00    -0.000 C 
ENDBRANCH  16  17
ENDBRANCH  15  16
ENDBRANCH  12  14
BRANCH   3  23
ATOM     23  C   UNL     1      34.944 -24.322 -13.654  0.00  0.00    +0.140 C 
BRANCH  23  24
ATOM     24  C   UNL     1      36.320 -24.868 -13.928  0.00  0.00    +0.001 C 
ATOM     25  C   UNL     1      36.471 -25.930 -14.810  0.00  0.00    -0.002 C 
ATOM     26  C   UNL     1      37.419 -24.302 -13.296  0.00  0.00    -0.002 C 
ATOM     27  C   UNL     1      37.746 -26.436 -15.064  0.00  0.00    +0.006 C 
ATOM     28  C   UNL     1      38.693 -24.808 -13.550  0.00  0.00    +0.006 C 
ATOM     29  C   UNL     1      38.857 -25.875 -14.434  0.00  0.00    +0.075 C 
BRANCH  29  31
ATOM     30  O   UNL     1      40.949 -26.878 -13.852  0.00  0.00    -0.245 OA
ATOM     31  C   UNL     1      40.187 -26.402 -14.699  0.00  0.00    +0.338 C 
BRANCH  31  32
ATOM     32  O   UNL     1      40.527 -26.319 -16.015  0.00  0.00    -0.477 OA
ATOM     33  H   UNL     1      40.204 -25.611 -16.537  0.00  0.00    +0.295 HD
ENDBRANCH  31  32
ENDBRANCH  29  31
ENDBRANCH  23  24
ENDBRANCH   3  23
TORSDOF 7
ENDMDL
MODEL 3
REMARK VINA RESULT:     -11.2      0.672      1.485
REMARK  Name = 10224181
REMARK  7 active torsions:
REMARK  status: ('A' for Active; 'I' for Inactive)
REMARK    1  A    between atoms: N_3  and  C_23
REMARK    2  A    between atoms: C_12  and  C_14
REMARK    3  A    between atoms: C_15  and  C_16
REMARK    4  A    between atoms: C_16  and  C_17
REMARK    5  A    between atoms: C_23  and  C_24
REMARK    6  A    between atoms: C_29  and  C_31
REMARK    7  A    between atoms: C_31  and  O_32
REMARK                            x       y       z     vdW  Elec       q    Type
REMARK                         _______ _______ _______ _____ _____    ______ ____
ROOT
ATOM      1  O   UNL     1      32.331 -23.909 -17.052  0.00  0.00    -0.267 OA
ATOM      2  O   UNL     1      34.382 -24.469 -12.919  0.00  0.00    -0.246 OA
ATOM      3  N   UNL     1      33.336 -24.205 -14.967  0.00  0.00    -0.244 N 
ATOM      4  N   UNL     1      35.522 -23.325 -14.580  0.00  0.00    -0.279 N 
ATOM      5  C   UNL     1      35.557 -22.817 -15.913  0.00  0.00    +0.069 A 
ATOM      6  C   UNL     1      34.468 -23.015 -16.763  0.00  0.00    +0.073 A 
ATOM      7  C   UNL     1      33.280 -23.745 -16.288  0.00  0.00    +0.266 A 
ATOM      8  C   UNL     1      34.417 -24.028 -14.073  0.00  0.00    +0.334 A 
ATOM      9  C   UNL     1      34.483 -22.523 -18.078  0.00  0.00    +0.014 C 
ATOM     10  C   UNL     1      36.668 -22.113 -16.412  0.00  0.00    +0.018 C 
ATOM     11  C   UNL     1      36.677 -23.104 -13.711  0.00  0.00    +0.135 C 
ATOM     12  C   UNL     1      35.592 -21.829 -18.554  0.00  0.00    +0.042 C 
ATOM     13  C   UNL     1      36.683 -21.624 -17.721  0.00  0.00    +0.010 C 
ENDROOT
BRANCH  12  14
ATOM     14  C   UNL     1      35.605 -21.329 -19.892  0.00  0.00    -0.064 C 
ATOM     15  C   UNL     1      35.615 -20.904 -21.019  0.00  0.00    -0.082 C 
BRANCH  15  16
ATOM     16  C   UNL     1      35.625 -20.384 -22.391  0.00  0.00    +0.103 C 
BRANCH  16  17
ATOM     17  C   UNL     1      35.327 -18.906 -22.436  0.00  0.00    -0.009 C 
ATOM     18  C   UNL     1      35.247 -18.190 -21.251  0.00  0.00    -0.003 C 
ATOM     19  C   UNL     1      35.139 -18.286 -23.662  0.00  0.00    -0.003 C 
ATOM     20  C   UNL     1      34.973 -16.824 -21.292  0.00  0.00    -0.000 C 
ATOM     21  C   UNL     1      34.864 -16.919 -23.704  0.00  0.00    -0.000 C 
ATOM     22  C   UNL     1      34.781 -16.188 -22.519  0.00  0.00    -0.000 C 
ENDBRANCH  16  17
ENDBRANCH  15  16
ENDBRANCH  12  14
BRANCH   3  23
ATOM     23  C   UNL     1      32.173 -24.933 -14.466  0.00  0.00    +0.140 C 
BRANCH  23  24
ATOM     24  C   UNL     1      30.885 -24.370 -15.004  0.00  0.00    +0.001 C 
ATOM     25  C   UNL     1      30.086 -25.154 -15.825  0.00  0.00    -0.002 C 
ATOM     26  C   UNL     1      30.513 -23.075 -14.671  0.00  0.00    -0.002 C 
ATOM     27  C   UNL     1      28.892 -24.633 -16.323  0.00  0.00    +0.006 C 
ATOM     28  C   UNL     1      29.319 -22.553 -15.168  0.00  0.00    +0.006 C 
ATOM     29  C   UNL     1      28.509 -23.332 -15.995  0.00  0.00    +0.075 C 
BRANCH  29  31
ATOM     30  O   UNL     1      27.016 -22.577 -17.705  0.00  0.00    -0.245 OA
ATOM     31  C   UNL     1      27.263 -22.788 -16.514  0.00  0.00    +0.338 C 
BRANCH  31  32
ATOM     32  O   UNL     1      26.361 -22.522 -15.529  0.00  0.00    -0.477 OA
ATOM     33  H   UNL     1      25.890 -23.223 -15.125  0.00  0.00    +0.295 HD
ENDBRANCH  31  32
ENDBRANCH  29  31
ENDBRANCH  23  24
ENDBRANCH   3  23
TORSDOF 7
ENDMDL
MODEL 4
REMARK VINA RESULT:     -11.2      5.295      9.254
REMARK  Name = 10224181
REMARK  7 active torsions:
REMARK  status: ('A' for Active; 'I' for Inactive)
REMARK    1  A    between atoms: N_3  and  C_23
REMARK    2  A    between atoms: C_12  and  C_14
REMARK    3  A    between atoms: C_15  and  C_16
REMARK    4  A    between atoms: C_16  and  C_17
REMARK    5  A    between atoms: C_23  and  C_24
REMARK    6  A    between atoms: C_29  and  C_31
REMARK    7  A    between atoms: C_31  and  O_32
REMARK                            x       y       z     vdW  Elec       q    Type
REMARK                         _______ _______ _______ _____ _____    ______ ____
ROOT
ATOM      1  O   UNL     1      35.151 -16.411 -20.253  0.00  0.00    -0.267 OA
ATOM      2  O   UNL     1      35.955 -18.927 -24.078  0.00  0.00    -0.246 OA
ATOM      3  N   UNL     1      35.571 -17.694 -22.157  0.00  0.00    -0.244 N 
ATOM      4  N   UNL     1      34.660 -17.015 -24.256  0.00  0.00    -0.279 N 
ATOM      5  C   UNL     1      34.056 -15.883 -23.633  0.00  0.00    +0.069 A 
ATOM      6  C   UNL     1      34.221 -15.672 -22.263  0.00  0.00    +0.073 A 
ATOM      7  C   UNL     1      35.018 -16.614 -21.458  0.00  0.00    +0.266 A 
ATOM      8  C   UNL     1      35.430 -17.945 -23.540  0.00  0.00    +0.334 A 
ATOM      9  C   UNL     1      33.635 -14.563 -21.630  0.00  0.00    +0.014 C 
ATOM     10  C   UNL     1      33.287 -14.955 -24.358  0.00  0.00    +0.018 C 
ATOM     11  C   UNL     1      34.470 -17.212 -25.693  0.00  0.00    +0.135 C 
ATOM     12  C   UNL     1      32.877 -13.657 -22.365  0.00  0.00    +0.042 C 
ATOM     13  C   UNL     1      32.704 -13.852 -23.729  0.00  0.00    +0.010 C 
ENDROOT
BRANCH  12  14
ATOM     14  C   UNL     1      32.282 -12.530 -21.719  0.00  0.00    -0.064 C 
ATOM     15  C   UNL     1      31.782 -11.577 -21.178  0.00  0.00    -0.082 C 
BRANCH  15  16
ATOM     16  C   UNL     1      31.174 -10.414 -20.520  0.00  0.00    +0.103 C 
BRANCH  16  17
ATOM     17  C   UNL     1      31.673  -9.115 -21.099  0.00  0.00    -0.009 C 
ATOM     18  C   UNL     1      31.309  -8.758 -22.389  0.00  0.00    -0.003 C 
ATOM     19  C   UNL     1      32.489  -8.296 -20.332  0.00  0.00    -0.003 C 
ATOM     20  C   UNL     1      31.770  -7.555 -22.923  0.00  0.00    -0.000 C 
ATOM     21  C   UNL     1      32.951  -7.093 -20.867  0.00  0.00    -0.000 C 
ATOM     22  C   UNL     1      32.592  -6.723 -22.162  0.00  0.00    -0.000 C 
ENDBRANCH  16  17
ENDBRANCH  15  16
ENDBRANCH  12  14
BRANCH   3  23
ATOM     23  C   UNL     1      36.367 -18.646 -21.386  0.00  0.00    +0.140 C 
BRANCH  23  24
ATOM     24  C   UNL     1      35.518 -19.737 -20.793  0.00  0.00    +0.001 C 
ATOM     25  C   UNL     1      36.116 -20.728 -20.027  0.00  0.00    -0.002 C 
ATOM     26  C   UNL     1      34.149 -19.738 -21.019  0.00  0.00    -0.002 C 
ATOM     27  C   UNL     1      35.329 -21.740 -19.476  0.00  0.00    +0.006 C 
ATOM     28  C   UNL     1      33.362 -20.749 -20.469  0.00  0.00    +0.006 C 
ATOM     29  C   UNL     1      33.952 -21.751 -19.698  0.00  0.00    +0.075 C 
BRANCH  29  31
ATOM     30  O   UNL     1      32.128 -22.630 -18.424  0.00  0.00    -0.245 OA
ATOM     31  C   UNL     1      33.131 -22.805 -19.124  0.00  0.00    +0.338 C 
BRANCH  31  32
ATOM     32  O   UNL     1      33.585 -24.049 -19.439  0.00  0.00    -0.477 OA
ATOM     33  H   UNL     1      32.980 -24.720 -19.685  0.00  0.00    +0.295 HD
ENDBRANCH  31  32
ENDBRANCH  29  31
ENDBRANCH  23  24
ENDBRANCH   3  23
TORSDOF 7
ENDMDL
MODEL 5
REMARK VINA RESULT:     -10.8      3.006      6.556
REMARK  Name = 10224181
REMARK  7 active torsions:
REMARK  status: ('A' for Active; 'I' for Inactive)
REMARK    1  A    between atoms: N_3  and  C_23
REMARK    2  A    between atoms: C_12  and  C_14
REMARK    3  A    between atoms: C_15  and  C_16
REMARK    4  A    between atoms: C_16  and  C_17
REMARK    5  A    between atoms: C_23  and  C_24
REMARK    6  A    between atoms: C_29  and  C_31
REMARK    7  A    between atoms: C_31  and  O_32
REMARK                            x       y       z     vdW  Elec       q    Type
REMARK                         _______ _______ _______ _____ _____    ______ ____
ROOT
ATOM      1  O   UNL     1      35.547 -22.714 -15.091  0.00  0.00    -0.267 OA
ATOM      2  O   UNL     1      32.870 -25.431 -12.435  0.00  0.00    -0.246 OA
ATOM      3  N   UNL     1      34.225 -24.080 -13.737  0.00  0.00    -0.244 N 
ATOM      4  N   UNL     1      32.031 -24.681 -14.459  0.00  0.00    -0.279 N 
ATOM      5  C   UNL     1      32.214 -23.927 -15.656  0.00  0.00    +0.069 A 
ATOM      6  C   UNL     1      33.415 -23.252 -15.877  0.00  0.00    +0.073 A 
ATOM      7  C   UNL     1      34.496 -23.316 -14.879  0.00  0.00    +0.266 A 
ATOM      8  C   UNL     1      33.025 -24.779 -13.473  0.00  0.00    +0.334 A 
ATOM      9  C   UNL     1      33.616 -22.505 -17.049  0.00  0.00    +0.014 C 
ATOM     10  C   UNL     1      31.213 -23.836 -16.640  0.00  0.00    +0.018 C 
ATOM     11  C   UNL     1      30.761 -25.378 -14.253  0.00  0.00    +0.135 C 
ATOM     12  C   UNL     1      32.612 -22.426 -18.011  0.00  0.00    +0.042 C 
ATOM     13  C   UNL     1      31.411 -23.093 -17.806  0.00  0.00    +0.010 C 
ENDROOT
BRANCH  12  14
ATOM     14  C   UNL     1      32.818 -21.666 -19.202  0.00  0.00    -0.064 C 
ATOM     15  C   UNL     1      32.988 -21.026 -20.209  0.00  0.00    -0.082 C 
BRANCH  15  16
ATOM     16  C   UNL     1      33.193 -20.248 -21.436  0.00  0.00    +0.103 C 
BRANCH  16  17
ATOM     17  C   UNL     1      34.607 -19.740 -21.552  0.00  0.00    -0.009 C 
ATOM     18  C   UNL     1      35.577 -20.217 -20.682  0.00  0.00    -0.003 C 
ATOM     19  C   UNL     1      34.918 -18.804 -22.527  0.00  0.00    -0.003 C 
ATOM     20  C   UNL     1      36.886 -19.748 -20.790  0.00  0.00    -0.000 C 
ATOM     21  C   UNL     1      36.227 -18.334 -22.635  0.00  0.00    -0.000 C 
ATOM     22  C   UNL     1      37.211 -18.806 -21.767  0.00  0.00    -0.000 C 
ENDBRANCH  16  17
ENDBRANCH  15  16
ENDBRANCH  12  14
BRANCH   3  23
ATOM     23  C   UNL     1      35.278 -24.163 -12.728  0.00  0.00    +0.140 C 
BRANCH  23  24
ATOM     24  C   UNL     1      36.555 -24.724 -13.294  0.00  0.00    +0.001 C 
ATOM     25  C   UNL     1      37.774 -24.234 -12.846  0.00  0.00    -0.002 C 
ATOM     26  C   UNL     1      36.496 -25.723 -14.255  0.00  0.00    -0.002 C 
ATOM     27  C   UNL     1      38.957 -24.754 -13.370  0.00  0.00    +0.006 C 
ATOM     28  C   UNL     1      37.679 -26.243 -14.780  0.00  0.00    +0.006 C 
ATOM     29  C   UNL     1      38.910 -25.758 -14.337  0.00  0.00    +0.075 C 
BRANCH  29  31
ATOM     30  O   UNL     1      41.024 -26.874 -14.233  0.00  0.00    -0.245 OA
ATOM     31  C   UNL     1      40.145 -26.300 -14.884  0.00  0.00    +0.338 C 
BRANCH  31  32
ATOM     32  O   UNL     1      40.246 -26.111 -16.228  0.00  0.00    -0.477 OA
ATOM     33  H   UNL     1      41.018 -25.721 -16.588  0.00  0.00    +0.295 HD
ENDBRANCH  31  32
ENDBRANCH  29  31
ENDBRANCH  23  24
ENDBRANCH   3  23
TORSDOF 7
ENDMDL
MODEL 6
REMARK VINA RESULT:     -10.6     10.417     15.919
REMARK  Name = 10224181
REMARK  7 active torsions:
REMARK  status: ('A' for Active; 'I' for Inactive)
REMARK    1  A    between atoms: N_3  and  C_23
REMARK    2  A    between atoms: C_12  and  C_14
REMARK    3  A    between atoms: C_15  and  C_16
REMARK    4  A    between atoms: C_16  and  C_17
REMARK    5  A    between atoms: C_23  and  C_24
REMARK    6  A    between atoms: C_29  and  C_31
REMARK    7  A    between atoms: C_31  and  O_32
REMARK                            x       y       z     vdW  Elec       q    Type
REMARK                         _______ _______ _______ _____ _____    ______ ____
ROOT
ATOM      1  O   UNL     1      35.320  -9.246 -25.033  0.00  0.00    -0.267 OA
ATOM      2  O   UNL     1      32.998  -6.425 -22.160  0.00  0.00    -0.246 OA
ATOM      3  N   UNL     1      34.171  -7.806 -23.601  0.00  0.00    -0.244 N 
ATOM      4  N   UNL     1      32.462  -8.679 -22.180  0.00  0.00    -0.279 N 
ATOM      5  C   UNL     1      32.690  -9.986 -22.703  0.00  0.00    +0.069 A 
ATOM      6  C   UNL     1      33.667 -10.185 -23.679  0.00  0.00    +0.073 A 
ATOM      7  C   UNL     1      34.465  -9.050 -24.172  0.00  0.00    +0.266 A 
ATOM      8  C   UNL     1      33.192  -7.560 -22.611  0.00  0.00    +0.334 A 
ATOM      9  C   UNL     1      33.907 -11.465 -24.206  0.00  0.00    +0.014 C 
ATOM     10  C   UNL     1      31.954 -11.102 -22.265  0.00  0.00    +0.018 C 
ATOM     11  C   UNL     1      31.431  -8.498 -21.158  0.00  0.00    +0.135 C 
ATOM     12  C   UNL     1      33.168 -12.557 -23.760  0.00  0.00    +0.042 C 
ATOM     13  C   UNL     1      32.192 -12.375 -22.788  0.00  0.00    +0.010 C 
ENDROOT
BRANCH  12  14
ATOM     14  C   UNL     1      33.413 -13.857 -24.297  0.00  0.00    -0.064 C 
ATOM     15  C   UNL     1      33.622 -14.956 -24.746  0.00  0.00    -0.082 C 
BRANCH  15  16
ATOM     16  C   UNL     1      33.878 -16.294 -25.291  0.00  0.00    +0.103 C 
BRANCH  16  17
ATOM     17  C   UNL     1      34.363 -17.250 -24.232  0.00  0.00    -0.009 C 
ATOM     18  C   UNL     1      34.989 -16.753 -23.098  0.00  0.00    -0.003 C 
ATOM     19  C   UNL     1      34.174 -18.613 -24.406  0.00  0.00    -0.003 C 
ATOM     20  C   UNL     1      35.437 -17.637 -22.118  0.00  0.00    -0.000 C 
ATOM     21  C   UNL     1      34.623 -19.498 -23.426  0.00  0.00    -0.000 C 
ATOM     22  C   UNL     1      35.254 -19.011 -22.282  0.00  0.00    -0.000 C 
ENDBRANCH  16  17
ENDBRANCH  15  16
ENDBRANCH  12  14
BRANCH   3  23
ATOM     23  C   UNL     1      34.946  -6.660 -24.068  0.00  0.00    +0.140 C 
BRANCH  23  24
ATOM     24  C   UNL     1      34.190  -5.848 -25.085  0.00  0.00    +0.001 C 
ATOM     25  C   UNL     1      34.891  -5.070 -25.997  0.00  0.00    -0.002 C 
ATOM     26  C   UNL     1      32.803  -5.888 -25.098  0.00  0.00    -0.002 C 
ATOM     27  C   UNL     1      34.190  -4.318 -26.939  0.00  0.00    +0.006 C 
ATOM     28  C   UNL     1      32.102  -5.136 -26.040  0.00  0.00    +0.006 C 
ATOM     29  C   UNL     1      32.796  -4.350 -26.961  0.00  0.00    +0.075 C 
BRANCH  29  31
ATOM     30  O   UNL     1      31.046  -2.906 -27.718  0.00  0.00    -0.245 OA
ATOM     31  C   UNL     1      32.065  -3.566 -27.944  0.00  0.00    +0.338 C 
BRANCH  31  32
ATOM     32  O   UNL     1      32.626  -3.629 -29.183  0.00  0.00    -0.477 OA
ATOM     33  H   UNL     1      33.088  -4.400 -29.448  0.00  0.00    +0.295 HD
ENDBRANCH  31  32
ENDBRANCH  29  31
ENDBRANCH  23  24
ENDBRANCH   3  23
TORSDOF 7
ENDMDL
MODEL 7
REMARK VINA RESULT:     -10.4      2.979      5.374
REMARK  Name = 10224181
REMARK  7 active torsions:
REMARK  status: ('A' for Active; 'I' for Inactive)
REMARK    1  A    between atoms: N_3  and  C_23
REMARK    2  A    between atoms: C_12  and  C_14
REMARK    3  A    between atoms: C_15  and  C_16
REMARK    4  A    between atoms: C_16  and  C_17
REMARK    5  A    between atoms: C_23  and  C_24
REMARK    6  A    between atoms: C_29  and  C_31
REMARK    7  A    between atoms: C_31  and  O_32
REMARK                            x       y       z     vdW  Elec       q    Type
REMARK                         _______ _______ _______ _____ _____    ______ ____
ROOT
ATOM      1  O   UNL     1      37.505 -21.969 -18.227  0.00  0.00    -0.267 OA
ATOM      2  O   UNL     1      34.619 -24.341 -15.462  0.00  0.00    -0.246 OA
ATOM      3  N   UNL     1      36.080 -23.169 -16.822  0.00  0.00    -0.244 N 
ATOM      4  N   UNL     1      33.730 -23.161 -17.246  0.00  0.00    -0.279 N 
ATOM      5  C   UNL     1      33.934 -22.316 -18.378  0.00  0.00    +0.069 A 
ATOM      6  C   UNL     1      35.224 -21.906 -18.717  0.00  0.00    +0.073 A 
ATOM      7  C   UNL     1      36.377 -22.342 -17.912  0.00  0.00    +0.266 A 
ATOM      8  C   UNL     1      34.791 -23.609 -16.443  0.00  0.00    +0.334 A 
ATOM      9  C   UNL     1      35.446 -21.075 -19.828  0.00  0.00    +0.014 C 
ATOM     10  C   UNL     1      32.866 -21.873 -19.178  0.00  0.00    +0.018 C 
ATOM     11  C   UNL     1      32.368 -23.575 -16.913  0.00  0.00    +0.135 C 
ATOM     12  C   UNL     1      34.375 -20.646 -20.607  0.00  0.00    +0.042 C 
ATOM     13  C   UNL     1      33.085 -21.046 -20.283  0.00  0.00    +0.010 C 
ENDROOT
BRANCH  12  14
ATOM     14  C   UNL     1      34.603 -19.801 -21.736  0.00  0.00    -0.064 C 
ATOM     15  C   UNL     1      34.794 -19.085 -22.686  0.00  0.00    -0.082 C 
BRANCH  15  16
ATOM     16  C   UNL     1      35.027 -18.210 -23.841  0.00  0.00    +0.103 C 
BRANCH  16  17
ATOM     17  C   UNL     1      34.640 -16.782 -23.553  0.00  0.00    -0.009 C 
ATOM     18  C   UNL     1      34.103 -16.003 -24.567  0.00  0.00    -0.003 C 
ATOM     19  C   UNL     1      34.825 -16.269 -22.277  0.00  0.00    -0.003 C 
ATOM     20  C   UNL     1      33.744 -14.682 -24.300  0.00  0.00    -0.000 C 
ATOM     21  C   UNL     1      34.466 -14.948 -22.011  0.00  0.00    -0.000 C 
ATOM     22  C   UNL     1      33.926 -14.155 -23.022  0.00  0.00    -0.000 C 
ENDBRANCH  16  17
ENDBRANCH  15  16
ENDBRANCH  12  14
BRANCH   3  23
ATOM     23  C   UNL     1      37.203 -23.620 -16.004  0.00  0.00    +0.140 C 
BRANCH  23  24
ATOM     24  C   UNL     1      36.787 -23.899 -14.585  0.00  0.00    +0.001 C 
ATOM     25  C   UNL     1      36.731 -25.211 -14.135  0.00  0.00    -0.002 C 
ATOM     26  C   UNL     1      36.466 -22.841 -13.745  0.00  0.00    -0.002 C 
ATOM     27  C   UNL     1      36.346 -25.470 -12.819  0.00  0.00    +0.006 C 
ATOM     28  C   UNL     1      36.081 -23.100 -12.430  0.00  0.00    +0.006 C 
ATOM     29  C   UNL     1      36.021 -24.415 -11.967  0.00  0.00    +0.075 C 
BRANCH  29  31
ATOM     30  O   UNL     1      34.904 -25.624 -10.230  0.00  0.00    -0.245 OA
ATOM     31  C   UNL     1      35.619 -24.685 -10.595  0.00  0.00    +0.338 C 
BRANCH  31  32
ATOM     32  O   UNL     1      36.121 -23.774  -9.717  0.00  0.00    -0.477 OA
ATOM     33  H   UNL     1      35.667 -23.595  -8.918  0.00  0.00    +0.295 HD
ENDBRANCH  31  32
ENDBRANCH  29  31
ENDBRANCH  23  24
ENDBRANCH   3  23
TORSDOF 7
ENDMDL
MODEL 8
REMARK VINA RESULT:     -10.2      4.930      8.955
REMARK  Name = 10224181
REMARK  7 active torsions:
REMARK  status: ('A' for Active; 'I' for Inactive)
REMARK    1  A    between atoms: N_3  and  C_23
REMARK    2  A    between atoms: C_12  and  C_14
REMARK    3  A    between atoms: C_15  and  C_16
REMARK    4  A    between atoms: C_16  and  C_17
REMARK    5  A    between atoms: C_23  and  C_24
REMARK    6  A    between atoms: C_29  and  C_31
REMARK    7  A    between atoms: C_31  and  O_32
REMARK                            x       y       z     vdW  Elec       q    Type
REMARK                         _______ _______ _______ _____ _____    ______ ____
ROOT
ATOM      1  O   UNL     1      35.484 -16.399 -20.917  0.00  0.00    -0.267 OA
ATOM      2  O   UNL     1      35.467 -20.066 -23.773  0.00  0.00    -0.246 OA
ATOM      3  N   UNL     1      35.491 -18.256 -22.330  0.00  0.00    -0.244 N 
ATOM      4  N   UNL     1      34.435 -18.112 -24.466  0.00  0.00    -0.279 N 
ATOM      5  C   UNL     1      34.072 -16.758 -24.200  0.00  0.00    +0.069 A 
ATOM      6  C   UNL     1      34.429 -16.167 -22.986  0.00  0.00    +0.073 A 
ATOM      7  C   UNL     1      35.180 -16.936 -21.980  0.00  0.00    +0.266 A 
ATOM      8  C   UNL     1      35.151 -18.893 -23.545  0.00  0.00    +0.334 A 
ATOM      9  C   UNL     1      34.082 -14.836 -22.705  0.00  0.00    +0.014 C 
ATOM     10  C   UNL     1      33.356 -15.982 -25.129  0.00  0.00    +0.018 C 
ATOM     11  C   UNL     1      34.048 -18.706 -25.745  0.00  0.00    +0.135 C 
ATOM     12  C   UNL     1      33.372 -14.085 -23.637  0.00  0.00    +0.042 C 
ATOM     13  C   UNL     1      33.010 -14.658 -24.849  0.00  0.00    +0.010 C 
ENDROOT
BRANCH  12  14
ATOM     14  C   UNL     1      33.020 -12.731 -23.349  0.00  0.00    -0.064 C 
ATOM     15  C   UNL     1      32.719 -11.589 -23.109  0.00  0.00    -0.082 C 
BRANCH  15  16
ATOM     16  C   UNL     1      32.351 -10.199 -22.818  0.00  0.00    +0.103 C 
BRANCH  16  17
ATOM     17  C   UNL     1      33.302  -9.219 -23.457  0.00  0.00    -0.009 C 
ATOM     18  C   UNL     1      33.569  -8.014 -22.823  0.00  0.00    -0.003 C 
ATOM     19  C   UNL     1      33.896  -9.537 -24.670  0.00  0.00    -0.003 C 
ATOM     20  C   UNL     1      34.449  -7.108 -23.414  0.00  0.00    -0.000 C 
ATOM     21  C   UNL     1      34.776  -8.631 -25.261  0.00  0.00    -0.000 C 
ATOM     22  C   UNL     1      35.053  -7.417 -24.634  0.00  0.00    -0.000 C 
ENDBRANCH  16  17
ENDBRANCH  15  16
ENDBRANCH  12  14
BRANCH   3  23
ATOM     23  C   UNL     1      36.237 -19.045 -21.352  0.00  0.00    +0.140 C 
BRANCH  23  24
ATOM     24  C   UNL     1      35.360 -20.054 -20.660  0.00  0.00    +0.001 C 
ATOM     25  C   UNL     1      35.941 -21.028 -19.860  0.00  0.00    -0.002 C 
ATOM     26  C   UNL     1      33.984 -19.995 -20.830  0.00  0.00    -0.002 C 
ATOM     27  C   UNL     1      35.129 -21.963 -19.217  0.00  0.00    +0.006 C 
ATOM     28  C   UNL     1      33.172 -20.930 -20.188  0.00  0.00    +0.006 C 
ATOM     29  C   UNL     1      33.745 -21.914 -19.382  0.00  0.00    +0.075 C 
BRANCH  29  31
ATOM     30  O   UNL     1      31.829 -22.638 -18.145  0.00  0.00    -0.245 OA
ATOM     31  C   UNL     1      32.898 -22.889 -18.712  0.00  0.00    +0.338 C 
BRANCH  31  32
ATOM     32  O   UNL     1      33.409 -24.149 -18.767  0.00  0.00    -0.477 OA
ATOM     33  H   UNL     1      34.123 -24.389 -18.211  0.00  0.00    +0.295 HD
ENDBRANCH  31  32
ENDBRANCH  29  31
ENDBRANCH  23  24
ENDBRANCH   3  23
TORSDOF 7
ENDMDL
MODEL 9
REMARK VINA RESULT:     -10.1      4.804      8.872
REMARK  Name = 10224181
REMARK  7 active torsions:
REMARK  status: ('A' for Active; 'I' for Inactive)
REMARK    1  A    between atoms: N_3  and  C_23
REMARK    2  A    between atoms: C_12  and  C_14
REMARK    3  A    between atoms: C_15  and  C_16
REMARK    4  A    between atoms: C_16  and  C_17
REMARK    5  A    between atoms: C_23  and  C_24
REMARK    6  A    between atoms: C_29  and  C_31
REMARK    7  A    between atoms: C_31  and  O_32
REMARK                            x       y       z     vdW  Elec       q    Type
REMARK                         _______ _______ _______ _____ _____    ______ ____
ROOT
ATOM      1  O   UNL     1      35.629 -16.337 -21.144  0.00  0.00    -0.267 OA
ATOM      2  O   UNL     1      35.317 -20.225 -23.673  0.00  0.00    -0.246 OA
ATOM      3  N   UNL     1      35.488 -18.304 -22.392  0.00  0.00    -0.244 N 
ATOM      4  N   UNL     1      34.348 -18.286 -24.490  0.00  0.00    -0.279 N 
ATOM      5  C   UNL     1      34.061 -16.898 -24.326  0.00  0.00    +0.069 A 
ATOM      6  C   UNL     1      34.497 -16.227 -23.182  0.00  0.00    +0.073 A 
ATOM      7  C   UNL     1      35.254 -16.946 -22.144  0.00  0.00    +0.266 A 
ATOM      8  C   UNL     1      35.066 -19.022 -23.534  0.00  0.00    +0.334 A 
ATOM      9  C   UNL     1      34.224 -14.861 -23.002  0.00  0.00    +0.014 C 
ATOM     10  C   UNL     1      33.341 -16.168 -25.289  0.00  0.00    +0.018 C 
ATOM     11  C   UNL     1      33.878 -18.965 -25.697  0.00  0.00    +0.135 C 
ATOM     12  C   UNL     1      33.511 -14.155 -23.967  0.00  0.00    +0.042 C 
ATOM     13  C   UNL     1      33.070 -14.809 -25.110  0.00  0.00    +0.010 C 
ENDROOT
BRANCH  12  14
ATOM     14  C   UNL     1      33.235 -12.766 -23.782  0.00  0.00    -0.064 C 
ATOM     15  C   UNL     1      32.999 -11.595 -23.629  0.00  0.00    -0.082 C 
BRANCH  15  16
ATOM     16  C   UNL     1      32.710 -10.168 -23.444  0.00  0.00    +0.103 C 
BRANCH  16  17
ATOM     17  C   UNL     1      32.134  -9.881 -22.081  0.00  0.00    -0.009 C 
ATOM     18  C   UNL     1      31.449 -10.880 -21.406  0.00  0.00    -0.003 C 
ATOM     19  C   UNL     1      32.299  -8.622 -21.522  0.00  0.00    -0.003 C 
ATOM     20  C   UNL     1      30.917 -10.615 -20.144  0.00  0.00    -0.000 C 
ATOM     21  C   UNL     1      31.767  -8.357 -20.261  0.00  0.00    -0.000 C 
ATOM     22  C   UNL     1      31.076  -9.353 -19.572  0.00  0.00    -0.000 C 
ENDBRANCH  16  17
ENDBRANCH  15  16
ENDBRANCH  12  14
BRANCH   3  23
ATOM     23  C   UNL     1      36.238 -19.045 -21.381  0.00  0.00    +0.140 C 
BRANCH  23  24
ATOM     24  C   UNL     1      35.383 -20.073 -20.690  0.00  0.00    +0.001 C 
ATOM     25  C   UNL     1      34.002 -20.012 -20.820  0.00  0.00    -0.002 C 
ATOM     26  C   UNL     1      35.987 -21.068 -19.935  0.00  0.00    -0.002 C 
ATOM     27  C   UNL     1      33.210 -20.965 -20.180  0.00  0.00    +0.006 C 
ATOM     28  C   UNL     1      35.195 -22.021 -19.295  0.00  0.00    +0.006 C 
ATOM     29  C   UNL     1      33.806 -21.970 -19.418  0.00  0.00    +0.075 C 
BRANCH  29  31
ATOM     30  O   UNL     1      33.277 -24.153 -18.595  0.00  0.00    -0.245 OA
ATOM     31  C   UNL     1      32.979 -22.965 -18.751  0.00  0.00    +0.338 C 
BRANCH  31  32
ATOM     32  O   UNL     1      31.805 -22.447 -18.299  0.00  0.00    -0.477 OA
ATOM     33  H   UNL     1      31.194 -22.073 -18.903  0.00  0.00    +0.295 HD
ENDBRANCH  31  32
ENDBRANCH  29  31
ENDBRANCH  23  24
ENDBRANCH   3  23
TORSDOF 7
ENDMDL
