MODEL 1
REMARK VINA RESULT:     -11.9      0.000      0.000
REMARK  Name = 60870
REMARK  7 active torsions:
REMARK  status: ('A' for Active; 'I' for Inactive)
REMARK    1  A    between atoms: C_2  and  C_4
REMARK    2  A    between atoms: C_2  and  C_18
REMARK    3  A    between atoms: C_3  and  C_9
REMARK    4  A    between atoms: C_9  and  C_14
REMARK    5  A    between atoms: C_18  and  C_19
REMARK    6  A    between atoms: C_19  and  C_22
REMARK    7  A    between atoms: C_24  and  C_26
REMARK                            x       y       z     vdW  Elec       q    Type
REMARK                         _______ _______ _______ _____ _____    ______ ____
ROOT
ATOM      1  O   UNL     1      33.437 -24.382 -18.577  0.00  0.00    -0.291 OA
ATOM      2  C   UNL     1      33.219 -23.166 -18.402  0.00  0.00    +0.173 C 
ENDROOT
BRANCH   2   4
ATOM      3  C   UNL     1      34.945 -20.268 -20.952  0.00  0.00    -0.021 C 
ATOM      4  C   UNL     1      33.813 -22.169 -19.281  0.00  0.00    +0.035 C 
ATOM      5  C   UNL     1      35.768 -21.146 -20.263  0.00  0.00    -0.004 C 
ATOM      6  C   UNL     1      33.566 -20.325 -20.821  0.00  0.00    -0.004 C 
ATOM      7  C   UNL     1      35.199 -22.103 -19.422  0.00  0.00    +0.003 C 
ATOM      8  C   UNL     1      32.996 -21.281 -19.980  0.00  0.00    +0.003 C 
BRANCH   3   9
ATOM      9  C   UNL     1      35.561 -19.236 -21.862  0.00  0.00    +0.047 C 
BRANCH   9  14
ATOM     10  S   UNL     1      34.513 -18.424 -24.276  0.00  0.00    -0.048 S 
ATOM     11  O   UNL     1      34.928 -16.433 -20.996  0.00  0.00    -0.274 OA
ATOM     12  O   UNL     1      34.865 -16.185 -25.607  0.00  0.00    -0.263 OA
ATOM     13  N   UNL     1      34.917 -16.104 -23.285  0.00  0.00    -0.246 N 
ATOM     14  C   UNL     1      34.515 -18.311 -22.460  0.00  0.00    +0.137 C 
ATOM     15  C   UNL     1      34.809 -16.863 -22.138  0.00  0.00    +0.239 C 
ATOM     16  C   UNL     1      34.793 -16.711 -24.507  0.00  0.00    +0.279 C 
ATOM     17  H   UNL     1      35.082 -15.136 -23.226  0.00  0.00    +0.158 HD
ENDBRANCH   9  14
ENDBRANCH   3   9
ENDBRANCH   2   4
BRANCH   2  18
ATOM     18  C   UNL     1      32.307 -22.723 -17.242  0.00  0.00    +0.076 C 
BRANCH  18  19
ATOM     19  C   UNL     1      31.724 -23.892 -16.444  0.00  0.00    +0.066 C 
BRANCH  19  22
ATOM     20  O   UNL     1      33.100 -24.692 -13.158  0.00  0.00    -0.449 OA
ATOM     21  N   UNL     1      33.848 -24.020 -15.184  0.00  0.00    -0.373 NA
ATOM     22  C   UNL     1      32.499 -24.169 -15.190  0.00  0.00    +0.130 C 
ATOM     23  C   UNL     1      32.026 -24.571 -13.987  0.00  0.00    +0.216 C 
ATOM     24  C   UNL     1      34.152 -24.344 -13.947  0.00  0.00    +0.277 C 
ATOM     25  C   UNL     1      30.708 -24.882 -13.423  0.00  0.00    +0.055 C 
BRANCH  24  26
ATOM     26  C   UNL     1      35.438 -24.387 -13.306  0.00  0.00    +0.066 C 
ATOM     27  C   UNL     1      35.752 -23.473 -12.297  0.00  0.00    +0.006 C 
ATOM     28  C   UNL     1      36.383 -25.343 -13.691  0.00  0.00    +0.006 C 
ATOM     29  C   UNL     1      37.001 -23.514 -11.676  0.00  0.00    +0.000 C 
ATOM     30  C   UNL     1      37.632 -25.385 -13.070  0.00  0.00    +0.000 C 
ATOM     31  C   UNL     1      37.940 -24.470 -12.063  0.00  0.00    +0.000 C 
ENDBRANCH  24  26
ENDBRANCH  19  22
ENDBRANCH  18  19
ENDBRANCH   2  18
TORSDOF 7
ENDMDL
MODEL 2
REMARK VINA RESULT:     -11.7      3.219     10.209
REMARK  Name = 60870
REMARK  7 active torsions:
REMARK  status: ('A' for Active; 'I' for Inactive)
REMARK    1  A    between atoms: C_2  and  C_4
REMARK    2  A    between atoms: C_2  and  C_18
REMARK    3  A    between atoms: C_3  and  C_9
REMARK    4  A    between atoms: C_9  and  C_14
REMARK    5  A    between atoms: C_18  and  C_19
REMARK    6  A    between atoms: C_19  and  C_22
REMARK    7  A    between atoms: C_24  and  C_26
REMARK                            x       y       z     vdW  Elec       q    Type
REMARK                         _______ _______ _______ _____ _____    ______ ____
ROOT
ATOM      1  O   UNL     1      32.086 -23.602 -17.171  0.00  0.00    -0.291 OA
ATOM      2  C   UNL     1      33.292 -23.323 -17.329  0.00  0.00    +0.173 C 
ENDROOT
BRANCH   2   4
ATOM      3  C   UNL     1      35.959 -23.310 -14.048  0.00  0.00    -0.021 C 
ATOM      4  C   UNL     1      34.209 -23.317 -16.200  0.00  0.00    +0.035 C 
ATOM      5  C   UNL     1      36.364 -22.765 -15.258  0.00  0.00    -0.004 C 
ATOM      6  C   UNL     1      34.694 -23.857 -13.896  0.00  0.00    -0.004 C 
ATOM      7  C   UNL     1      35.484 -22.769 -16.340  0.00  0.00    +0.003 C 
ATOM      8  C   UNL     1      33.813 -23.861 -14.979  0.00  0.00    +0.003 C 
BRANCH   3   9
ATOM      9  C   UNL     1      36.909 -23.305 -12.878  0.00  0.00    +0.047 C 
BRANCH   9  14
ATOM     10  S   UNL     1      38.343 -25.150 -14.336  0.00  0.00    -0.048 S 
ATOM     11  O   UNL     1      36.033 -25.697 -11.292  0.00  0.00    -0.274 OA
ATOM     12  O   UNL     1      37.641 -27.526 -15.216  0.00  0.00    -0.263 OA
ATOM     13  N   UNL     1      36.733 -26.784 -13.210  0.00  0.00    -0.246 N 
ATOM     14  C   UNL     1      37.645 -24.625 -12.739  0.00  0.00    +0.137 C 
ATOM     15  C   UNL     1      36.712 -25.736 -12.312  0.00  0.00    +0.239 C 
ATOM     16  C   UNL     1      37.515 -26.693 -14.331  0.00  0.00    +0.279 C 
ATOM     17  H   UNL     1      36.192 -27.588 -13.046  0.00  0.00    +0.158 HD
ENDBRANCH   9  14
ENDBRANCH   3   9
ENDBRANCH   2   4
BRANCH   2  18
ATOM     18  C   UNL     1      33.808 -22.984 -18.741  0.00  0.00    +0.076 C 
BRANCH  18  19
ATOM     19  C   UNL     1      33.043 -21.839 -19.412  0.00  0.00    +0.066 C 
BRANCH  19  22
ATOM     20  O   UNL     1      35.646 -19.989 -21.183  0.00  0.00    -0.449 OA
ATOM     21  N   UNL     1      33.390 -20.155 -21.189  0.00  0.00    -0.373 NA
ATOM     22  C   UNL     1      33.933 -20.980 -20.259  0.00  0.00    +0.130 C 
ATOM     23  C   UNL     1      35.284 -20.900 -20.235  0.00  0.00    +0.216 C 
ATOM     24  C   UNL     1      34.457 -19.589 -21.708  0.00  0.00    +0.277 C 
ATOM     25  C   UNL     1      36.365 -21.531 -19.471  0.00  0.00    +0.055 C 
BRANCH  24  26
ATOM     26  C   UNL     1      34.550 -18.608 -22.754  0.00  0.00    +0.066 C 
ATOM     27  C   UNL     1      35.139 -17.366 -22.504  0.00  0.00    +0.006 C 
ATOM     28  C   UNL     1      34.048 -18.890 -24.028  0.00  0.00    +0.006 C 
ATOM     29  C   UNL     1      35.228 -16.413 -23.519  0.00  0.00    +0.000 C 
ATOM     30  C   UNL     1      34.137 -17.937 -25.044  0.00  0.00    +0.000 C 
ATOM     31  C   UNL     1      34.727 -16.698 -24.788  0.00  0.00    +0.000 C 
ENDBRANCH  24  26
ENDBRANCH  19  22
ENDBRANCH  18  19
ENDBRANCH   2  18
TORSDOF 7
ENDMDL
MODEL 3
REMARK VINA RESULT:     -11.7      5.787     10.334
REMARK  Name = 60870
REMARK  7 active torsions:
REMARK  status: ('A' for Active; 'I' for Inactive)
REMARK    1  A    between atoms: C_2  and  C_4
REMARK    2  A    between atoms: C_2  and  C_18
REMARK    3  A    between atoms: C_3  and  C_9
REMARK    4  A    between atoms: C_9  and  C_14
REMARK    5  A    between atoms: C_18  and  C_19
REMARK    6  A    between atoms: C_19  and  C_22
REMARK    7  A    between atoms: C_24  and  C_26
REMARK                            x       y       z     vdW  Elec       q    Type
REMARK                         _______ _______ _______ _____ _____    ______ ____
ROOT
ATOM      1  O   UNL     1      33.467 -15.516 -25.879  0.00  0.00    -0.291 OA
ATOM      2  C   UNL     1      33.744 -14.733 -24.948  0.00  0.00    +0.173 C 
ENDROOT
BRANCH   2   4
ATOM      3  C   UNL     1      33.731 -10.550 -25.566  0.00  0.00    -0.021 C 
ATOM      4  C   UNL     1      33.741 -13.293 -25.161  0.00  0.00    +0.035 C 
ATOM      5  C   UNL     1      33.805 -11.048 -24.273  0.00  0.00    -0.004 C 
ATOM      6  C   UNL     1      33.663 -11.400 -26.659  0.00  0.00    -0.004 C 
ATOM      7  C   UNL     1      33.809 -12.428 -24.070  0.00  0.00    +0.003 C 
ATOM      8  C   UNL     1      33.668 -12.781 -26.455  0.00  0.00    +0.003 C 
BRANCH   3   9
ATOM      9  C   UNL     1      33.727  -9.059 -25.786  0.00  0.00    +0.047 C 
BRANCH   9  14
ATOM     10  S   UNL     1      31.828  -7.257 -24.929  0.00  0.00    -0.048 S 
ATOM     11  O   UNL     1      35.469  -7.726 -23.738  0.00  0.00    -0.274 OA
ATOM     12  O   UNL     1      32.047  -4.694 -24.393  0.00  0.00    -0.263 OA
ATOM     13  N   UNL     1      33.878  -6.065 -23.982  0.00  0.00    -0.246 N 
ATOM     14  C   UNL     1      33.268  -8.304 -24.551  0.00  0.00    +0.137 C 
ATOM     15  C   UNL     1      34.340  -7.363 -24.048  0.00  0.00    +0.239 C 
ATOM     16  C   UNL     1      32.600  -5.783 -24.386  0.00  0.00    +0.279 C 
ATOM     17  H   UNL     1      34.462  -5.347 -23.646  0.00  0.00    +0.158 HD
ENDBRANCH   9  14
ENDBRANCH   3   9
ENDBRANCH   2   4
BRANCH   2  18
ATOM     18  C   UNL     1      34.090 -15.305 -23.560  0.00  0.00    +0.076 C 
BRANCH  18  19
ATOM     19  C   UNL     1      35.248 -16.306 -23.584  0.00  0.00    +0.066 C 
BRANCH  19  22
ATOM     20  O   UNL     1      33.959 -19.677 -23.027  0.00  0.00    -0.449 OA
ATOM     21  N   UNL     1      35.190 -18.136 -21.920  0.00  0.00    -0.373 NA
ATOM     22  C   UNL     1      34.824 -17.676 -23.143  0.00  0.00    +0.130 C 
ATOM     23  C   UNL     1      34.085 -18.581 -23.827  0.00  0.00    +0.216 C 
ATOM     24  C   UNL     1      34.646 -19.332 -21.905  0.00  0.00    +0.277 C 
ATOM     25  C   UNL     1      33.439 -18.637 -25.143  0.00  0.00    +0.055 C 
BRANCH  24  26
ATOM     26  C   UNL     1      34.674 -20.332 -20.873  0.00  0.00    +0.066 C 
ATOM     27  C   UNL     1      33.484 -20.903 -20.414  0.00  0.00    +0.006 C 
ATOM     28  C   UNL     1      35.892 -20.738 -20.320  0.00  0.00    +0.006 C 
ATOM     29  C   UNL     1      33.511 -21.873 -19.411  0.00  0.00    +0.000 C 
ATOM     30  C   UNL     1      35.919 -21.708 -19.318  0.00  0.00    +0.000 C 
ATOM     31  C   UNL     1      34.728 -22.275 -18.863  0.00  0.00    +0.000 C 
ENDBRANCH  24  26
ENDBRANCH  19  22
ENDBRANCH  18  19
ENDBRANCH   2  18
TORSDOF 7
ENDMDL
MODEL 4
REMARK VINA RESULT:     -11.7      3.551     11.255
REMARK  Name = 60870
REMARK  7 active torsions:
REMARK  status: ('A' for Active; 'I' for Inactive)
REMARK    1  A    between atoms: C_2  and  C_4
REMARK    2  A    between atoms: C_2  and  C_18
REMARK    3  A    between atoms: C_3  and  C_9
REMARK    4  A    between atoms: C_9  and  C_14
REMARK    5  A    between atoms: C_18  and  C_19
REMARK    6  A    between atoms: C_19  and  C_22
REMARK    7  A    between atoms: C_24  and  C_26
REMARK                            x       y       z     vdW  Elec       q    Type
REMARK                         _______ _______ _______ _____ _____    ______ ____
ROOT
ATOM      1  O   UNL     1      34.514 -19.406 -23.092  0.00  0.00    -0.291 OA
ATOM      2  C   UNL     1      34.618 -19.227 -21.861  0.00  0.00    +0.173 C 
ENDROOT
BRANCH   2   4
ATOM      3  C   UNL     1      33.660 -22.315 -19.136  0.00  0.00    -0.021 C 
ATOM      4  C   UNL     1      34.289 -20.291 -20.924  0.00  0.00    +0.035 C 
ATOM      5  C   UNL     1      32.642 -21.551 -19.686  0.00  0.00    -0.004 C 
ATOM      6  C   UNL     1      34.988 -22.084 -19.465  0.00  0.00    -0.004 C 
ATOM      7  C   UNL     1      32.958 -20.533 -20.586  0.00  0.00    +0.003 C 
ATOM      8  C   UNL     1      35.304 -21.066 -20.365  0.00  0.00    +0.003 C 
BRANCH   3   9
ATOM      9  C   UNL     1      33.319 -23.416 -18.165  0.00  0.00    +0.047 C 
BRANCH   9  14
ATOM     10  S   UNL     1      33.862 -23.659 -15.475  0.00  0.00    -0.048 S 
ATOM     11  O   UNL     1      30.530 -22.821 -17.232  0.00  0.00    -0.274 OA
ATOM     12  O   UNL     1      32.490 -24.843 -13.572  0.00  0.00    -0.263 OA
ATOM     13  N   UNL     1      31.321 -23.869 -15.329  0.00  0.00    -0.246 N 
ATOM     14  C   UNL     1      32.909 -22.870 -16.809  0.00  0.00    +0.137 C 
ATOM     15  C   UNL     1      31.457 -23.169 -16.509  0.00  0.00    +0.239 C 
ATOM     16  C   UNL     1      32.441 -24.225 -14.624  0.00  0.00    +0.279 C 
ATOM     17  H   UNL     1      30.427 -24.111 -14.995  0.00  0.00    +0.158 HD
ENDBRANCH   9  14
ENDBRANCH   3   9
ENDBRANCH   2   4
BRANCH   2  18
ATOM     18  C   UNL     1      35.104 -17.863 -21.337  0.00  0.00    +0.076 C 
BRANCH  18  19
ATOM     19  C   UNL     1      35.639 -16.941 -22.437  0.00  0.00    +0.066 C 
BRANCH  19  22
ATOM     20  O   UNL     1      33.248 -14.570 -23.848  0.00  0.00    -0.449 OA
ATOM     21  N   UNL     1      34.295 -14.942 -21.878  0.00  0.00    -0.373 NA
ATOM     22  C   UNL     1      34.660 -15.865 -22.803  0.00  0.00    +0.130 C 
ATOM     23  C   UNL     1      34.047 -15.664 -23.992  0.00  0.00    +0.216 C 
ATOM     24  C   UNL     1      33.453 -14.195 -22.556  0.00  0.00    +0.277 C 
ATOM     25  C   UNL     1      34.052 -16.318 -25.306  0.00  0.00    +0.055 C 
BRANCH  24  26
ATOM     26  C   UNL     1      32.714 -13.039 -22.131  0.00  0.00    +0.066 C 
ATOM     27  C   UNL     1      32.634 -11.912 -22.953  0.00  0.00    +0.006 C 
ATOM     28  C   UNL     1      32.071 -13.034 -20.889  0.00  0.00    +0.006 C 
ATOM     29  C   UNL     1      31.917 -10.789 -22.538  0.00  0.00    +0.000 C 
ATOM     30  C   UNL     1      31.354 -11.911 -20.474  0.00  0.00    +0.000 C 
ATOM     31  C   UNL     1      31.278 -10.788 -21.299  0.00  0.00    +0.000 C 
ENDBRANCH  24  26
ENDBRANCH  19  22
ENDBRANCH  18  19
ENDBRANCH   2  18
TORSDOF 7
ENDMDL
MODEL 5
REMARK VINA RESULT:     -11.5      5.266     13.456
REMARK  Name = 60870
REMARK  7 active torsions:
REMARK  status: ('A' for Active; 'I' for Inactive)
REMARK    1  A    between atoms: C_2  and  C_4
REMARK    2  A    between atoms: C_2  and  C_18
REMARK    3  A    between atoms: C_3  and  C_9
REMARK    4  A    between atoms: C_9  and  C_14
REMARK    5  A    between atoms: C_18  and  C_19
REMARK    6  A    between atoms: C_19  and  C_22
REMARK    7  A    between atoms: C_24  and  C_26
REMARK                            x       y       z     vdW  Elec       q    Type
REMARK                         _______ _______ _______ _____ _____    ______ ____
ROOT
ATOM      1  O   UNL     1      33.819 -15.851 -25.868  0.00  0.00    -0.291 OA
ATOM      2  C   UNL     1      34.194 -15.812 -24.678  0.00  0.00    +0.173 C 
ENDROOT
BRANCH   2   4
ATOM      3  C   UNL     1      34.888 -19.375 -22.511  0.00  0.00    -0.021 C 
ATOM      4  C   UNL     1      34.434 -17.038 -23.933  0.00  0.00    +0.035 C 
ATOM      5  C   UNL     1      34.390 -19.450 -23.803  0.00  0.00    -0.004 C 
ATOM      6  C   UNL     1      35.163 -18.152 -21.918  0.00  0.00    -0.004 C 
ATOM      7  C   UNL     1      34.161 -18.273 -24.519  0.00  0.00    +0.003 C 
ATOM      8  C   UNL     1      34.935 -16.976 -22.633  0.00  0.00    +0.003 C 
BRANCH   3   9
ATOM      9  C   UNL     1      35.136 -20.645 -21.739  0.00  0.00    +0.047 C 
BRANCH   9  14
ATOM     10  S   UNL     1      35.304 -21.805 -19.246  0.00  0.00    -0.048 S 
ATOM     11  O   UNL     1      32.217 -20.396 -21.085  0.00  0.00    -0.274 OA
ATOM     12  O   UNL     1      33.734 -23.567 -18.089  0.00  0.00    -0.263 OA
ATOM     13  N   UNL     1      32.780 -22.040 -19.559  0.00  0.00    -0.246 N 
ATOM     14  C   UNL     1      34.512 -20.599 -20.355  0.00  0.00    +0.137 C 
ATOM     15  C   UNL     1      33.048 -20.976 -20.395  0.00  0.00    +0.239 C 
ATOM     16  C   UNL     1      33.805 -22.623 -18.861  0.00  0.00    +0.279 C 
ATOM     17  H   UNL     1      31.861 -22.378 -19.466  0.00  0.00    +0.158 HD
ENDBRANCH   9  14
ENDBRANCH   3   9
ENDBRANCH   2   4
BRANCH   2  18
ATOM     18  C   UNL     1      34.405 -14.445 -24.000  0.00  0.00    +0.076 C 
BRANCH  18  19
ATOM     19  C   UNL     1      33.182 -13.527 -24.081  0.00  0.00    +0.066 C 
BRANCH  19  22
ATOM     20  O   UNL     1      34.033 -10.586 -26.069  0.00  0.00    -0.449 OA
ATOM     21  N   UNL     1      33.511 -11.081 -23.925  0.00  0.00    -0.373 NA
ATOM     22  C   UNL     1      33.508 -12.198 -24.695  0.00  0.00    +0.130 C 
ATOM     23  C   UNL     1      33.818 -11.928 -25.985  0.00  0.00    +0.216 C 
ATOM     24  C   UNL     1      33.831 -10.150 -24.796  0.00  0.00    +0.277 C 
ATOM     25  C   UNL     1      33.961 -12.706 -27.220  0.00  0.00    +0.055 C 
BRANCH  24  26
ATOM     26  C   UNL     1      33.998  -8.737 -24.599  0.00  0.00    +0.066 C 
ATOM     27  C   UNL     1      33.429  -8.109 -23.488  0.00  0.00    +0.006 C 
ATOM     28  C   UNL     1      34.730  -7.981 -25.520  0.00  0.00    +0.006 C 
ATOM     29  C   UNL     1      33.590  -6.736 -23.298  0.00  0.00    +0.000 C 
ATOM     30  C   UNL     1      34.891  -6.608 -25.331  0.00  0.00    +0.000 C 
ATOM     31  C   UNL     1      34.321  -5.986 -24.219  0.00  0.00    +0.000 C 
ENDBRANCH  24  26
ENDBRANCH  19  22
ENDBRANCH  18  19
ENDBRANCH   2  18
TORSDOF 7
ENDMDL
MODEL 6
REMARK VINA RESULT:     -11.5      1.542      2.350
REMARK  Name = 60870
REMARK  7 active torsions:
REMARK  status: ('A' for Active; 'I' for Inactive)
REMARK    1  A    between atoms: C_2  and  C_4
REMARK    2  A    between atoms: C_2  and  C_18
REMARK    3  A    between atoms: C_3  and  C_9
REMARK    4  A    between atoms: C_9  and  C_14
REMARK    5  A    between atoms: C_18  and  C_19
REMARK    6  A    between atoms: C_19  and  C_22
REMARK    7  A    between atoms: C_24  and  C_26
REMARK                            x       y       z     vdW  Elec       q    Type
REMARK                         _______ _______ _______ _____ _____    ______ ____
ROOT
ATOM      1  O   UNL     1      36.199 -22.189 -18.229  0.00  0.00    -0.291 OA
ATOM      2  C   UNL     1      35.353 -22.033 -19.133  0.00  0.00    +0.173 C 
ENDROOT
BRANCH   2   4
ATOM      3  C   UNL     1      35.715 -18.866 -21.911  0.00  0.00    -0.021 C 
ATOM      4  C   UNL     1      35.478 -20.943 -20.088  0.00  0.00    +0.035 C 
ATOM      5  C   UNL     1      34.482 -19.474 -21.727  0.00  0.00    -0.004 C 
ATOM      6  C   UNL     1      36.831 -19.279 -21.199  0.00  0.00    -0.004 C 
ATOM      7  C   UNL     1      34.362 -20.518 -20.809  0.00  0.00    +0.003 C 
ATOM      8  C   UNL     1      36.712 -20.323 -20.282  0.00  0.00    +0.003 C 
BRANCH   3   9
ATOM      9  C   UNL     1      35.844 -17.737 -22.901  0.00  0.00    +0.047 C 
BRANCH   9  14
ATOM     10  S   UNL     1      34.157 -17.230 -25.019  0.00  0.00    -0.048 S 
ATOM     11  O   UNL     1      34.702 -15.196 -21.784  0.00  0.00    -0.274 OA
ATOM     12  O   UNL     1      33.648 -14.978 -26.275  0.00  0.00    -0.263 OA
ATOM     13  N   UNL     1      34.146 -14.884 -24.007  0.00  0.00    -0.246 N 
ATOM     14  C   UNL     1      34.498 -17.118 -23.235  0.00  0.00    +0.137 C 
ATOM     15  C   UNL     1      34.469 -15.643 -22.902  0.00  0.00    +0.239 C 
ATOM     16  C   UNL     1      33.936 -15.504 -25.211  0.00  0.00    +0.279 C 
ATOM     17  H   UNL     1      34.066 -13.907 -23.932  0.00  0.00    +0.158 HD
ENDBRANCH   9  14
ENDBRANCH   3   9
ENDBRANCH   2   4
BRANCH   2  18
ATOM     18  C   UNL     1      34.168 -23.012 -19.233  0.00  0.00    +0.076 C 
BRANCH  18  19
ATOM     19  C   UNL     1      33.046 -22.718 -18.233  0.00  0.00    +0.066 C 
BRANCH  19  22
ATOM     20  O   UNL     1      33.095 -24.136 -14.869  0.00  0.00    -0.449 OA
ATOM     21  N   UNL     1      34.514 -23.871 -16.611  0.00  0.00    -0.373 NA
ATOM     22  C   UNL     1      33.293 -23.354 -16.897  0.00  0.00    +0.130 C 
ATOM     23  C   UNL     1      32.424 -23.500 -15.870  0.00  0.00    +0.216 C 
ATOM     24  C   UNL     1      34.338 -24.323 -15.389  0.00  0.00    +0.277 C 
ATOM     25  C   UNL     1      31.022 -23.150 -15.615  0.00  0.00    +0.055 C 
BRANCH  24  26
ATOM     26  C   UNL     1      35.270 -24.989 -14.521  0.00  0.00    +0.066 C 
ATOM     27  C   UNL     1      36.145 -25.951 -15.033  0.00  0.00    +0.006 C 
ATOM     28  C   UNL     1      35.306 -24.679 -13.158  0.00  0.00    +0.006 C 
ATOM     29  C   UNL     1      37.049 -26.598 -14.190  0.00  0.00    +0.000 C 
ATOM     30  C   UNL     1      36.209 -25.326 -12.315  0.00  0.00    +0.000 C 
ATOM     31  C   UNL     1      37.081 -26.286 -12.831  0.00  0.00    +0.000 C 
ENDBRANCH  24  26
ENDBRANCH  19  22
ENDBRANCH  18  19
ENDBRANCH   2  18
TORSDOF 7
ENDMDL
MODEL 7
REMARK VINA RESULT:     -11.4      5.402     13.091
REMARK  Name = 60870
REMARK  7 active torsions:
REMARK  status: ('A' for Active; 'I' for Inactive)
REMARK    1  A    between atoms: C_2  and  C_4
REMARK    2  A    between atoms: C_2  and  C_18
REMARK    3  A    between atoms: C_3  and  C_9
REMARK    4  A    between atoms: C_9  and  C_14
REMARK    5  A    between atoms: C_18  and  C_19
REMARK    6  A    between atoms: C_19  and  C_22
REMARK    7  A    between atoms: C_24  and  C_26
REMARK                            x       y       z     vdW  Elec       q    Type
REMARK                         _______ _______ _______ _____ _____    ______ ____
ROOT
ATOM      1  O   UNL     1      33.911 -15.256 -25.891  0.00  0.00    -0.291 OA
ATOM      2  C   UNL     1      34.128 -15.312 -24.663  0.00  0.00    +0.173 C 
ENDROOT
BRANCH   2   4
ATOM      3  C   UNL     1      34.733 -19.030 -22.742  0.00  0.00    -0.021 C 
ATOM      4  C   UNL     1      34.335 -16.591 -24.002  0.00  0.00    +0.035 C 
ATOM      5  C   UNL     1      35.138 -17.863 -22.111  0.00  0.00    -0.004 C 
ATOM      6  C   UNL     1      34.132 -18.998 -23.992  0.00  0.00    -0.004 C 
ATOM      7  C   UNL     1      34.938 -16.636 -22.745  0.00  0.00    +0.003 C 
ATOM      8  C   UNL     1      33.932 -17.771 -24.625  0.00  0.00    +0.003 C 
BRANCH   3   9
ATOM      9  C   UNL     1      34.948 -20.355 -22.057  0.00  0.00    +0.047 C 
BRANCH   9  14
ATOM     10  S   UNL     1      35.319 -21.545 -19.601  0.00  0.00    -0.048 S 
ATOM     11  O   UNL     1      32.071 -20.225 -21.214  0.00  0.00    -0.274 OA
ATOM     12  O   UNL     1      33.892 -23.381 -18.376  0.00  0.00    -0.263 OA
ATOM     13  N   UNL     1      32.790 -21.869 -19.756  0.00  0.00    -0.246 N 
ATOM     14  C   UNL     1      34.414 -20.353 -20.636  0.00  0.00    +0.137 C 
ATOM     15  C   UNL     1      32.965 -20.784 -20.589  0.00  0.00    +0.239 C 
ATOM     16  C   UNL     1      33.879 -22.424 -19.135  0.00  0.00    +0.279 C 
ATOM     17  H   UNL     1      31.892 -22.243 -19.609  0.00  0.00    +0.158 HD
ENDBRANCH   9  14
ENDBRANCH   3   9
ENDBRANCH   2   4
BRANCH   2  18
ATOM     18  C   UNL     1      34.178 -14.007 -23.847  0.00  0.00    +0.076 C 
BRANCH  18  19
ATOM     19  C   UNL     1      32.809 -13.557 -23.329  0.00  0.00    +0.066 C 
BRANCH  19  22
ATOM     20  O   UNL     1      32.239 -10.044 -22.515  0.00  0.00    -0.449 OA
ATOM     21  N   UNL     1      33.406 -11.260 -24.023  0.00  0.00    -0.373 NA
ATOM     22  C   UNL     1      32.719 -12.068 -23.177  0.00  0.00    +0.130 C 
ATOM     23  C   UNL     1      32.012 -11.363 -22.263  0.00  0.00    +0.216 C 
ATOM     24  C   UNL     1      33.082 -10.065 -23.583  0.00  0.00    +0.277 C 
ATOM     25  C   UNL     1      31.120 -11.684 -21.143  0.00  0.00    +0.055 C 
BRANCH  24  26
ATOM     26  C   UNL     1      33.491  -8.774 -24.064  0.00  0.00    +0.066 C 
ATOM     27  C   UNL     1      34.833  -8.389 -23.994  0.00  0.00    +0.006 C 
ATOM     28  C   UNL     1      32.548  -7.895 -24.606  0.00  0.00    +0.006 C 
ATOM     29  C   UNL     1      35.229  -7.135 -24.460  0.00  0.00    +0.000 C 
ATOM     30  C   UNL     1      32.944  -6.641 -25.072  0.00  0.00    +0.000 C 
ATOM     31  C   UNL     1      34.285  -6.262 -24.999  0.00  0.00    +0.000 C 
ENDBRANCH  24  26
ENDBRANCH  19  22
ENDBRANCH  18  19
ENDBRANCH   2  18
TORSDOF 7
ENDMDL
MODEL 8
REMARK VINA RESULT:     -11.4      3.267     11.740
REMARK  Name = 60870
REMARK  7 active torsions:
REMARK  status: ('A' for Active; 'I' for Inactive)
REMARK    1  A    between atoms: C_2  and  C_4
REMARK    2  A    between atoms: C_2  and  C_18
REMARK    3  A    between atoms: C_3  and  C_9
REMARK    4  A    between atoms: C_9  and  C_14
REMARK    5  A    between atoms: C_18  and  C_19
REMARK    6  A    between atoms: C_19  and  C_22
REMARK    7  A    between atoms: C_24  and  C_26
REMARK                            x       y       z     vdW  Elec       q    Type
REMARK                         _______ _______ _______ _____ _____    ______ ____
ROOT
ATOM      1  O   UNL     1      36.434 -18.916 -21.282  0.00  0.00    -0.291 OA
ATOM      2  C   UNL     1      35.284 -19.362 -21.472  0.00  0.00    +0.173 C 
ENDROOT
BRANCH   2   4
ATOM      3  C   UNL     1      33.706 -22.404 -18.995  0.00  0.00    -0.021 C 
ATOM      4  C   UNL     1      34.741 -20.408 -20.619  0.00  0.00    +0.035 C 
ATOM      5  C   UNL     1      35.081 -22.267 -19.114  0.00  0.00    -0.004 C 
ATOM      6  C   UNL     1      32.840 -21.560 -19.674  0.00  0.00    -0.004 C 
ATOM      7  C   UNL     1      35.602 -21.262 -19.931  0.00  0.00    +0.003 C 
ATOM      8  C   UNL     1      33.360 -20.556 -20.491  0.00  0.00    +0.003 C 
BRANCH   3   9
ATOM      9  C   UNL     1      33.144 -23.488 -18.111  0.00  0.00    +0.047 C 
BRANCH   9  14
ATOM     10  S   UNL     1      33.659 -23.833 -15.428  0.00  0.00    -0.048 S 
ATOM     11  O   UNL     1      30.383 -22.777 -17.173  0.00  0.00    -0.274 OA
ATOM     12  O   UNL     1      32.218 -24.998 -13.563  0.00  0.00    -0.263 OA
ATOM     13  N   UNL     1      31.110 -23.916 -15.297  0.00  0.00    -0.246 N 
ATOM     14  C   UNL     1      32.754 -22.959 -16.742  0.00  0.00    +0.137 C 
ATOM     15  C   UNL     1      31.287 -23.192 -16.457  0.00  0.00    +0.239 C 
ATOM     16  C   UNL     1      32.207 -24.349 -14.598  0.00  0.00    +0.279 C 
ATOM     17  H   UNL     1      30.203 -24.121 -14.973  0.00  0.00    +0.158 HD
ENDBRANCH   9  14
ENDBRANCH   3   9
ENDBRANCH   2   4
BRANCH   2  18
ATOM     18  C   UNL     1      34.436 -18.791 -22.624  0.00  0.00    +0.076 C 
BRANCH  18  19
ATOM     19  C   UNL     1      35.231 -17.908 -23.589  0.00  0.00    +0.066 C 
BRANCH  19  22
ATOM     20  O   UNL     1      34.217 -14.482 -22.840  0.00  0.00    -0.449 OA
ATOM     21  N   UNL     1      34.673 -15.749 -24.657  0.00  0.00    -0.373 NA
ATOM     22  C   UNL     1      34.817 -16.469 -23.516  0.00  0.00    +0.130 C 
ATOM     23  C   UNL     1      34.549 -15.732 -22.413  0.00  0.00    +0.216 C 
ATOM     24  C   UNL     1      34.313 -14.572 -24.194  0.00  0.00    +0.277 C 
ATOM     25  C   UNL     1      34.540 -15.967 -20.964  0.00  0.00    +0.055 C 
BRANCH  24  26
ATOM     26  C   UNL     1      34.008 -13.365 -24.911  0.00  0.00    +0.066 C 
ATOM     27  C   UNL     1      33.659 -13.418 -26.263  0.00  0.00    +0.006 C 
ATOM     28  C   UNL     1      34.061 -12.129 -24.260  0.00  0.00    +0.006 C 
ATOM     29  C   UNL     1      33.364 -12.246 -26.959  0.00  0.00    +0.000 C 
ATOM     30  C   UNL     1      33.766 -10.956 -24.956  0.00  0.00    +0.000 C 
ATOM     31  C   UNL     1      33.418 -11.015 -26.306  0.00  0.00    +0.000 C 
ENDBRANCH  24  26
ENDBRANCH  19  22
ENDBRANCH  18  19
ENDBRANCH   2  18
TORSDOF 7
ENDMDL
MODEL 9
REMARK VINA RESULT:     -11.4      5.375     13.028
REMARK  Name = 60870
REMARK  7 active torsions:
REMARK  status: ('A' for Active; 'I' for Inactive)
REMARK    1  A    between atoms: C_2  and  C_4
REMARK    2  A    between atoms: C_2  and  C_18
REMARK    3  A    between atoms: C_3  and  C_9
REMARK    4  A    between atoms: C_9  and  C_14
REMARK    5  A    between atoms: C_18  and  C_19
REMARK    6  A    between atoms: C_19  and  C_22
REMARK    7  A    between atoms: C_24  and  C_26
REMARK                            x       y       z     vdW  Elec       q    Type
REMARK                         _______ _______ _______ _____ _____    ______ ____
ROOT
ATOM      1  O   UNL     1      33.819 -15.349 -25.962  0.00  0.00    -0.291 OA
ATOM      2  C   UNL     1      34.071 -15.381 -24.740  0.00  0.00    +0.173 C 
ENDROOT
BRANCH   2   4
ATOM      3  C   UNL     1      34.762 -19.057 -22.768  0.00  0.00    -0.021 C 
ATOM      4  C   UNL     1      34.310 -16.646 -24.062  0.00  0.00    +0.035 C 
ATOM      5  C   UNL     1      34.195 -19.059 -24.034  0.00  0.00    -0.004 C 
ATOM      6  C   UNL     1      35.108 -17.870 -22.138  0.00  0.00    -0.004 C 
ATOM      7  C   UNL     1      33.968 -17.845 -24.685  0.00  0.00    +0.003 C 
ATOM      8  C   UNL     1      34.880 -16.657 -22.789  0.00  0.00    +0.003 C 
BRANCH   3   9
ATOM      9  C   UNL     1      35.009 -20.367 -22.065  0.00  0.00    +0.047 C 
BRANCH   9  14
ATOM     10  S   UNL     1      35.316 -21.594 -19.618  0.00  0.00    -0.048 S 
ATOM     11  O   UNL     1      32.127 -20.161 -21.254  0.00  0.00    -0.274 OA
ATOM     12  O   UNL     1      33.820 -23.401 -18.432  0.00  0.00    -0.263 OA
ATOM     13  N   UNL     1      32.780 -21.842 -19.807  0.00  0.00    -0.246 N 
ATOM     14  C   UNL     1      34.459 -20.365 -20.650  0.00  0.00    +0.137 C 
ATOM     15  C   UNL     1      32.997 -20.753 -20.625  0.00  0.00    +0.239 C 
ATOM     16  C   UNL     1      33.844 -22.435 -19.180  0.00  0.00    +0.279 C 
ATOM     17  H   UNL     1      31.870 -22.190 -19.675  0.00  0.00    +0.158 HD
ENDBRANCH   9  14
ENDBRANCH   3   9
ENDBRANCH   2   4
BRANCH   2  18
ATOM     18  C   UNL     1      34.131 -14.061 -23.949  0.00  0.00    +0.076 C 
BRANCH  18  19
ATOM     19  C   UNL     1      32.764 -13.585 -23.450  0.00  0.00    +0.066 C 
BRANCH  19  22
ATOM     20  O   UNL     1      32.289 -10.091 -22.503  0.00  0.00    -0.449 OA
ATOM     21  N   UNL     1      33.465 -11.283 -24.023  0.00  0.00    -0.373 NA
ATOM     22  C   UNL     1      32.721 -12.101 -23.236  0.00  0.00    +0.130 C 
ATOM     23  C   UNL     1      32.007 -11.410 -22.317  0.00  0.00    +0.216 C 
ATOM     24  C   UNL     1      33.168 -10.097 -23.542  0.00  0.00    +0.277 C 
ATOM     25  C   UNL     1      31.066 -11.746 -21.242  0.00  0.00    +0.055 C 
BRANCH  24  26
ATOM     26  C   UNL     1      33.638  -8.803 -23.953  0.00  0.00    +0.066 C 
ATOM     27  C   UNL     1      33.248  -7.657 -23.254  0.00  0.00    +0.006 C 
ATOM     28  C   UNL     1      34.488  -8.683 -25.056  0.00  0.00    +0.006 C 
ATOM     29  C   UNL     1      33.704  -6.401 -23.655  0.00  0.00    +0.000 C 
ATOM     30  C   UNL     1      34.944  -7.427 -25.457  0.00  0.00    +0.000 C 
ATOM     31  C   UNL     1      34.552  -6.286 -24.756  0.00  0.00    +0.000 C 
ENDBRANCH  24  26
ENDBRANCH  19  22
ENDBRANCH  18  19
ENDBRANCH   2  18
TORSDOF 7
ENDMDL
