MODEL 1
REMARK VINA RESULT:     -12.8      0.000      0.000
REMARK  Name = 24794406
REMARK  5 active torsions:
REMARK  status: ('A' for Active; 'I' for Inactive)
REMARK    1  A    between atoms: C_1  and  S_24
REMARK    2  A    between atoms: C_2  and  N_8
REMARK    3  A    between atoms: C_9  and  C_11
REMARK    4  A    between atoms: C_12  and  N_18
REMARK    5  A    between atoms: S_24  and  N_28
REMARK                            x       y       z     vdW  Elec       q    Type
REMARK                         _______ _______ _______ _____ _____    ______ ____
ROOT
ATOM      1  C   UNL     1      32.494 -24.085 -14.788  0.00  0.00    +0.139 C 
ATOM      2  C   UNL     1      31.692 -23.682 -15.856  0.00  0.00    +0.070 C 
ATOM      3  C   UNL     1      31.934 -24.795 -13.726  0.00  0.00    +0.021 C 
ATOM      4  C   UNL     1      30.331 -23.987 -15.862  0.00  0.00    +0.016 C 
ATOM      5  C   UNL     1      30.573 -25.102 -13.732  0.00  0.00    +0.001 C 
ATOM      6  C   UNL     1      29.772 -24.698 -14.801  0.00  0.00    +0.001 C 
ENDROOT
BRANCH   2   8
ATOM      7  O   UNL     1      33.356 -24.620 -18.168  0.00  0.00    -0.270 OA
ATOM      8  N   UNL     1      32.235 -22.959 -16.947  0.00  0.00    -0.279 N 
ATOM      9  C   UNL     1      33.012 -23.438 -18.012  0.00  0.00    +0.250 C 
ATOM     10  H   UNL     1      32.043 -21.994 -16.959  0.00  0.00    +0.155 HD
BRANCH   9  11
ATOM     11  C   UNL     1      33.451 -22.441 -18.975  0.00  0.00    +0.054 C 
ATOM     12  C   UNL     1      34.291 -20.529 -20.824  0.00  0.00    +0.058 C 
ATOM     13  C   UNL     1      32.531 -21.541 -19.514  0.00  0.00    +0.006 C 
ATOM     14  C   UNL     1      34.789 -22.385 -19.361  0.00  0.00    +0.006 C 
ATOM     15  C   UNL     1      32.952 -20.585 -20.439  0.00  0.00    +0.015 C 
ATOM     16  C   UNL     1      35.210 -21.429 -20.286  0.00  0.00    +0.015 C 
BRANCH  12  18
ATOM     17  O   UNL     1      36.615 -18.832 -20.534  0.00  0.00    -0.269 OA
ATOM     18  N   UNL     1      34.728 -19.535 -21.785  0.00  0.00    -0.233 N 
ATOM     19  C   UNL     1      35.911 -18.790 -21.545  0.00  0.00    +0.257 C 
ATOM     20  C   UNL     1      33.979 -19.285 -22.938  0.00  0.00    +0.072 C 
ATOM     21  C   UNL     1      36.316 -17.819 -22.608  0.00  0.00    +0.059 C 
ATOM     22  C   UNL     1      34.344 -18.387 -23.859  0.00  0.00    +0.017 C 
ATOM     23  C   UNL     1      35.553 -17.638 -23.688  0.00  0.00    +0.006 C 
ENDBRANCH  12  18
ENDBRANCH   9  11
ENDBRANCH   2   8
BRANCH   1  24
ATOM     24  S   UNL     1      34.207 -23.722 -14.743  0.00  0.00    +0.076 S 
ATOM     25  O   UNL     1      34.627 -23.763 -13.350  0.00  0.00    -0.150 OA
ATOM     26  O   UNL     1      34.441 -22.510 -15.516  0.00  0.00    -0.150 OA
BRANCH  24  28
ATOM     27 CL   UNL     1      40.536 -26.269 -14.384  0.00  0.00    -0.081 Cl
ATOM     28  N   UNL     1      34.899 -25.071 -15.556  0.00  0.00    -0.199 N 
ATOM     29  N   UNL     1      37.109 -24.363 -15.080  0.00  0.00    -0.227 NA
ATOM     30  C   UNL     1      36.270 -25.406 -15.273  0.00  0.00    +0.147 C 
ATOM     31  C   UNL     1      36.657 -26.734 -15.210  0.00  0.00    +0.036 C 
ATOM     32  C   UNL     1      37.991 -27.011 -14.931  0.00  0.00    +0.016 C 
ATOM     33  C   UNL     1      38.397 -24.671 -14.811  0.00  0.00    +0.112 C 
ATOM     34  C   UNL     1      38.884 -25.965 -14.726  0.00  0.00    +0.077 C 
ATOM     35  H   UNL     1      34.374 -25.600 -16.198  0.00  0.00    +0.175 HD
ENDBRANCH  24  28
ENDBRANCH   1  24
TORSDOF 5
ENDMDL
MODEL 2
REMARK VINA RESULT:     -10.6      1.770      2.122
REMARK  Name = 24794406
REMARK  5 active torsions:
REMARK  status: ('A' for Active; 'I' for Inactive)
REMARK    1  A    between atoms: C_1  and  S_24
REMARK    2  A    between atoms: C_2  and  N_8
REMARK    3  A    between atoms: C_9  and  C_11
REMARK    4  A    between atoms: C_12  and  N_18
REMARK    5  A    between atoms: S_24  and  N_28
REMARK                            x       y       z     vdW  Elec       q    Type
REMARK                         _______ _______ _______ _____ _____    ______ ____
ROOT
ATOM      1  C   UNL     1      32.181 -24.173 -15.457  0.00  0.00    +0.139 C 
ATOM      2  C   UNL     1      31.406 -23.642 -16.488  0.00  0.00    +0.070 C 
ATOM      3  C   UNL     1      31.591 -24.990 -14.492  0.00  0.00    +0.021 C 
ATOM      4  C   UNL     1      30.042 -23.927 -16.553  0.00  0.00    +0.016 C 
ATOM      5  C   UNL     1      30.227 -25.275 -14.558  0.00  0.00    +0.001 C 
ATOM      6  C   UNL     1      29.453 -24.744 -15.589  0.00  0.00    +0.001 C 
ENDROOT
BRANCH   2   8
ATOM      7  O   UNL     1      33.304 -24.303 -18.713  0.00  0.00    -0.270 OA
ATOM      8  N   UNL     1      31.979 -22.809 -17.480  0.00  0.00    -0.279 N 
ATOM      9  C   UNL     1      32.867 -23.159 -18.508  0.00  0.00    +0.250 C 
ATOM     10  H   UNL     1      31.721 -21.860 -17.443  0.00  0.00    +0.155 HD
BRANCH   9  11
ATOM     11  C   UNL     1      33.308 -22.070 -19.363  0.00  0.00    +0.054 C 
ATOM     12  C   UNL     1      34.152 -19.979 -21.007  0.00  0.00    +0.058 C 
ATOM     13  C   UNL     1      32.368 -21.236 -19.970  0.00  0.00    +0.006 C 
ATOM     14  C   UNL     1      34.669 -21.857 -19.579  0.00  0.00    +0.006 C 
ATOM     15  C   UNL     1      32.790 -20.191 -20.792  0.00  0.00    +0.015 C 
ATOM     16  C   UNL     1      35.091 -20.813 -20.400  0.00  0.00    +0.015 C 
BRANCH  12  18
ATOM     17  O   UNL     1      34.648 -20.182 -23.849  0.00  0.00    -0.269 OA
ATOM     18  N   UNL     1      34.591 -18.892 -21.860  0.00  0.00    -0.233 N 
ATOM     19  C   UNL     1      34.762 -19.110 -23.252  0.00  0.00    +0.257 C 
ATOM     20  C   UNL     1      34.871 -17.635 -21.320  0.00  0.00    +0.072 C 
ATOM     21  C   UNL     1      35.172 -17.925 -24.067  0.00  0.00    +0.059 C 
ATOM     22  C   UNL     1      35.269 -16.598 -22.066  0.00  0.00    +0.017 C 
ATOM     23  C   UNL     1      35.416 -16.751 -23.482  0.00  0.00    +0.006 C 
ENDBRANCH  12  18
ENDBRANCH   9  11
ENDBRANCH   2   8
BRANCH   1  24
ATOM     24  S   UNL     1      33.896 -23.840 -15.339  0.00  0.00    +0.076 S 
ATOM     25  O   UNL     1      34.083 -22.413 -15.560  0.00  0.00    -0.150 OA
ATOM     26  O   UNL     1      34.608 -24.785 -16.187  0.00  0.00    -0.150 OA
BRANCH  24  28
ATOM     27 CL   UNL     1      39.786 -23.431 -11.899  0.00  0.00    -0.081 Cl
ATOM     28  N   UNL     1      34.233 -24.178 -13.685  0.00  0.00    -0.199 N 
ATOM     29  N   UNL     1      36.565 -24.309 -14.073  0.00  0.00    -0.227 NA
ATOM     30  C   UNL     1      35.577 -23.982 -13.211  0.00  0.00    +0.147 C 
ATOM     31  C   UNL     1      35.792 -23.482 -11.937  0.00  0.00    +0.036 C 
ATOM     32  C   UNL     1      37.108 -23.306 -11.520  0.00  0.00    +0.016 C 
ATOM     33  C   UNL     1      37.830 -24.125 -13.633  0.00  0.00    +0.112 C 
ATOM     34  C   UNL     1      38.152 -23.632 -12.379  0.00  0.00    +0.077 C 
ATOM     35  H   UNL     1      33.525 -24.498 -13.080  0.00  0.00    +0.175 HD
ENDBRANCH  24  28
ENDBRANCH   1  24
TORSDOF 5
ENDMDL
MODEL 3
REMARK VINA RESULT:     -10.5      3.428      5.792
REMARK  Name = 24794406
REMARK  5 active torsions:
REMARK  status: ('A' for Active; 'I' for Inactive)
REMARK    1  A    between atoms: C_1  and  S_24
REMARK    2  A    between atoms: C_2  and  N_8
REMARK    3  A    between atoms: C_9  and  C_11
REMARK    4  A    between atoms: C_12  and  N_18
REMARK    5  A    between atoms: S_24  and  N_28
REMARK                            x       y       z     vdW  Elec       q    Type
REMARK                         _______ _______ _______ _____ _____    ______ ____
ROOT
ATOM      1  C   UNL     1      34.969 -23.313 -16.843  0.00  0.00    +0.139 C 
ATOM      2  C   UNL     1      35.939 -22.408 -17.271  0.00  0.00    +0.070 C 
ATOM      3  C   UNL     1      35.248 -24.189 -15.793  0.00  0.00    +0.021 C 
ATOM      4  C   UNL     1      37.189 -22.380 -16.652  0.00  0.00    +0.016 C 
ATOM      5  C   UNL     1      36.497 -24.160 -15.173  0.00  0.00    +0.001 C 
ATOM      6  C   UNL     1      37.467 -23.254 -15.603  0.00  0.00    +0.001 C 
ENDROOT
BRANCH   2   8
ATOM      7  O   UNL     1      36.060 -22.829 -20.238  0.00  0.00    -0.270 OA
ATOM      8  N   UNL     1      35.683 -21.508 -18.335  0.00  0.00    -0.279 N 
ATOM      9  C   UNL     1      35.752 -21.746 -19.716  0.00  0.00    +0.250 C 
ATOM     10  H   UNL     1      35.424 -20.596 -18.071  0.00  0.00    +0.155 HD
BRANCH   9  11
ATOM     11  C   UNL     1      35.457 -20.608 -20.571  0.00  0.00    +0.054 C 
ATOM     12  C   UNL     1      34.894 -18.422 -22.210  0.00  0.00    +0.058 C 
ATOM     13  C   UNL     1      36.487 -19.762 -20.983  0.00  0.00    +0.006 C 
ATOM     14  C   UNL     1      34.147 -20.360 -20.977  0.00  0.00    +0.006 C 
ATOM     15  C   UNL     1      36.205 -18.669 -21.803  0.00  0.00    +0.015 C 
ATOM     16  C   UNL     1      33.864 -19.268 -21.797  0.00  0.00    +0.015 C 
BRANCH  12  18
ATOM     17  O   UNL     1      34.175 -18.573 -25.008  0.00  0.00    -0.269 OA
ATOM     18  N   UNL     1      34.601 -17.286 -23.063  0.00  0.00    -0.233 N 
ATOM     19  C   UNL     1      34.221 -17.495 -24.413  0.00  0.00    +0.257 C 
ATOM     20  C   UNL     1      34.712 -15.983 -22.571  0.00  0.00    +0.072 C 
ATOM     21  C   UNL     1      33.891 -16.272 -25.210  0.00  0.00    +0.059 C 
ATOM     22  C   UNL     1      34.444 -14.904 -23.313  0.00  0.00    +0.017 C 
ATOM     23  C   UNL     1      34.014 -15.057 -24.671  0.00  0.00    +0.006 C 
ENDBRANCH  12  18
ENDBRANCH   9  11
ENDBRANCH   2   8
BRANCH   1  24
ATOM     24  S   UNL     1      33.388 -23.381 -17.594  0.00  0.00    +0.076 S 
ATOM     25  O   UNL     1      33.458 -24.354 -18.676  0.00  0.00    -0.150 OA
ATOM     26  O   UNL     1      32.961 -22.022 -17.893  0.00  0.00    -0.150 OA
BRANCH  24  28
ATOM     27 CL   UNL     1      26.658 -22.806 -16.565  0.00  0.00    -0.081 Cl
ATOM     28  N   UNL     1      32.404 -24.036 -16.343  0.00  0.00    -0.199 N 
ATOM     29  N   UNL     1      30.625 -22.545 -16.811  0.00  0.00    -0.227 NA
ATOM     30  C   UNL     1      30.990 -23.774 -16.382  0.00  0.00    +0.147 C 
ATOM     31  C   UNL     1      30.096 -24.758 -15.993  0.00  0.00    +0.036 C 
ATOM     32  C   UNL     1      28.738 -24.461 -16.050  0.00  0.00    +0.016 C 
ATOM     33  C   UNL     1      29.297 -22.294 -16.852  0.00  0.00    +0.112 C 
ATOM     34  C   UNL     1      28.323 -23.208 -16.486  0.00  0.00    +0.077 C 
ATOM     35  H   UNL     1      32.798 -24.575 -15.619  0.00  0.00    +0.175 HD
ENDBRANCH  24  28
ENDBRANCH   1  24
TORSDOF 5
ENDMDL
