MODEL 1
REMARK VINA RESULT:     -11.6      0.000      0.000
REMARK  Name = 11961293
REMARK  7 active torsions:
REMARK  status: ('A' for Active; 'I' for Inactive)
REMARK    1  A    between atoms: C_1  and  C_3
REMARK    2  A    between atoms: C_1  and  N_21
REMARK    3  A    between atoms: N_2  and  C_9
REMARK    4  A    between atoms: C_9  and  C_12
REMARK    5  A    between atoms: C_17  and  O_18
REMARK    6  A    between atoms: C_22  and  C_26
REMARK    7  A    between atoms: C_30  and  C_35
REMARK                            x       y       z     vdW  Elec       q    Type
REMARK                         _______ _______ _______ _____ _____    ______ ____
ROOT
ATOM      1  C   UNL     1      33.677 -15.011 -24.815  0.00  0.00    +0.089 C 
ENDROOT
BRANCH   1   3
ATOM      2  N   UNL     1      35.001 -18.138 -22.145  0.00  0.00    +0.387 N 
ATOM      3  C   UNL     1      34.612 -15.949 -24.056  0.00  0.00    +0.015 C 
ATOM      4  C   UNL     1      35.197 -18.364 -23.582  0.00  0.00    -0.077 C 
ATOM      5  C   UNL     1      35.340 -16.757 -21.774  0.00  0.00    -0.077 C 
ATOM      6  C   UNL     1      34.332 -17.413 -24.414  0.00  0.00    -0.021 C 
ATOM      7  C   UNL     1      34.479 -15.752 -22.543  0.00  0.00    -0.021 C 
ATOM      8  H   UNL     1      34.014 -18.286 -21.934  0.00  0.00    -0.080 HD
BRANCH   2   9
ATOM      9  C   UNL     1      35.794 -19.087 -21.364  0.00  0.00    -0.077 C 
BRANCH   9  12
ATOM     10  O   UNL     1      31.767 -22.411 -17.963  0.00  0.00    -0.226 OA
ATOM     11  N   UNL     1      33.553 -22.212 -19.437  0.00  0.00    -0.246 N 
ATOM     12  C   UNL     1      35.022 -20.385 -21.138  0.00  0.00    -0.017 C 
ATOM     13  C   UNL     1      33.581 -20.094 -20.692  0.00  0.00    +0.020 C 
ATOM     14  C   UNL     1      35.731 -21.268 -20.098  0.00  0.00    +0.020 C 
ATOM     15  C   UNL     1      32.822 -21.384 -20.396  0.00  0.00    +0.097 C 
ATOM     16  C   UNL     1      34.933 -22.538 -19.813  0.00  0.00    +0.097 C 
ATOM     17  C   UNL     1      32.924 -22.681 -18.281  0.00  0.00    +0.405 C 
BRANCH  17  18
ATOM     18  O   UNL     1      33.737 -23.485 -17.527  0.00  0.00    -0.430 OA
ATOM     19  C   UNL     1      33.492 -23.485 -16.115  0.00  0.00    +0.257 C 
ENDBRANCH  17  18
ENDBRANCH   9  12
ENDBRANCH   2   9
ENDBRANCH   1   3
BRANCH   1  21
ATOM     20  O   UNL     1      34.187 -12.211 -24.443  0.00  0.00    -0.270 OA
ATOM     21  N   UNL     1      32.984 -14.116 -23.901  0.00  0.00    -0.301 N 
ATOM     22  C   UNL     1      33.308 -12.778 -23.798  0.00  0.00    +0.247 C 
ATOM     23  H   UNL     1      32.260 -14.476 -23.338  0.00  0.00    +0.150 HD
BRANCH  22  26
ATOM     24  N   UNL     1      31.571  -8.547 -22.394  0.00  0.00    -0.318 N 
ATOM     25  N   UNL     1      32.743  -9.721 -23.873  0.00  0.00    -0.318 N 
ATOM     26  C   UNL     1      32.526 -12.004 -22.801  0.00  0.00    +0.068 C 
ATOM     27  C   UNL     1      32.330 -10.627 -22.931  0.00  0.00    +0.063 C 
ATOM     28  C   UNL     1      31.946 -12.620 -21.687  0.00  0.00    +0.006 C 
ATOM     29  C   UNL     1      31.600  -9.871 -22.018  0.00  0.00    +0.059 C 
ATOM     30  C   UNL     1      32.266  -8.494 -23.509  0.00  0.00    +0.144 C 
ATOM     31  C   UNL     1      31.209 -11.886 -20.755  0.00  0.00    +0.001 C 
ATOM     32  C   UNL     1      31.025 -10.506 -20.905  0.00  0.00    +0.016 C 
ATOM     33  H   UNL     1      31.127  -7.802 -21.929  0.00  0.00    +0.148 HD
ATOM     34  H   UNL     1      33.287  -9.920 -24.670  0.00  0.00    +0.148 HD
BRANCH  30  35
ATOM     35  C   UNL     1      32.476  -7.234 -24.246  0.00  0.00    +0.037 C 
ATOM     36  C   UNL     1      31.307  -6.881 -25.197  0.00  0.00    +0.003 C 
ATOM     37  C   UNL     1      32.764  -6.026 -23.322  0.00  0.00    +0.003 C 
ENDBRANCH  30  35
ENDBRANCH  22  26
ENDBRANCH   1  21
TORSDOF 7
ENDMDL
MODEL 2
REMARK VINA RESULT:     -11.5      1.471      2.603
REMARK  Name = 11961293
REMARK  7 active torsions:
REMARK  status: ('A' for Active; 'I' for Inactive)
REMARK    1  A    between atoms: C_1  and  C_3
REMARK    2  A    between atoms: C_1  and  N_21
REMARK    3  A    between atoms: N_2  and  C_9
REMARK    4  A    between atoms: C_9  and  C_12
REMARK    5  A    between atoms: C_17  and  O_18
REMARK    6  A    between atoms: C_22  and  C_26
REMARK    7  A    between atoms: C_30  and  C_35
REMARK                            x       y       z     vdW  Elec       q    Type
REMARK                         _______ _______ _______ _____ _____    ______ ____
ROOT
ATOM      1  C   UNL     1      33.587 -14.730 -24.758  0.00  0.00    +0.089 C 
ENDROOT
BRANCH   1   3
ATOM      2  N   UNL     1      34.994 -17.885 -22.166  0.00  0.00    +0.387 N 
ATOM      3  C   UNL     1      34.546 -15.620 -23.973  0.00  0.00    +0.015 C 
ATOM      4  C   UNL     1      35.334 -17.993 -23.590  0.00  0.00    -0.077 C 
ATOM      5  C   UNL     1      35.156 -16.506 -21.685  0.00  0.00    -0.077 C 
ATOM      6  C   UNL     1      34.450 -17.077 -24.440  0.00  0.00    -0.021 C 
ATOM      7  C   UNL     1      34.265 -15.540 -22.470  0.00  0.00    -0.021 C 
ATOM      8  H   UNL     1      34.013 -18.142 -22.056  0.00  0.00    -0.080 HD
BRANCH   2   9
ATOM      9  C   UNL     1      35.811 -18.803 -21.372  0.00  0.00    -0.077 C 
BRANCH   9  12
ATOM     10  O   UNL     1      31.866 -22.410 -18.170  0.00  0.00    -0.226 OA
ATOM     11  N   UNL     1      33.686 -22.084 -19.579  0.00  0.00    -0.246 N 
ATOM     12  C   UNL     1      35.106 -20.145 -21.196  0.00  0.00    -0.017 C 
ATOM     13  C   UNL     1      33.637 -19.943 -20.794  0.00  0.00    +0.020 C 
ATOM     14  C   UNL     1      35.829 -21.007 -20.148  0.00  0.00    +0.020 C 
ATOM     15  C   UNL     1      32.942 -21.279 -20.547  0.00  0.00    +0.097 C 
ATOM     16  C   UNL     1      35.094 -22.326 -19.913  0.00  0.00    +0.097 C 
ATOM     17  C   UNL     1      33.046 -22.609 -18.453  0.00  0.00    +0.405 C 
BRANCH  17  18
ATOM     18  O   UNL     1      33.878 -23.382 -17.686  0.00  0.00    -0.430 OA
ATOM     19  C   UNL     1      33.522 -23.513 -16.304  0.00  0.00    +0.257 C 
ENDBRANCH  17  18
ENDBRANCH   9  12
ENDBRANCH   2   9
ENDBRANCH   1   3
BRANCH   1  21
ATOM     20  O   UNL     1      33.363 -12.647 -26.722  0.00  0.00    -0.270 OA
ATOM     21  N   UNL     1      33.915 -13.324 -24.575  0.00  0.00    -0.301 N 
ATOM     22  C   UNL     1      33.770 -12.398 -25.589  0.00  0.00    +0.247 C 
ATOM     23  H   UNL     1      34.250 -13.023 -23.699  0.00  0.00    +0.150 HD
BRANCH  22  26
ATOM     24  N   UNL     1      33.123  -8.537 -22.840  0.00  0.00    -0.318 N 
ATOM     25  N   UNL     1      32.532 -10.614 -23.364  0.00  0.00    -0.318 N 
ATOM     26  C   UNL     1      34.172 -11.009 -25.251  0.00  0.00    +0.068 C 
ATOM     27  C   UNL     1      33.548 -10.294 -24.227  0.00  0.00    +0.063 C 
ATOM     28  C   UNL     1      35.197 -10.355 -25.942  0.00  0.00    +0.006 C 
ATOM     29  C   UNL     1      33.901  -8.993 -23.880  0.00  0.00    +0.059 C 
ATOM     30  C   UNL     1      32.314  -9.533 -22.556  0.00  0.00    +0.144 C 
ATOM     31  C   UNL     1      35.572  -9.049 -25.616  0.00  0.00    +0.001 C 
ATOM     32  C   UNL     1      34.932  -8.350 -24.585  0.00  0.00    +0.016 C 
ATOM     33  H   UNL     1      33.163  -7.655 -22.403  0.00  0.00    +0.148 HD
ATOM     34  H   UNL     1      32.046 -11.471 -23.332  0.00  0.00    +0.148 HD
BRANCH  30  35
ATOM     35  C   UNL     1      31.308  -9.450 -21.482  0.00  0.00    +0.037 C 
ATOM     36  C   UNL     1      30.863 -10.835 -20.953  0.00  0.00    +0.003 C 
ATOM     37  C   UNL     1      31.757  -8.570 -20.290  0.00  0.00    +0.003 C 
ENDBRANCH  30  35
ENDBRANCH  22  26
ENDBRANCH   1  21
TORSDOF 7
ENDMDL
MODEL 3
REMARK VINA RESULT:     -11.0      2.749     12.391
REMARK  Name = 11961293
REMARK  7 active torsions:
REMARK  status: ('A' for Active; 'I' for Inactive)
REMARK    1  A    between atoms: C_1  and  C_3
REMARK    2  A    between atoms: C_1  and  N_21
REMARK    3  A    between atoms: N_2  and  C_9
REMARK    4  A    between atoms: C_9  and  C_12
REMARK    5  A    between atoms: C_17  and  O_18
REMARK    6  A    between atoms: C_22  and  C_26
REMARK    7  A    between atoms: C_30  and  C_35
REMARK                            x       y       z     vdW  Elec       q    Type
REMARK                         _______ _______ _______ _____ _____    ______ ____
ROOT
ATOM      1  C   UNL     1      34.646 -22.199 -19.892  0.00  0.00    +0.089 C 
ENDROOT
BRANCH   1   3
ATOM      2  N   UNL     1      35.819 -18.739 -22.196  0.00  0.00    +0.387 N 
ATOM      3  C   UNL     1      34.955 -20.746 -20.241  0.00  0.00    +0.015 C 
ATOM      4  C   UNL     1      34.410 -18.820 -21.788  0.00  0.00    -0.077 C 
ATOM      5  C   UNL     1      36.711 -19.144 -21.102  0.00  0.00    -0.077 C 
ATOM      6  C   UNL     1      34.040 -20.243 -21.364  0.00  0.00    -0.021 C 
ATOM      7  C   UNL     1      36.420 -20.578 -20.655  0.00  0.00    -0.021 C 
ATOM      8  H   UNL     1      35.960 -19.385 -22.973  0.00  0.00    -0.080 HD
BRANCH   2   9
ATOM      9  C   UNL     1      36.144 -17.385 -22.648  0.00  0.00    -0.077 C 
BRANCH   9  12
ATOM     10  O   UNL     1      33.497 -13.104 -26.320  0.00  0.00    -0.226 OA
ATOM     11  N   UNL     1      33.581 -14.408 -24.398  0.00  0.00    -0.246 N 
ATOM     12  C   UNL     1      34.890 -16.654 -23.121  0.00  0.00    -0.017 C 
ATOM     13  C   UNL     1      34.909 -16.466 -24.646  0.00  0.00    +0.020 C 
ATOM     14  C   UNL     1      34.757 -15.292 -22.421  0.00  0.00    +0.020 C 
ATOM     15  C   UNL     1      33.695 -15.674 -25.121  0.00  0.00    +0.097 C 
ATOM     16  C   UNL     1      33.543 -14.520 -22.936  0.00  0.00    +0.097 C 
ATOM     17  C   UNL     1      33.467 -13.202 -25.095  0.00  0.00    +0.405 C 
BRANCH  17  18
ATOM     18  O   UNL     1      33.314 -12.124 -24.263  0.00  0.00    -0.430 OA
ATOM     19  C   UNL     1      34.017 -10.933 -24.637  0.00  0.00    +0.257 C 
ENDBRANCH  17  18
ENDBRANCH   9  12
ENDBRANCH   2   9
ENDBRANCH   1   3
BRANCH   1  21
ATOM     20  O   UNL     1      33.395 -24.528 -18.774  0.00  0.00    -0.270 OA
ATOM     21  N   UNL     1      33.986 -22.294 -18.599  0.00  0.00    -0.301 N 
ATOM     22  C   UNL     1      33.413 -23.468 -18.153  0.00  0.00    +0.247 C 
ATOM     23  H   UNL     1      33.946 -21.496 -18.024  0.00  0.00    +0.150 HD
BRANCH  22  26
ATOM     24  N   UNL     1      33.832 -23.700 -13.393  0.00  0.00    -0.318 N 
ATOM     25  N   UNL     1      34.799 -23.811 -15.391  0.00  0.00    -0.318 N 
ATOM     26  C   UNL     1      32.754 -23.395 -16.823  0.00  0.00    +0.068 C 
ATOM     27  C   UNL     1      33.474 -23.563 -15.639  0.00  0.00    +0.063 C 
ATOM     28  C   UNL     1      31.383 -23.151 -16.698  0.00  0.00    +0.006 C 
ATOM     29  C   UNL     1      32.891 -23.497 -14.376  0.00  0.00    +0.059 C 
ATOM     30  C   UNL     1      34.964 -23.884 -14.036  0.00  0.00    +0.144 C 
ATOM     31  C   UNL     1      30.771 -23.080 -15.444  0.00  0.00    +0.001 C 
ATOM     32  C   UNL     1      31.512 -23.252 -14.269  0.00  0.00    +0.016 C 
ATOM     33  H   UNL     1      33.690 -23.705 -12.419  0.00  0.00    +0.148 HD
ATOM     34  H   UNL     1      35.506 -23.917 -16.069  0.00  0.00    +0.148 HD
BRANCH  30  35
ATOM     35  C   UNL     1      36.236 -24.136 -13.336  0.00  0.00    +0.037 C 
ATOM     36  C   UNL     1      36.304 -23.477 -11.936  0.00  0.00    +0.003 C 
ATOM     37  C   UNL     1      36.577 -25.641 -13.207  0.00  0.00    +0.003 C 
ENDBRANCH  30  35
ENDBRANCH  22  26
ENDBRANCH   1  21
TORSDOF 7
ENDMDL
MODEL 4
REMARK VINA RESULT:     -10.7      2.626     12.175
REMARK  Name = 11961293
REMARK  7 active torsions:
REMARK  status: ('A' for Active; 'I' for Inactive)
REMARK    1  A    between atoms: C_1  and  C_3
REMARK    2  A    between atoms: C_1  and  N_21
REMARK    3  A    between atoms: N_2  and  C_9
REMARK    4  A    between atoms: C_9  and  C_12
REMARK    5  A    between atoms: C_17  and  O_18
REMARK    6  A    between atoms: C_22  and  C_26
REMARK    7  A    between atoms: C_30  and  C_35
REMARK                            x       y       z     vdW  Elec       q    Type
REMARK                         _______ _______ _______ _____ _____    ______ ____
ROOT
ATOM      1  C   UNL     1      36.606 -21.248 -19.725  0.00  0.00    +0.089 C 
ENDROOT
BRANCH   1   3
ATOM      2  N   UNL     1      35.173 -18.099 -22.311  0.00  0.00    +0.387 N 
ATOM      3  C   UNL     1      36.195 -20.513 -20.997  0.00  0.00    +0.015 C 
ATOM      4  C   UNL     1      36.589 -18.469 -22.435  0.00  0.00    -0.077 C 
ATOM      5  C   UNL     1      34.323 -19.290 -22.179  0.00  0.00    -0.077 C 
ATOM      6  C   UNL     1      37.060 -19.266 -21.217  0.00  0.00    -0.021 C 
ATOM      7  C   UNL     1      34.716 -20.114 -20.950  0.00  0.00    -0.021 C 
ATOM      8  H   UNL     1      35.066 -17.541 -21.464  0.00  0.00    -0.080 HD
BRANCH   2   9
ATOM      9  C   UNL     1      34.751 -17.295 -23.458  0.00  0.00    -0.077 C 
BRANCH   9  12
ATOM     10  O   UNL     1      31.954 -12.750 -20.242  0.00  0.00    -0.226 OA
ATOM     11  N   UNL     1      33.195 -13.545 -22.039  0.00  0.00    -0.246 N 
ATOM     12  C   UNL     1      34.655 -15.818 -23.082  0.00  0.00    -0.017 C 
ATOM     13  C   UNL     1      34.380 -15.654 -21.579  0.00  0.00    +0.020 C 
ATOM     14  C   UNL     1      33.561 -15.116 -23.902  0.00  0.00    +0.020 C 
ATOM     15  C   UNL     1      34.212 -14.184 -21.205  0.00  0.00    +0.097 C 
ATOM     16  C   UNL     1      33.409 -13.654 -23.486  0.00  0.00    +0.097 C 
ATOM     17  C   UNL     1      32.136 -12.845 -21.454  0.00  0.00    +0.405 C 
BRANCH  17  18
ATOM     18  O   UNL     1      31.311 -12.265 -22.381  0.00  0.00    -0.430 OA
ATOM     19  C   UNL     1      30.683 -11.038 -21.988  0.00  0.00    +0.257 C 
ENDBRANCH  17  18
ENDBRANCH   9  12
ENDBRANCH   2   9
ENDBRANCH   1   3
BRANCH   1  21
ATOM     20  O   UNL     1      36.599 -22.671 -17.232  0.00  0.00    -0.270 OA
ATOM     21  N   UNL     1      35.438 -21.737 -19.007  0.00  0.00    -0.301 N 
ATOM     22  C   UNL     1      35.545 -22.414 -17.808  0.00  0.00    +0.247 C 
ATOM     23  H   UNL     1      34.544 -21.580 -19.388  0.00  0.00    +0.150 HD
BRANCH  22  26
ATOM     24  N   UNL     1      33.260 -24.382 -14.094  0.00  0.00    -0.318 N 
ATOM     25  N   UNL     1      35.170 -23.697 -15.001  0.00  0.00    -0.318 N 
ATOM     26  C   UNL     1      34.263 -22.870 -17.214  0.00  0.00    +0.068 C 
ATOM     27  C   UNL     1      34.205 -23.435 -15.939  0.00  0.00    +0.063 C 
ATOM     28  C   UNL     1      33.053 -22.752 -17.905  0.00  0.00    +0.006 C 
ATOM     29  C   UNL     1      33.021 -23.870 -15.349  0.00  0.00    +0.059 C 
ATOM     30  C   UNL     1      34.558 -24.263 -13.918  0.00  0.00    +0.144 C 
ATOM     31  C   UNL     1      31.849 -23.181 -17.340  0.00  0.00    +0.001 C 
ATOM     32  C   UNL     1      31.815 -23.745 -16.058  0.00  0.00    +0.016 C 
ATOM     33  H   UNL     1      32.603 -24.756 -13.464  0.00  0.00    +0.148 HD
ATOM     34  H   UNL     1      36.133 -23.512 -15.093  0.00  0.00    +0.148 HD
BRANCH  30  35
ATOM     35  C   UNL     1      35.228 -24.699 -12.680  0.00  0.00    +0.037 C 
ATOM     36  C   UNL     1      36.372 -25.713 -12.930  0.00  0.00    +0.003 C 
ATOM     37  C   UNL     1      35.767 -23.524 -11.829  0.00  0.00    +0.003 C 
ENDBRANCH  30  35
ENDBRANCH  22  26
ENDBRANCH   1  21
TORSDOF 7
ENDMDL
MODEL 5
REMARK VINA RESULT:     -10.5      3.961      7.784
REMARK  Name = 11961293
REMARK  7 active torsions:
REMARK  status: ('A' for Active; 'I' for Inactive)
REMARK    1  A    between atoms: C_1  and  C_3
REMARK    2  A    between atoms: C_1  and  N_21
REMARK    3  A    between atoms: N_2  and  C_9
REMARK    4  A    between atoms: C_9  and  C_12
REMARK    5  A    between atoms: C_17  and  O_18
REMARK    6  A    between atoms: C_22  and  C_26
REMARK    7  A    between atoms: C_30  and  C_35
REMARK                            x       y       z     vdW  Elec       q    Type
REMARK                         _______ _______ _______ _____ _____    ______ ____
ROOT
ATOM      1  C   UNL     1      36.784 -21.192 -19.943  0.00  0.00    +0.089 C 
ENDROOT
BRANCH   1   3
ATOM      2  N   UNL     1      34.531 -23.318 -16.933  0.00  0.00    +0.387 N 
ATOM      3  C   UNL     1      35.776 -21.460 -18.829  0.00  0.00    +0.015 C 
ATOM      4  C   UNL     1      35.472 -22.294 -16.460  0.00  0.00    -0.077 C 
ATOM      5  C   UNL     1      33.791 -22.853 -18.113  0.00  0.00    -0.077 C 
ATOM      6  C   UNL     1      36.481 -21.927 -17.550  0.00  0.00    -0.021 C 
ATOM      7  C   UNL     1      34.743 -22.506 -19.260  0.00  0.00    -0.021 C 
ATOM      8  H   UNL     1      35.070 -24.140 -17.204  0.00  0.00    -0.080 HD
BRANCH   2   9
ATOM      9  C   UNL     1      33.605 -23.695 -15.864  0.00  0.00    -0.077 C 
BRANCH   9  12
ATOM     10  O   UNL     1      37.965 -24.947 -11.592  0.00  0.00    -0.226 OA
ATOM     11  N   UNL     1      36.486 -25.565 -13.275  0.00  0.00    -0.246 N 
ATOM     12  C   UNL     1      34.258 -24.686 -14.904  0.00  0.00    -0.017 C 
ATOM     13  C   UNL     1      34.600 -24.008 -13.568  0.00  0.00    +0.020 C 
ATOM     14  C   UNL     1      35.522 -25.298 -15.527  0.00  0.00    +0.020 C 
ATOM     15  C   UNL     1      35.317 -24.972 -12.627  0.00  0.00    +0.097 C 
ATOM     16  C   UNL     1      36.223 -26.240 -14.550  0.00  0.00    +0.097 C 
ATOM     17  C   UNL     1      37.740 -25.511 -12.661  0.00  0.00    +0.405 C 
BRANCH  17  18
ATOM     18  O   UNL     1      38.708 -26.162 -13.380  0.00  0.00    -0.430 OA
ATOM     19  C   UNL     1      39.680 -25.332 -14.027  0.00  0.00    +0.257 C 
ENDBRANCH  17  18
ENDBRANCH   9  12
ENDBRANCH   2   9
ENDBRANCH   1   3
BRANCH   1  21
ATOM     20  O   UNL     1      36.514 -18.432 -20.687  0.00  0.00    -0.270 OA
ATOM     21  N   UNL     1      36.121 -20.673 -21.130  0.00  0.00    -0.301 N 
ATOM     22  C   UNL     1      36.046 -19.320 -21.396  0.00  0.00    +0.247 C 
ATOM     23  H   UNL     1      35.712 -21.307 -21.763  0.00  0.00    +0.150 HD
BRANCH  22  26
ATOM     24  N   UNL     1      33.948 -15.907 -24.009  0.00  0.00    -0.318 N 
ATOM     25  N   UNL     1      35.040 -16.479 -22.161  0.00  0.00    -0.318 N 
ATOM     26  C   UNL     1      35.314 -18.951 -22.634  0.00  0.00    +0.068 C 
ATOM     27  C   UNL     1      34.907 -17.638 -22.881  0.00  0.00    +0.063 C 
ATOM     28  C   UNL     1      35.001 -19.901 -23.611  0.00  0.00    +0.006 C 
ATOM     29  C   UNL     1      34.223 -17.255 -24.031  0.00  0.00    +0.059 C 
ATOM     30  C   UNL     1      34.452 -15.474 -22.875  0.00  0.00    +0.144 C 
ATOM     31  C   UNL     1      34.315 -19.546 -24.775  0.00  0.00    +0.001 C 
ATOM     32  C   UNL     1      33.916 -18.223 -25.002  0.00  0.00    +0.016 C 
ATOM     33  H   UNL     1      33.477 -15.380 -24.695  0.00  0.00    +0.148 HD
ATOM     34  H   UNL     1      35.482 -16.389 -21.285  0.00  0.00    +0.148 HD
BRANCH  30  35
ATOM     35  C   UNL     1      34.370 -14.060 -22.465  0.00  0.00    +0.037 C 
ATOM     36  C   UNL     1      34.115 -13.094 -23.648  0.00  0.00    +0.003 C 
ATOM     37  C   UNL     1      33.315 -13.804 -21.362  0.00  0.00    +0.003 C 
ENDBRANCH  30  35
ENDBRANCH  22  26
ENDBRANCH   1  21
TORSDOF 7
ENDMDL
MODEL 6
REMARK VINA RESULT:     -10.4      2.487      4.639
REMARK  Name = 11961293
REMARK  7 active torsions:
REMARK  status: ('A' for Active; 'I' for Inactive)
REMARK    1  A    between atoms: C_1  and  C_3
REMARK    2  A    between atoms: C_1  and  N_21
REMARK    3  A    between atoms: N_2  and  C_9
REMARK    4  A    between atoms: C_9  and  C_12
REMARK    5  A    between atoms: C_17  and  O_18
REMARK    6  A    between atoms: C_22  and  C_26
REMARK    7  A    between atoms: C_30  and  C_35
REMARK                            x       y       z     vdW  Elec       q    Type
REMARK                         _______ _______ _______ _____ _____    ______ ____
ROOT
ATOM      1  C   UNL     1      35.981 -18.470 -21.864  0.00  0.00    +0.089 C 
ENDROOT
BRANCH   1   3
ATOM      2  N   UNL     1      33.998 -21.506 -19.517  0.00  0.00    +0.387 N 
ATOM      3  C   UNL     1      35.293 -19.784 -21.506  0.00  0.00    +0.015 C 
ATOM      4  C   UNL     1      33.200 -20.842 -20.556  0.00  0.00    -0.077 C 
ATOM      5  C   UNL     1      35.349 -21.817 -20.004  0.00  0.00    -0.077 C 
ATOM      6  C   UNL     1      33.862 -19.539 -21.012  0.00  0.00    -0.021 C 
ATOM      7  C   UNL     1      36.084 -20.547 -20.439  0.00  0.00    -0.021 C 
ATOM      8  H   UNL     1      34.088 -20.863 -18.730  0.00  0.00    -0.080 HD
BRANCH   2   9
ATOM      9  C   UNL     1      33.328 -22.722 -19.056  0.00  0.00    -0.077 C 
BRANCH   9  12
ATOM     10  O   UNL     1      32.022 -25.442 -13.604  0.00  0.00    -0.226 OA
ATOM     11  N   UNL     1      31.846 -23.707 -15.140  0.00  0.00    -0.246 N 
ATOM     12  C   UNL     1      32.926 -22.598 -17.588  0.00  0.00    -0.017 C 
ATOM     13  C   UNL     1      33.733 -23.573 -16.716  0.00  0.00    +0.020 C 
ATOM     14  C   UNL     1      31.420 -22.850 -17.411  0.00  0.00    +0.020 C 
ATOM     15  C   UNL     1      33.289 -23.507 -15.258  0.00  0.00    +0.097 C 
ATOM     16  C   UNL     1      31.018 -22.797 -15.939  0.00  0.00    +0.097 C 
ATOM     17  C   UNL     1      31.332 -24.678 -14.276  0.00  0.00    +0.405 C 
BRANCH  17  18
ATOM     18  O   UNL     1      29.963 -24.691 -14.250  0.00  0.00    -0.430 OA
ATOM     19  C   UNL     1      29.329 -25.788 -14.919  0.00  0.00    +0.257 C 
ENDBRANCH  17  18
ENDBRANCH   9  12
ENDBRANCH   2   9
ENDBRANCH   1   3
BRANCH   1  21
ATOM     20  O   UNL     1      35.620 -16.174 -23.550  0.00  0.00    -0.270 OA
ATOM     21  N   UNL     1      35.102 -17.337 -21.614  0.00  0.00    -0.301 N 
ATOM     22  C   UNL     1      35.002 -16.278 -22.494  0.00  0.00    +0.247 C 
ATOM     23  H   UNL     1      34.562 -17.326 -20.790  0.00  0.00    +0.150 HD
BRANCH  22  26
ATOM     24  N   UNL     1      32.992 -12.057 -23.508  0.00  0.00    -0.318 N 
ATOM     25  N   UNL     1      34.369 -13.696 -24.105  0.00  0.00    -0.318 N 
ATOM     26  C   UNL     1      34.081 -15.188 -22.082  0.00  0.00    +0.068 C 
ATOM     27  C   UNL     1      33.867 -14.066 -22.885  0.00  0.00    +0.063 C 
ATOM     28  C   UNL     1      33.384 -15.237 -20.871  0.00  0.00    +0.006 C 
ATOM     29  C   UNL     1      33.008 -13.028 -22.534  0.00  0.00    +0.059 C 
ATOM     30  C   UNL     1      33.818 -12.489 -24.435  0.00  0.00    +0.144 C 
ATOM     31  C   UNL     1      32.516 -14.210 -20.491  0.00  0.00    +0.001 C 
ATOM     32  C   UNL     1      32.317 -13.094 -21.313  0.00  0.00    +0.016 C 
ATOM     33  H   UNL     1      32.473 -11.220 -23.512  0.00  0.00    +0.148 HD
ATOM     34  H   UNL     1      35.013 -14.208 -24.648  0.00  0.00    +0.148 HD
BRANCH  30  35
ATOM     35  C   UNL     1      34.085 -11.729 -25.669  0.00  0.00    +0.037 C 
ATOM     36  C   UNL     1      33.448 -12.364 -26.929  0.00  0.00    +0.003 C 
ATOM     37  C   UNL     1      33.658 -10.243 -25.577  0.00  0.00    +0.003 C 
ENDBRANCH  30  35
ENDBRANCH  22  26
ENDBRANCH   1  21
TORSDOF 7
ENDMDL
MODEL 7
REMARK VINA RESULT:     -10.3      2.690      4.463
REMARK  Name = 11961293
REMARK  7 active torsions:
REMARK  status: ('A' for Active; 'I' for Inactive)
REMARK    1  A    between atoms: C_1  and  C_3
REMARK    2  A    between atoms: C_1  and  N_21
REMARK    3  A    between atoms: N_2  and  C_9
REMARK    4  A    between atoms: C_9  and  C_12
REMARK    5  A    between atoms: C_17  and  O_18
REMARK    6  A    between atoms: C_22  and  C_26
REMARK    7  A    between atoms: C_30  and  C_35
REMARK                            x       y       z     vdW  Elec       q    Type
REMARK                         _______ _______ _______ _____ _____    ______ ____
ROOT
ATOM      1  C   UNL     1      36.059 -18.067 -22.566  0.00  0.00    +0.089 C 
ENDROOT
BRANCH   1   3
ATOM      2  N   UNL     1      34.858 -21.050 -19.682  0.00  0.00    +0.387 N 
ATOM      3  C   UNL     1      35.606 -19.406 -21.992  0.00  0.00    +0.015 C 
ATOM      4  C   UNL     1      33.834 -20.590 -20.629  0.00  0.00    -0.077 C 
ATOM      5  C   UNL     1      36.148 -21.255 -20.355  0.00  0.00    -0.077 C 
ATOM      6  C   UNL     1      34.248 -19.275 -21.293  0.00  0.00    -0.021 C 
ATOM      7  C   UNL     1      36.641 -19.963 -21.009  0.00  0.00    -0.021 C 
ATOM      8  H   UNL     1      34.984 -20.324 -18.976  0.00  0.00    -0.080 HD
BRANCH   2   9
ATOM      9  C   UNL     1      34.426 -22.280 -19.018  0.00  0.00    -0.077 C 
BRANCH   9  12
ATOM     10  O   UNL     1      38.320 -24.355 -14.617  0.00  0.00    -0.226 OA
ATOM     11  N   UNL     1      36.278 -23.508 -15.335  0.00  0.00    -0.246 N 
ATOM     12  C   UNL     1      34.871 -22.295 -17.557  0.00  0.00    -0.017 C 
ATOM     13  C   UNL     1      36.403 -22.257 -17.452  0.00  0.00    +0.020 C 
ATOM     14  C   UNL     1      34.320 -23.532 -16.832  0.00  0.00    +0.020 C 
ATOM     15  C   UNL     1      36.860 -22.343 -15.999  0.00  0.00    +0.097 C 
ATOM     16  C   UNL     1      34.814 -23.595 -15.388  0.00  0.00    +0.097 C 
ATOM     17  C   UNL     1      37.093 -24.424 -14.665  0.00  0.00    +0.405 C 
BRANCH  17  18
ATOM     18  O   UNL     1      36.377 -25.421 -14.056  0.00  0.00    -0.430 OA
ATOM     19  C   UNL     1      37.074 -26.179 -13.059  0.00  0.00    +0.257 C 
ENDBRANCH  17  18
ENDBRANCH   9  12
ENDBRANCH   2   9
ENDBRANCH   1   3
BRANCH   1  21
ATOM     20  O   UNL     1      35.480 -15.663 -24.025  0.00  0.00    -0.270 OA
ATOM     21  N   UNL     1      35.165 -16.996 -22.155  0.00  0.00    -0.301 N 
ATOM     22  C   UNL     1      34.955 -15.876 -22.935  0.00  0.00    +0.247 C 
ATOM     23  H   UNL     1      34.693 -17.072 -21.294  0.00  0.00    +0.150 HD
BRANCH  22  26
ATOM     24  N   UNL     1      32.828 -11.613 -23.375  0.00  0.00    -0.318 N 
ATOM     25  N   UNL     1      34.209 -13.141 -24.212  0.00  0.00    -0.318 N 
ATOM     26  C   UNL     1      34.032 -14.861 -22.364  0.00  0.00    +0.068 C 
ATOM     27  C   UNL     1      33.764 -13.660 -23.024  0.00  0.00    +0.063 C 
ATOM     28  C   UNL     1      33.388 -15.065 -21.140  0.00  0.00    +0.006 C 
ATOM     29  C   UNL     1      32.903 -12.688 -22.521  0.00  0.00    +0.059 C 
ATOM     30  C   UNL     1      33.622 -11.917 -24.378  0.00  0.00    +0.144 C 
ATOM     31  C   UNL     1      32.519 -14.107 -20.610  0.00  0.00    +0.001 C 
ATOM     32  C   UNL     1      32.265 -12.909 -21.289  0.00  0.00    +0.016 C 
ATOM     33  H   UNL     1      32.295 -10.793 -23.262  0.00  0.00    +0.148 HD
ATOM     34  H   UNL     1      34.838 -13.572 -24.834  0.00  0.00    +0.148 HD
BRANCH  30  35
ATOM     35  C   UNL     1      33.824 -11.015 -25.526  0.00  0.00    +0.037 C 
ATOM     36  C   UNL     1      35.149 -10.217 -25.451  0.00  0.00    +0.003 C 
ATOM     37  C   UNL     1      33.741 -11.736 -26.893  0.00  0.00    +0.003 C 
ENDBRANCH  30  35
ENDBRANCH  22  26
ENDBRANCH   1  21
TORSDOF 7
ENDMDL
MODEL 8
REMARK VINA RESULT:     -10.0      3.115     11.827
REMARK  Name = 11961293
REMARK  7 active torsions:
REMARK  status: ('A' for Active; 'I' for Inactive)
REMARK    1  A    between atoms: C_1  and  C_3
REMARK    2  A    between atoms: C_1  and  N_21
REMARK    3  A    between atoms: N_2  and  C_9
REMARK    4  A    between atoms: C_9  and  C_12
REMARK    5  A    between atoms: C_17  and  O_18
REMARK    6  A    between atoms: C_22  and  C_26
REMARK    7  A    between atoms: C_30  and  C_35
REMARK                            x       y       z     vdW  Elec       q    Type
REMARK                         _______ _______ _______ _____ _____    ______ ____
ROOT
ATOM      1  C   UNL     1      33.608 -22.734 -19.487  0.00  0.00    +0.089 C 
ENDROOT
BRANCH   1   3
ATOM      2  N   UNL     1      35.300 -19.461 -21.741  0.00  0.00    +0.387 N 
ATOM      3  C   UNL     1      34.147 -21.344 -19.812  0.00  0.00    +0.015 C 
ATOM      4  C   UNL     1      33.904 -19.319 -21.308  0.00  0.00    -0.077 C 
ATOM      5  C   UNL     1      36.130 -20.033 -20.673  0.00  0.00    -0.077 C 
ATOM      6  C   UNL     1      33.311 -20.671 -20.906  0.00  0.00    -0.021 C 
ATOM      7  C   UNL     1      35.614 -21.410 -20.250  0.00  0.00    -0.021 C 
ATOM      8  H   UNL     1      35.320 -20.103 -22.533  0.00  0.00    -0.080 HD
BRANCH   2   9
ATOM      9  C   UNL     1      35.837 -18.170 -22.171  0.00  0.00    -0.077 C 
BRANCH   9  12
ATOM     10  O   UNL     1      33.923 -14.045 -26.432  0.00  0.00    -0.226 OA
ATOM     11  N   UNL     1      33.833 -15.037 -24.332  0.00  0.00    -0.246 N 
ATOM     12  C   UNL     1      34.732 -17.282 -22.737  0.00  0.00    -0.017 C 
ATOM     13  C   UNL     1      34.722 -17.333 -24.272  0.00  0.00    +0.020 C 
ATOM     14  C   UNL     1      34.897 -15.831 -22.256  0.00  0.00    +0.020 C 
ATOM     15  C   UNL     1      33.666 -16.394 -24.850  0.00  0.00    +0.097 C 
ATOM     16  C   UNL     1      33.837 -14.919 -22.870  0.00  0.00    +0.097 C 
ATOM     17  C   UNL     1      33.927 -13.951 -25.206  0.00  0.00    +0.405 C 
BRANCH  17  18
ATOM     18  O   UNL     1      34.024 -12.752 -24.550  0.00  0.00    -0.430 OA
ATOM     19  C   UNL     1      33.932 -11.577 -25.365  0.00  0.00    +0.257 C 
ENDBRANCH  17  18
ENDBRANCH   9  12
ENDBRANCH   2   9
ENDBRANCH   1   3
BRANCH   1  21
ATOM     20  O   UNL     1      34.480 -24.254 -17.213  0.00  0.00    -0.270 OA
ATOM     21  N   UNL     1      32.992 -22.758 -18.169  0.00  0.00    -0.301 N 
ATOM     22  C   UNL     1      33.493 -23.528 -17.138  0.00  0.00    +0.247 C 
ATOM     23  H   UNL     1      32.191 -22.207 -18.007  0.00  0.00    +0.150 HD
BRANCH  22  26
ATOM     24  N   UNL     1      29.279 -22.984 -14.939  0.00  0.00    -0.318 N 
ATOM     25  N   UNL     1      30.430 -23.080 -16.837  0.00  0.00    -0.318 N 
ATOM     26  C   UNL     1      32.735 -23.462 -15.863  0.00  0.00    +0.068 C 
ATOM     27  C   UNL     1      31.354 -23.257 -15.840  0.00  0.00    +0.063 C 
ATOM     28  C   UNL     1      33.370 -23.606 -14.625  0.00  0.00    +0.006 C 
ATOM     29  C   UNL     1      30.610 -23.195 -14.664  0.00  0.00    +0.059 C 
ATOM     30  C   UNL     1      29.207 -22.921 -16.250  0.00  0.00    +0.144 C 
ATOM     31  C   UNL     1      32.651 -23.548 -13.429  0.00  0.00    +0.001 C 
ATOM     32  C   UNL     1      31.266 -23.341 -13.430  0.00  0.00    +0.016 C 
ATOM     33  H   UNL     1      28.540 -22.900 -14.294  0.00  0.00    +0.148 HD
ATOM     34  H   UNL     1      30.616 -23.069 -17.805  0.00  0.00    +0.148 HD
BRANCH  30  35
ATOM     35  C   UNL     1      27.933 -22.704 -16.959  0.00  0.00    +0.037 C 
ATOM     36  C   UNL     1      27.509 -23.907 -17.836  0.00  0.00    +0.003 C 
ATOM     37  C   UNL     1      26.765 -22.325 -16.017  0.00  0.00    +0.003 C 
ENDBRANCH  30  35
ENDBRANCH  22  26
ENDBRANCH   1  21
TORSDOF 7
ENDMDL
MODEL 9
REMARK VINA RESULT:     -10.0      3.437     12.508
REMARK  Name = 11961293
REMARK  7 active torsions:
REMARK  status: ('A' for Active; 'I' for Inactive)
REMARK    1  A    between atoms: C_1  and  C_3
REMARK    2  A    between atoms: C_1  and  N_21
REMARK    3  A    between atoms: N_2  and  C_9
REMARK    4  A    between atoms: C_9  and  C_12
REMARK    5  A    between atoms: C_17  and  O_18
REMARK    6  A    between atoms: C_22  and  C_26
REMARK    7  A    between atoms: C_30  and  C_35
REMARK                            x       y       z     vdW  Elec       q    Type
REMARK                         _______ _______ _______ _____ _____    ______ ____
ROOT
ATOM      1  C   UNL     1      31.251 -12.018 -20.963  0.00  0.00    +0.089 C 
ENDROOT
BRANCH   1   3
ATOM      2  N   UNL     1      32.845  -8.110 -21.881  0.00  0.00    +0.387 N 
ATOM      3  C   UNL     1      31.296 -10.530 -21.299  0.00  0.00    +0.015 C 
ATOM      4  C   UNL     1      32.112  -8.797 -22.952  0.00  0.00    -0.077 C 
ATOM      5  C   UNL     1      32.165  -8.265 -20.588  0.00  0.00    -0.077 C 
ATOM      6  C   UNL     1      31.973 -10.292 -22.654  0.00  0.00    -0.021 C 
ATOM      7  C   UNL     1      32.029  -9.742 -20.209  0.00  0.00    -0.021 C 
ATOM      8  H   UNL     1      33.767  -8.540 -21.804  0.00  0.00    -0.080 HD
BRANCH   2   9
ATOM      9  C   UNL     1      33.014  -6.693 -22.204  0.00  0.00    -0.077 C 
BRANCH   9  12
ATOM     10  O   UNL     1      36.311  -4.505 -27.018  0.00  0.00    -0.226 OA
ATOM     11  N   UNL     1      34.323  -5.141 -25.996  0.00  0.00    -0.246 N 
ATOM     12  C   UNL     1      33.167  -6.493 -23.710  0.00  0.00    -0.017 C 
ATOM     13  C   UNL     1      34.617  -6.745 -24.151  0.00  0.00    +0.020 C 
ATOM     14  C   UNL     1      32.727  -5.078 -24.119  0.00  0.00    +0.020 C 
ATOM     15  C   UNL     1      34.795  -6.479 -25.643  0.00  0.00    +0.097 C 
ATOM     16  C   UNL     1      32.939  -4.842 -25.613  0.00  0.00    +0.097 C 
ATOM     17  C   UNL     1      35.151  -4.258 -26.695  0.00  0.00    +0.405 C 
BRANCH  17  18
ATOM     18  O   UNL     1      34.530  -3.073 -26.989  0.00  0.00    -0.430 OA
ATOM     19  C   UNL     1      35.208  -2.219 -27.918  0.00  0.00    +0.257 C 
ENDBRANCH  17  18
ENDBRANCH   9  12
ENDBRANCH   2   9
ENDBRANCH   1   3
BRANCH   1  21
ATOM     20  O   UNL     1      33.541 -13.744 -20.814  0.00  0.00    -0.270 OA
ATOM     21  N   UNL     1      31.812 -12.813 -22.045  0.00  0.00    -0.301 N 
ATOM     22  C   UNL     1      32.922 -13.615 -21.867  0.00  0.00    +0.247 C 
ATOM     23  H   UNL     1      31.386 -12.779 -22.932  0.00  0.00    +0.150 HD
BRANCH  22  26
ATOM     24  N   UNL     1      35.312 -17.329 -23.705  0.00  0.00    -0.318 N 
ATOM     25  N   UNL     1      34.613 -16.224 -21.908  0.00  0.00    -0.318 N 
ATOM     26  C   UNL     1      33.386 -14.343 -23.075  0.00  0.00    +0.068 C 
ATOM     27  C   UNL     1      34.143 -15.512 -22.982  0.00  0.00    +0.063 C 
ATOM     28  C   UNL     1      33.083 -13.891 -24.364  0.00  0.00    +0.006 C 
ATOM     29  C   UNL     1      34.592 -16.223 -24.092  0.00  0.00    +0.059 C 
ATOM     30  C   UNL     1      35.304 -17.300 -22.390  0.00  0.00    +0.144 C 
ATOM     31  C   UNL     1      33.520 -14.583 -25.496  0.00  0.00    +0.001 C 
ATOM     32  C   UNL     1      34.278 -15.754 -25.378  0.00  0.00    +0.016 C 
ATOM     33  H   UNL     1      35.740 -17.999 -24.285  0.00  0.00    +0.148 HD
ATOM     34  H   UNL     1      34.476 -16.000 -20.959  0.00  0.00    +0.148 HD
BRANCH  30  35
ATOM     35  C   UNL     1      35.975 -18.328 -21.575  0.00  0.00    +0.037 C 
ATOM     36  C   UNL     1      35.116 -19.599 -21.366  0.00  0.00    +0.003 C 
ATOM     37  C   UNL     1      37.363 -18.737 -22.127  0.00  0.00    +0.003 C 
ENDBRANCH  30  35
ENDBRANCH  22  26
ENDBRANCH   1  21
TORSDOF 7
ENDMDL
