MODEL 1
REMARK VINA RESULT:     -10.9      0.000      0.000
REMARK  Name = 10297043
REMARK  6 active torsions:
REMARK  status: ('A' for Active; 'I' for Inactive)
REMARK    1  A    between atoms: N_2  and  C_30
REMARK    2  A    between atoms: C_5  and  C_16
REMARK    3  A    between atoms: C_13  and  C_19
REMARK    4  A    between atoms: C_19  and  N_20
REMARK    5  A    between atoms: N_21  and  C_28
REMARK    6  A    between atoms: C_30  and  C_32
REMARK                            x       y       z     vdW  Elec       q    Type
REMARK                         _______ _______ _______ _____ _____    ______ ____
ROOT
ATOM      1  N   UNL     1      33.849 -15.191 -25.454  0.00  0.00    -0.301 N 
ATOM      2  N   UNL     1      34.002 -10.782 -23.936  0.00  0.00    -0.319 N 
ATOM      3  N   UNL     1      33.091 -13.525 -27.024  0.00  0.00    -0.233 NA
ATOM      4  N   UNL     1      33.210 -11.261 -26.137  0.00  0.00    -0.233 NA
ATOM      5  C   UNL     1      34.338 -15.203 -24.173  0.00  0.00    +0.046 C 
ATOM      6  C   UNL     1      33.907 -13.069 -24.766  0.00  0.00    +0.131 C 
ATOM      7  C   UNL     1      34.385 -13.901 -23.722  0.00  0.00    +0.003 C 
ATOM      8  C   UNL     1      33.581 -13.901 -25.830  0.00  0.00    +0.117 C 
ATOM      9  C   UNL     1      33.702 -11.703 -24.956  0.00  0.00    +0.113 C 
ATOM     10  C   UNL     1      32.938 -12.186 -27.084  0.00  0.00    +0.252 C 
ATOM     11  H   UNL     1      33.712 -15.987 -26.017  0.00  0.00    +0.153 HD
ATOM     12  H   UNL     1      34.359 -11.124 -23.085  0.00  0.00    +0.148 HD
ENDROOT
BRANCH   5  16
ATOM     13  C   UNL     1      35.418 -18.789 -22.223  0.00  0.00    -0.043 C 
ATOM     14  C   UNL     1      35.285 -17.618 -21.486  0.00  0.00    -0.006 C 
ATOM     15  C   UNL     1      35.199 -18.792 -23.595  0.00  0.00    -0.006 C 
ATOM     16  C   UNL     1      34.707 -16.428 -23.508  0.00  0.00    +0.013 C 
ATOM     17  C   UNL     1      34.927 -16.433 -22.131  0.00  0.00    +0.001 C 
ATOM     18  C   UNL     1      34.842 -17.607 -24.240  0.00  0.00    +0.001 C 
BRANCH  13  19
ATOM     19  C   UNL     1      35.803 -20.064 -21.530  0.00  0.00    -0.050 C 
BRANCH  19  20
ATOM     20  N   UNL     1      34.865 -20.411 -20.464  0.00  0.00    +0.387 N 
ATOM     21  N   UNL     1      32.907 -22.135 -19.218  0.00  0.00    +0.384 N 
ATOM     22  C   UNL     1      33.497 -20.515 -20.989  0.00  0.00    -0.100 C 
ATOM     23  C   UNL     1      35.260 -21.663 -19.808  0.00  0.00    -0.100 C 
ATOM     24  C   UNL     1      32.511 -20.883 -19.875  0.00  0.00    -0.101 C 
ATOM     25  C   UNL     1      34.274 -22.029 -18.693  0.00  0.00    -0.101 C 
ATOM     26  H   UNL     1      34.886 -19.663 -19.770  0.00  0.00    -0.079 HD
ATOM     27  H   UNL     1      32.887 -22.883 -19.913  0.00  0.00    -0.080 HD
BRANCH  21  28
ATOM     28  C   UNL     1      31.968 -22.483 -18.154  0.00  0.00    -0.078 C 
ATOM     29  C   UNL     1      32.602 -23.430 -17.150  0.00  0.00    -0.025 C 
ENDBRANCH  21  28
ENDBRANCH  19  20
ENDBRANCH  13  19
ENDBRANCH   5  16
BRANCH   2  30
ATOM     30  C   UNL     1      33.811  -9.370 -24.078  0.00  0.00    +0.093 C 
ATOM     31  C   UNL     1      35.162  -8.705 -24.330  0.00  0.00    +0.026 C 
BRANCH  30  32
ATOM     32  C   UNL     1      33.092  -8.814 -22.868  0.00  0.00    -0.005 C 
ATOM     33  C   UNL     1      32.080  -9.557 -22.284  0.00  0.00    -0.003 C 
ATOM     34  C   UNL     1      33.459  -7.575 -22.373  0.00  0.00    -0.003 C 
ATOM     35  C   UNL     1      31.416  -9.045 -21.170  0.00  0.00    -0.000 C 
ATOM     36  C   UNL     1      32.795  -7.063 -21.258  0.00  0.00    -0.000 C 
ATOM     37  C   UNL     1      31.774  -7.797 -20.657  0.00  0.00    -0.000 C 
ENDBRANCH  30  32
ENDBRANCH   2  30
TORSDOF 6
ENDMDL
MODEL 2
REMARK VINA RESULT:     -10.9      2.371     11.221
REMARK  Name = 10297043
REMARK  6 active torsions:
REMARK  status: ('A' for Active; 'I' for Inactive)
REMARK    1  A    between atoms: N_2  and  C_30
REMARK    2  A    between atoms: C_5  and  C_16
REMARK    3  A    between atoms: C_13  and  C_19
REMARK    4  A    between atoms: C_19  and  N_20
REMARK    5  A    between atoms: N_21  and  C_28
REMARK    6  A    between atoms: C_30  and  C_32
REMARK                            x       y       z     vdW  Elec       q    Type
REMARK                         _______ _______ _______ _____ _____    ______ ____
ROOT
ATOM      1  N   UNL     1      33.244 -14.552 -24.553  0.00  0.00    -0.301 N 
ATOM      2  N   UNL     1      35.656 -17.422 -21.776  0.00  0.00    -0.319 N 
ATOM      3  N   UNL     1      33.830 -16.683 -25.518  0.00  0.00    -0.233 NA
ATOM      4  N   UNL     1      35.084 -18.105 -23.991  0.00  0.00    -0.233 NA
ATOM      5  C   UNL     1      33.433 -13.917 -23.353  0.00  0.00    +0.046 C 
ATOM      6  C   UNL     1      34.398 -15.954 -23.256  0.00  0.00    +0.131 C 
ATOM      7  C   UNL     1      34.145 -14.763 -22.529  0.00  0.00    +0.003 C 
ATOM      8  C   UNL     1      33.825 -15.792 -24.512  0.00  0.00    +0.117 C 
ATOM      9  C   UNL     1      35.046 -17.166 -23.017  0.00  0.00    +0.113 C 
ATOM     10  C   UNL     1      34.483 -17.809 -25.165  0.00  0.00    +0.252 C 
ATOM     11  H   UNL     1      32.765 -14.175 -25.326  0.00  0.00    +0.153 HD
ATOM     12  H   UNL     1      35.616 -16.726 -21.080  0.00  0.00    +0.148 HD
ENDROOT
BRANCH   5  16
ATOM     13  C   UNL     1      31.961 -10.027 -22.624  0.00  0.00    -0.043 C 
ATOM     14  C   UNL     1      31.514 -11.089 -21.846  0.00  0.00    -0.006 C 
ATOM     15  C   UNL     1      32.887 -10.232 -23.640  0.00  0.00    -0.006 C 
ATOM     16  C   UNL     1      32.931 -12.588 -23.104  0.00  0.00    +0.013 C 
ATOM     17  C   UNL     1      32.001 -12.374 -22.087  0.00  0.00    +0.001 C 
ATOM     18  C   UNL     1      33.374 -11.517 -23.880  0.00  0.00    +0.001 C 
BRANCH  13  19
ATOM     19  C   UNL     1      31.437  -8.644 -22.366  0.00  0.00    -0.050 C 
BRANCH  19  20
ATOM     20  N   UNL     1      31.943  -7.678 -23.338  0.00  0.00    +0.387 N 
ATOM     21  N   UNL     1      32.376  -4.990 -24.311  0.00  0.00    +0.384 N 
ATOM     22  C   UNL     1      30.844  -6.886 -23.907  0.00  0.00    -0.100 C 
ATOM     23  C   UNL     1      32.946  -6.797 -22.726  0.00  0.00    -0.100 C 
ATOM     24  C   UNL     1      31.372  -5.869 -24.924  0.00  0.00    -0.101 C 
ATOM     25  C   UNL     1      33.474  -5.781 -23.745  0.00  0.00    -0.101 C 
ATOM     26  H   UNL     1      32.389  -8.197 -24.095  0.00  0.00    -0.079 HD
ATOM     27  H   UNL     1      31.929  -4.472 -23.553  0.00  0.00    -0.080 HD
BRANCH  21  28
ATOM     28  C   UNL     1      32.880  -4.022 -25.282  0.00  0.00    -0.078 C 
ATOM     29  C   UNL     1      34.087  -4.568 -26.026  0.00  0.00    -0.025 C 
ENDBRANCH  21  28
ENDBRANCH  19  20
ENDBRANCH  13  19
ENDBRANCH   5  16
BRANCH   2  30
ATOM     30  C   UNL     1      36.334 -18.647 -21.477  0.00  0.00    +0.093 C 
ATOM     31  C   UNL     1      37.090 -19.117 -22.717  0.00  0.00    +0.026 C 
BRANCH  30  32
ATOM     32  C   UNL     1      35.354 -19.675 -20.954  0.00  0.00    -0.005 C 
ATOM     33  C   UNL     1      34.004 -19.516 -21.216  0.00  0.00    -0.003 C 
ATOM     34  C   UNL     1      35.827 -20.752 -20.225  0.00  0.00    -0.003 C 
ATOM     35  C   UNL     1      33.100 -20.462 -20.735  0.00  0.00    -0.000 C 
ATOM     36  C   UNL     1      34.924 -21.698 -19.743  0.00  0.00    -0.000 C 
ATOM     37  C   UNL     1      33.560 -21.554 -19.997  0.00  0.00    -0.000 C 
ENDBRANCH  30  32
ENDBRANCH   2  30
TORSDOF 6
ENDMDL
MODEL 3
REMARK VINA RESULT:     -10.7      1.508      2.168
REMARK  Name = 10297043
REMARK  6 active torsions:
REMARK  status: ('A' for Active; 'I' for Inactive)
REMARK    1  A    between atoms: N_2  and  C_30
REMARK    2  A    between atoms: C_5  and  C_16
REMARK    3  A    between atoms: C_13  and  C_19
REMARK    4  A    between atoms: C_19  and  N_20
REMARK    5  A    between atoms: N_21  and  C_28
REMARK    6  A    between atoms: C_30  and  C_32
REMARK                            x       y       z     vdW  Elec       q    Type
REMARK                         _______ _______ _______ _____ _____    ______ ____
ROOT
ATOM      1  N   UNL     1      34.503 -16.677 -24.534  0.00  0.00    -0.301 N 
ATOM      2  N   UNL     1      33.119 -12.486 -23.023  0.00  0.00    -0.319 N 
ATOM      3  N   UNL     1      33.819 -15.128 -26.251  0.00  0.00    -0.233 NA
ATOM      4  N   UNL     1      33.116 -12.974 -25.360  0.00  0.00    -0.233 NA
ATOM      5  C   UNL     1      34.603 -16.668 -23.167  0.00  0.00    +0.046 C 
ATOM      6  C   UNL     1      33.834 -14.661 -23.852  0.00  0.00    +0.131 C 
ATOM      7  C   UNL     1      34.195 -15.430 -22.717  0.00  0.00    +0.003 C 
ATOM      8  C   UNL     1      34.036 -15.465 -24.967  0.00  0.00    +0.117 C 
ATOM      9  C   UNL     1      33.355 -13.373 -24.089  0.00  0.00    +0.113 C 
ATOM     10  C   UNL     1      33.359 -13.864 -26.349  0.00  0.00    +0.252 C 
ATOM     11  H   UNL     1      34.731 -17.439 -25.115  0.00  0.00    +0.153 HD
ATOM     12  H   UNL     1      33.299 -12.796 -22.106  0.00  0.00    +0.148 HD
ENDROOT
BRANCH   5  16
ATOM     13  C   UNL     1      35.961 -20.028 -21.001  0.00  0.00    -0.043 C 
ATOM     14  C   UNL     1      36.857 -19.021 -21.340  0.00  0.00    -0.006 C 
ATOM     15  C   UNL     1      34.623 -19.942 -21.366  0.00  0.00    -0.006 C 
ATOM     16  C   UNL     1      35.067 -17.816 -22.426  0.00  0.00    +0.013 C 
ATOM     17  C   UNL     1      36.407 -17.911 -22.055  0.00  0.00    +0.001 C 
ATOM     18  C   UNL     1      34.175 -18.831 -22.082  0.00  0.00    +0.001 C 
BRANCH  13  19
ATOM     19  C   UNL     1      36.444 -21.224 -20.231  0.00  0.00    -0.050 C 
BRANCH  19  20
ATOM     20  N   UNL     1      35.587 -21.518 -19.084  0.00  0.00    +0.387 N 
ATOM     21  N   UNL     1      34.427 -23.302 -17.128  0.00  0.00    +0.384 N 
ATOM     22  C   UNL     1      34.533 -22.472 -19.453  0.00  0.00    -0.100 C 
ATOM     23  C   UNL     1      36.378 -22.036 -17.961  0.00  0.00    -0.100 C 
ATOM     24  C   UNL     1      33.636 -22.786 -18.252  0.00  0.00    -0.101 C 
ATOM     25  C   UNL     1      35.478 -22.348 -16.760  0.00  0.00    -0.101 C 
ATOM     26  H   UNL     1      35.143 -20.647 -18.791  0.00  0.00    -0.079 HD
ATOM     27  H   UNL     1      34.872 -24.173 -17.422  0.00  0.00    -0.080 HD
BRANCH  21  28
ATOM     28  C   UNL     1      33.570 -23.599 -15.982  0.00  0.00    -0.078 C 
ATOM     29  C   UNL     1      32.101 -23.526 -16.362  0.00  0.00    -0.025 C 
ENDBRANCH  21  28
ENDBRANCH  19  20
ENDBRANCH  13  19
ENDBRANCH   5  16
BRANCH   2  30
ATOM     30  C   UNL     1      32.627 -11.154 -23.210  0.00  0.00    +0.093 C 
ATOM     31  C   UNL     1      33.725 -10.298 -23.837  0.00  0.00    +0.026 C 
BRANCH  30  32
ATOM     32  C   UNL     1      32.114 -10.596 -21.900  0.00  0.00    -0.005 C 
ATOM     33  C   UNL     1      31.668 -11.469 -20.923  0.00  0.00    -0.003 C 
ATOM     34  C   UNL     1      32.101  -9.225 -21.707  0.00  0.00    -0.003 C 
ATOM     35  C   UNL     1      31.194 -10.955 -19.716  0.00  0.00    -0.000 C 
ATOM     36  C   UNL     1      31.628  -8.712 -20.501  0.00  0.00    -0.000 C 
ATOM     37  C   UNL     1      31.174  -9.576 -19.505  0.00  0.00    -0.000 C 
ENDBRANCH  30  32
ENDBRANCH   2  30
TORSDOF 6
ENDMDL
MODEL 4
REMARK VINA RESULT:     -10.3      2.556      4.659
REMARK  Name = 10297043
REMARK  6 active torsions:
REMARK  status: ('A' for Active; 'I' for Inactive)
REMARK    1  A    between atoms: N_2  and  C_30
REMARK    2  A    between atoms: C_5  and  C_16
REMARK    3  A    between atoms: C_13  and  C_19
REMARK    4  A    between atoms: C_19  and  N_20
REMARK    5  A    between atoms: N_21  and  C_28
REMARK    6  A    between atoms: C_30  and  C_32
REMARK                            x       y       z     vdW  Elec       q    Type
REMARK                         _______ _______ _______ _____ _____    ______ ____
ROOT
ATOM      1  N   UNL     1      32.315 -11.789 -21.644  0.00  0.00    -0.301 N 
ATOM      2  N   UNL     1      32.387  -7.992 -24.354  0.00  0.00    -0.319 N 
ATOM      3  N   UNL     1      31.300  -9.818 -20.697  0.00  0.00    -0.233 NA
ATOM      4  N   UNL     1      31.389  -7.894 -22.188  0.00  0.00    -0.233 NA
ATOM      5  C   UNL     1      32.941 -12.121 -22.818  0.00  0.00    +0.046 C 
ATOM      6  C   UNL     1      32.329  -9.951 -22.909  0.00  0.00    +0.131 C 
ATOM      7  C   UNL     1      32.963 -11.001 -23.622  0.00  0.00    +0.003 C 
ATOM      8  C   UNL     1      31.938 -10.473 -21.682  0.00  0.00    +0.117 C 
ATOM      9  C   UNL     1      32.030  -8.609 -23.141  0.00  0.00    +0.113 C 
ATOM     10  C   UNL     1      31.068  -8.534 -21.040  0.00  0.00    +0.252 C 
ATOM     11  H   UNL     1      32.162 -12.402 -20.890  0.00  0.00    +0.153 HD
ATOM     12  H   UNL     1      32.854  -8.529 -25.035  0.00  0.00    +0.148 HD
ENDROOT
BRANCH   5  16
ATOM     13  C   UNL     1      34.436 -16.003 -23.537  0.00  0.00    -0.043 C 
ATOM     14  C   UNL     1      33.797 -15.312 -24.560  0.00  0.00    -0.006 C 
ATOM     15  C   UNL     1      34.589 -15.430 -22.280  0.00  0.00    -0.006 C 
ATOM     16  C   UNL     1      33.452 -13.447 -23.064  0.00  0.00    +0.013 C 
ATOM     17  C   UNL     1      33.304 -14.029 -24.322  0.00  0.00    +0.001 C 
ATOM     18  C   UNL     1      34.095 -14.147 -22.043  0.00  0.00    +0.001 C 
BRANCH  13  19
ATOM     19  C   UNL     1      34.967 -17.385 -23.792  0.00  0.00    -0.050 C 
BRANCH  19  20
ATOM     20  N   UNL     1      35.150 -18.137 -22.553  0.00  0.00    +0.387 N 
ATOM     21  N   UNL     1      35.870 -20.508 -21.063  0.00  0.00    +0.384 N 
ATOM     22  C   UNL     1      34.275 -19.317 -22.527  0.00  0.00    -0.100 C 
ATOM     23  C   UNL     1      36.553 -18.535 -22.386  0.00  0.00    -0.100 C 
ATOM     24  C   UNL     1      34.467 -20.110 -21.230  0.00  0.00    -0.101 C 
ATOM     25  C   UNL     1      36.743 -19.328 -21.088  0.00  0.00    -0.101 C 
ATOM     26  H   UNL     1      34.892 -17.530 -21.775  0.00  0.00    -0.079 HD
ATOM     27  H   UNL     1      36.128 -21.114 -21.842  0.00  0.00    -0.080 HD
BRANCH  21  28
ATOM     28  C   UNL     1      36.052 -21.263 -19.825  0.00  0.00    -0.078 C 
ATOM     29  C   UNL     1      34.768 -21.961 -19.414  0.00  0.00    -0.025 C 
ENDBRANCH  21  28
ENDBRANCH  19  20
ENDBRANCH  13  19
ENDBRANCH   5  16
BRANCH   2  30
ATOM     30  C   UNL     1      32.106  -6.618 -24.644  0.00  0.00    +0.093 C 
ATOM     31  C   UNL     1      30.802  -6.530 -25.434  0.00  0.00    +0.026 C 
BRANCH  30  32
ATOM     32  C   UNL     1      33.277  -5.982 -25.359  0.00  0.00    -0.005 C 
ATOM     33  C   UNL     1      33.091  -4.783 -26.027  0.00  0.00    -0.003 C 
ATOM     34  C   UNL     1      34.510  -6.611 -25.331  0.00  0.00    -0.003 C 
ATOM     35  C   UNL     1      34.171  -4.196 -26.686  0.00  0.00    -0.000 C 
ATOM     36  C   UNL     1      35.589  -6.024 -25.990  0.00  0.00    -0.000 C 
ATOM     37  C   UNL     1      35.420  -4.817 -26.668  0.00  0.00    -0.000 C 
ENDBRANCH  30  32
ENDBRANCH   2  30
TORSDOF 6
ENDMDL
MODEL 5
REMARK VINA RESULT:     -10.3      2.712     12.288
REMARK  Name = 10297043
REMARK  6 active torsions:
REMARK  status: ('A' for Active; 'I' for Inactive)
REMARK    1  A    between atoms: N_2  and  C_30
REMARK    2  A    between atoms: C_5  and  C_16
REMARK    3  A    between atoms: C_13  and  C_19
REMARK    4  A    between atoms: C_19  and  N_20
REMARK    5  A    between atoms: N_21  and  C_28
REMARK    6  A    between atoms: C_30  and  C_32
REMARK                            x       y       z     vdW  Elec       q    Type
REMARK                         _______ _______ _______ _____ _____    ______ ____
ROOT
ATOM      1  N   UNL     1      36.832 -21.192 -18.874  0.00  0.00    -0.301 N 
ATOM      2  N   UNL     1      33.670 -23.370 -16.224  0.00  0.00    -0.319 N 
ATOM      3  N   UNL     1      37.704 -22.309 -16.923  0.00  0.00    -0.233 NA
ATOM      4  N   UNL     1      35.977 -23.413 -15.609  0.00  0.00    -0.233 NA
ATOM      5  C   UNL     1      35.601 -21.010 -19.451  0.00  0.00    +0.046 C 
ATOM      6  C   UNL     1      35.351 -22.246 -17.580  0.00  0.00    +0.131 C 
ATOM      7  C   UNL     1      34.664 -21.653 -18.670  0.00  0.00    +0.003 C 
ATOM      8  C   UNL     1      36.698 -21.941 -17.735  0.00  0.00    +0.117 C 
ATOM      9  C   UNL     1      35.008 -23.011 -16.466  0.00  0.00    +0.113 C 
ATOM     10  C   UNL     1      37.247 -23.041 -15.887  0.00  0.00    +0.252 C 
ATOM     11  H   UNL     1      37.681 -20.839 -19.225  0.00  0.00    +0.153 HD
ATOM     12  H   UNL     1      32.981 -23.068 -16.859  0.00  0.00    +0.148 HD
ENDROOT
BRANCH   5  16
ATOM     13  C   UNL     1      35.105 -18.795 -23.010  0.00  0.00    -0.043 C 
ATOM     14  C   UNL     1      36.347 -18.824 -22.386  0.00  0.00    -0.006 C 
ATOM     15  C   UNL     1      34.025 -19.487 -22.476  0.00  0.00    -0.006 C 
ATOM     16  C   UNL     1      35.431 -20.254 -20.667  0.00  0.00    +0.013 C 
ATOM     17  C   UNL     1      36.510 -19.557 -21.210  0.00  0.00    +0.001 C 
ATOM     18  C   UNL     1      34.189 -20.219 -21.300  0.00  0.00    +0.001 C 
BRANCH  13  19
ATOM     19  C   UNL     1      34.929 -18.006 -24.276  0.00  0.00    -0.050 C 
BRANCH  19  20
ATOM     20  N   UNL     1      34.244 -16.737 -24.038  0.00  0.00    +0.387 N 
ATOM     21  N   UNL     1      34.105 -13.849 -24.030  0.00  0.00    +0.384 N 
ATOM     22  C   UNL     1      34.959 -15.941 -23.030  0.00  0.00    -0.100 C 
ATOM     23  C   UNL     1      34.104 -15.977 -25.286  0.00  0.00    -0.100 C 
ATOM     24  C   UNL     1      34.246 -14.608 -22.781  0.00  0.00    -0.101 C 
ATOM     25  C   UNL     1      33.390 -14.644 -25.035  0.00  0.00    -0.101 C 
ATOM     26  H   UNL     1      33.311 -16.944 -23.680  0.00  0.00    -0.079 HD
ATOM     27  H   UNL     1      35.038 -13.643 -24.388  0.00  0.00    -0.080 HD
BRANCH  21  28
ATOM     28  C   UNL     1      33.423 -12.579 -23.791  0.00  0.00    -0.078 C 
ATOM     29  C   UNL     1      33.945 -11.493 -24.717  0.00  0.00    -0.025 C 
ENDBRANCH  21  28
ENDBRANCH  19  20
ENDBRANCH  13  19
ENDBRANCH   5  16
BRANCH   2  30
ATOM     30  C   UNL     1      33.263 -24.153 -15.096  0.00  0.00    +0.093 C 
ATOM     31  C   UNL     1      34.046 -25.464 -15.087  0.00  0.00    +0.026 C 
BRANCH  30  32
ATOM     32  C   UNL     1      31.763 -24.357 -15.112  0.00  0.00    -0.005 C 
ATOM     33  C   UNL     1      30.987 -23.592 -15.966  0.00  0.00    -0.003 C 
ATOM     34  C   UNL     1      31.200 -25.302 -14.273  0.00  0.00    -0.003 C 
ATOM     35  C   UNL     1      29.605 -23.778 -15.981  0.00  0.00    -0.000 C 
ATOM     36  C   UNL     1      29.818 -25.489 -14.289  0.00  0.00    -0.000 C 
ATOM     37  C   UNL     1      29.021 -24.727 -15.142  0.00  0.00    -0.000 C 
ENDBRANCH  30  32
ENDBRANCH   2  30
TORSDOF 6
ENDMDL
MODEL 6
REMARK VINA RESULT:      -9.8      1.306      2.261
REMARK  Name = 10297043
REMARK  6 active torsions:
REMARK  status: ('A' for Active; 'I' for Inactive)
REMARK    1  A    between atoms: N_2  and  C_30
REMARK    2  A    between atoms: C_5  and  C_16
REMARK    3  A    between atoms: C_13  and  C_19
REMARK    4  A    between atoms: C_19  and  N_20
REMARK    5  A    between atoms: N_21  and  C_28
REMARK    6  A    between atoms: C_30  and  C_32
REMARK                            x       y       z     vdW  Elec       q    Type
REMARK                         _______ _______ _______ _____ _____    ______ ____
ROOT
ATOM      1  N   UNL     1      34.193 -13.851 -25.253  0.00  0.00    -0.301 N 
ATOM      2  N   UNL     1      32.766 -10.127 -22.832  0.00  0.00    -0.319 N 
ATOM      3  N   UNL     1      33.697 -11.889 -26.563  0.00  0.00    -0.233 NA
ATOM      4  N   UNL     1      32.962 -10.003 -25.208  0.00  0.00    -0.233 NA
ATOM      5  C   UNL     1      34.171 -14.194 -23.926  0.00  0.00    +0.046 C 
ATOM      6  C   UNL     1      33.507 -12.048 -24.132  0.00  0.00    +0.131 C 
ATOM      7  C   UNL     1      33.750 -13.095 -23.207  0.00  0.00    +0.003 C 
ATOM      8  C   UNL     1      33.791 -12.549 -25.396  0.00  0.00    +0.117 C 
ATOM      9  C   UNL     1      33.078 -10.723 -24.067  0.00  0.00    +0.113 C 
ATOM     10  C   UNL     1      33.273 -10.622 -26.369  0.00  0.00    +0.252 C 
ATOM     11  H   UNL     1      34.456 -14.448 -25.989  0.00  0.00    +0.153 HD
ATOM     12  H   UNL     1      32.857 -10.667 -22.014  0.00  0.00    +0.148 HD
ENDROOT
BRANCH   5  16
ATOM     13  C   UNL     1      35.258 -18.051 -22.594  0.00  0.00    -0.043 C 
ATOM     14  C   UNL     1      34.989 -17.839 -23.942  0.00  0.00    -0.006 C 
ATOM     15  C   UNL     1      35.172 -17.007 -21.681  0.00  0.00    -0.006 C 
ATOM     16  C   UNL     1      34.542 -15.511 -23.471  0.00  0.00    +0.013 C 
ATOM     17  C   UNL     1      34.631 -16.564 -24.381  0.00  0.00    +0.001 C 
ATOM     18  C   UNL     1      34.814 -15.733 -22.121  0.00  0.00    +0.001 C 
BRANCH  13  19
ATOM     19  C   UNL     1      35.643 -19.423 -22.121  0.00  0.00    -0.050 C 
BRANCH  19  20
ATOM     20  N   UNL     1      34.804 -19.874 -21.013  0.00  0.00    +0.387 N 
ATOM     21  N   UNL     1      33.104 -21.803 -19.691  0.00  0.00    +0.384 N 
ATOM     22  C   UNL     1      33.428 -20.116 -21.467  0.00  0.00    -0.100 C 
ATOM     23  C   UNL     1      35.361 -21.084 -20.396  0.00  0.00    -0.100 C 
ATOM     24  C   UNL     1      32.547 -20.593 -20.308  0.00  0.00    -0.101 C 
ATOM     25  C   UNL     1      34.478 -21.560 -19.236  0.00  0.00    -0.101 C 
ATOM     26  H   UNL     1      34.785 -19.134 -20.311  0.00  0.00    -0.079 HD
ATOM     27  H   UNL     1      33.125 -22.542 -20.394  0.00  0.00    -0.080 HD
BRANCH  21  28
ATOM     28  C   UNL     1      32.264 -22.256 -18.584  0.00  0.00    -0.078 C 
ATOM     29  C   UNL     1      33.047 -23.136 -17.625  0.00  0.00    -0.025 C 
ENDBRANCH  21  28
ENDBRANCH  19  20
ENDBRANCH  13  19
ENDBRANCH   5  16
BRANCH   2  30
ATOM     30  C   UNL     1      32.321  -8.771 -22.709  0.00  0.00    +0.093 C 
ATOM     31  C   UNL     1      30.845  -8.692 -23.095  0.00  0.00    +0.026 C 
BRANCH  30  32
ATOM     32  C   UNL     1      33.200  -7.853 -23.529  0.00  0.00    -0.005 C 
ATOM     33  C   UNL     1      32.614  -6.999 -24.448  0.00  0.00    -0.003 C 
ATOM     34  C   UNL     1      34.571  -7.887 -23.345  0.00  0.00    -0.003 C 
ATOM     35  C   UNL     1      33.423  -6.153 -25.205  0.00  0.00    -0.000 C 
ATOM     36  C   UNL     1      35.381  -7.041 -24.102  0.00  0.00    -0.000 C 
ATOM     37  C   UNL     1      34.808  -6.175 -25.032  0.00  0.00    -0.000 C 
ENDBRANCH  30  32
ENDBRANCH   2  30
TORSDOF 6
ENDMDL
MODEL 7
REMARK VINA RESULT:      -9.6      2.874     11.691
REMARK  Name = 10297043
REMARK  6 active torsions:
REMARK  status: ('A' for Active; 'I' for Inactive)
REMARK    1  A    between atoms: N_2  and  C_30
REMARK    2  A    between atoms: C_5  and  C_16
REMARK    3  A    between atoms: C_13  and  C_19
REMARK    4  A    between atoms: C_19  and  N_20
REMARK    5  A    between atoms: N_21  and  C_28
REMARK    6  A    between atoms: C_30  and  C_32
REMARK                            x       y       z     vdW  Elec       q    Type
REMARK                         _______ _______ _______ _____ _____    ______ ____
ROOT
ATOM      1  N   UNL     1      34.955 -22.092 -18.737  0.00  0.00    -0.301 N 
ATOM      2  N   UNL     1      30.684 -23.011 -17.100  0.00  0.00    -0.319 N 
ATOM      3  N   UNL     1      34.869 -23.557 -16.825  0.00  0.00    -0.233 NA
ATOM      4  N   UNL     1      32.599 -23.974 -16.048  0.00  0.00    -0.233 NA
ATOM      5  C   UNL     1      34.051 -21.419 -19.518  0.00  0.00    +0.046 C 
ATOM      6  C   UNL     1      32.930 -22.557 -17.924  0.00  0.00    +0.131 C 
ATOM      7  C   UNL     1      32.787 -21.689 -19.037  0.00  0.00    +0.003 C 
ATOM      8  C   UNL     1      34.291 -22.788 -17.763  0.00  0.00    +0.117 C 
ATOM      9  C   UNL     1      32.078 -23.186 -17.017  0.00  0.00    +0.113 C 
ATOM     10  C   UNL     1      33.944 -24.108 -16.012  0.00  0.00    +0.252 C 
ATOM     11  H   UNL     1      35.932 -22.076 -18.859  0.00  0.00    +0.153 HD
ATOM     12  H   UNL     1      30.325 -22.434 -17.812  0.00  0.00    +0.148 HD
ENDROOT
BRANCH   5  16
ATOM     13  C   UNL     1      35.258 -19.004 -22.764  0.00  0.00    -0.043 C 
ATOM     14  C   UNL     1      36.198 -19.413 -21.824  0.00  0.00    -0.006 C 
ATOM     15  C   UNL     1      33.926 -19.381 -22.646  0.00  0.00    -0.006 C 
ATOM     16  C   UNL     1      34.463 -20.594 -20.627  0.00  0.00    +0.013 C 
ATOM     17  C   UNL     1      35.798 -20.212 -20.752  0.00  0.00    +0.001 C 
ATOM     18  C   UNL     1      33.527 -20.179 -21.574  0.00  0.00    +0.001 C 
BRANCH  13  19
ATOM     19  C   UNL     1      35.687 -18.144 -23.918  0.00  0.00    -0.050 C 
BRANCH  19  20
ATOM     20  N   UNL     1      35.323 -16.743 -23.720  0.00  0.00    +0.387 N 
ATOM     21  N   UNL     1      33.452 -14.636 -23.073  0.00  0.00    +0.384 N 
ATOM     22  C   UNL     1      34.272 -16.339 -24.664  0.00  0.00    -0.100 C 
ATOM     23  C   UNL     1      34.889 -16.507 -22.338  0.00  0.00    -0.100 C 
ATOM     24  C   UNL     1      33.885 -14.872 -24.456  0.00  0.00    -0.101 C 
ATOM     25  C   UNL     1      34.503 -15.038 -22.131  0.00  0.00    -0.101 C 
ATOM     26  H   UNL     1      36.151 -16.174 -23.899  0.00  0.00    -0.079 HD
ATOM     27  H   UNL     1      32.625 -15.206 -22.894  0.00  0.00    -0.080 HD
BRANCH  21  28
ATOM     28  C   UNL     1      33.085 -13.235 -22.875  0.00  0.00    -0.078 C 
ATOM     29  C   UNL     1      33.642 -12.360 -23.985  0.00  0.00    -0.025 C 
ENDBRANCH  21  28
ENDBRANCH  19  20
ENDBRANCH  13  19
ENDBRANCH   5  16
BRANCH   2  30
ATOM     30  C   UNL     1      29.764 -23.632 -16.196  0.00  0.00    +0.093 C 
ATOM     31  C   UNL     1      29.826 -25.147 -16.381  0.00  0.00    +0.026 C 
BRANCH  30  32
ATOM     32  C   UNL     1      28.375 -23.066 -16.389  0.00  0.00    -0.005 C 
ATOM     33  C   UNL     1      27.650 -22.660 -15.282  0.00  0.00    -0.003 C 
ATOM     34  C   UNL     1      27.857 -22.966 -17.669  0.00  0.00    -0.003 C 
ATOM     35  C   UNL     1      26.369 -22.139 -15.459  0.00  0.00    -0.000 C 
ATOM     36  C   UNL     1      26.576 -22.445 -17.847  0.00  0.00    -0.000 C 
ATOM     37  C   UNL     1      25.832 -22.031 -16.742  0.00  0.00    -0.000 C 
ENDBRANCH  30  32
ENDBRANCH   2  30
TORSDOF 6
ENDMDL
MODEL 8
REMARK VINA RESULT:      -9.2      1.459      2.193
REMARK  Name = 10297043
REMARK  6 active torsions:
REMARK  status: ('A' for Active; 'I' for Inactive)
REMARK    1  A    between atoms: N_2  and  C_30
REMARK    2  A    between atoms: C_5  and  C_16
REMARK    3  A    between atoms: C_13  and  C_19
REMARK    4  A    between atoms: C_19  and  N_20
REMARK    5  A    between atoms: N_21  and  C_28
REMARK    6  A    between atoms: C_30  and  C_32
REMARK                            x       y       z     vdW  Elec       q    Type
REMARK                         _______ _______ _______ _____ _____    ______ ____
ROOT
ATOM      1  N   UNL     1      33.811 -14.587 -26.133  0.00  0.00    -0.301 N 
ATOM      2  N   UNL     1      33.777 -10.461 -23.955  0.00  0.00    -0.319 N 
ATOM      3  N   UNL     1      33.390 -12.673 -27.538  0.00  0.00    -0.233 NA
ATOM      4  N   UNL     1      33.394 -10.572 -26.308  0.00  0.00    -0.233 NA
ATOM      5  C   UNL     1      34.055 -14.811 -24.802  0.00  0.00    +0.046 C 
ATOM      6  C   UNL     1      33.787 -12.594 -25.129  0.00  0.00    +0.131 C 
ATOM      7  C   UNL     1      34.046 -13.593 -24.155  0.00  0.00    +0.003 C 
ATOM      8  C   UNL     1      33.644 -13.244 -26.348  0.00  0.00    +0.117 C 
ATOM      9  C   UNL     1      33.650 -11.206 -25.141  0.00  0.00    +0.113 C 
ATOM     10  C   UNL     1      33.280 -11.334 -27.420  0.00  0.00    +0.252 C 
ATOM     11  H   UNL     1      33.762 -15.284 -26.826  0.00  0.00    +0.153 HD
ATOM     12  H   UNL     1      33.964 -10.942 -23.116  0.00  0.00    +0.148 HD
ENDROOT
BRANCH   5  16
ATOM     13  C   UNL     1      34.677 -18.693 -23.265  0.00  0.00    -0.043 C 
ATOM     14  C   UNL     1      34.053 -18.533 -24.497  0.00  0.00    -0.006 C 
ATOM     15  C   UNL     1      35.099 -17.589 -22.533  0.00  0.00    -0.006 C 
ATOM     16  C   UNL     1      34.268 -16.137 -24.277  0.00  0.00    +0.013 C 
ATOM     17  C   UNL     1      33.849 -17.250 -25.005  0.00  0.00    +0.001 C 
ATOM     18  C   UNL     1      34.893 -16.306 -23.042  0.00  0.00    +0.001 C 
BRANCH  13  19
ATOM     19  C   UNL     1      34.898 -20.074 -22.718  0.00  0.00    -0.050 C 
BRANCH  19  20
ATOM     20  N   UNL     1      35.257 -20.049 -21.301  0.00  0.00    +0.387 N 
ATOM     21  N   UNL     1      36.724 -21.004 -19.000  0.00  0.00    +0.384 N 
ATOM     22  C   UNL     1      34.918 -21.324 -20.656  0.00  0.00    -0.100 C 
ATOM     23  C   UNL     1      36.684 -19.751 -21.130  0.00  0.00    -0.100 C 
ATOM     24  C   UNL     1      35.297 -21.303 -19.171  0.00  0.00    -0.101 C 
ATOM     25  C   UNL     1      37.061 -19.729 -19.644  0.00  0.00    -0.101 C 
ATOM     26  H   UNL     1      34.717 -19.309 -20.853  0.00  0.00    -0.079 HD
ATOM     27  H   UNL     1      37.263 -21.744 -19.450  0.00  0.00    -0.080 HD
BRANCH  21  28
ATOM     28  C   UNL     1      37.083 -20.981 -17.584  0.00  0.00    -0.078 C 
ATOM     29  C   UNL     1      36.692 -22.279 -16.897  0.00  0.00    -0.025 C 
ENDBRANCH  21  28
ENDBRANCH  19  20
ENDBRANCH  13  19
ENDBRANCH   5  16
BRANCH   2  30
ATOM     30  C   UNL     1      33.646  -9.036 -23.910  0.00  0.00    +0.093 C 
ATOM     31  C   UNL     1      35.017  -8.399 -24.131  0.00  0.00    +0.026 C 
BRANCH  30  32
ATOM     32  C   UNL     1      32.995  -8.609 -22.613  0.00  0.00    -0.005 C 
ATOM     33  C   UNL     1      33.413  -7.440 -22.000  0.00  0.00    -0.003 C 
ATOM     34  C   UNL     1      31.997  -9.396 -22.065  0.00  0.00    -0.003 C 
ATOM     35  C   UNL     1      32.815  -7.046 -20.804  0.00  0.00    -0.000 C 
ATOM     36  C   UNL     1      31.398  -9.002 -20.869  0.00  0.00    -0.000 C 
ATOM     37  C   UNL     1      31.807  -7.828 -20.238  0.00  0.00    -0.000 C 
ENDBRANCH  30  32
ENDBRANCH   2  30
TORSDOF 6
ENDMDL
MODEL 9
REMARK VINA RESULT:      -9.1      1.972      3.708
REMARK  Name = 10297043
REMARK  6 active torsions:
REMARK  status: ('A' for Active; 'I' for Inactive)
REMARK    1  A    between atoms: N_2  and  C_30
REMARK    2  A    between atoms: C_5  and  C_16
REMARK    3  A    between atoms: C_13  and  C_19
REMARK    4  A    between atoms: C_19  and  N_20
REMARK    5  A    between atoms: N_21  and  C_28
REMARK    6  A    between atoms: C_30  and  C_32
REMARK                            x       y       z     vdW  Elec       q    Type
REMARK                         _______ _______ _______ _____ _____    ______ ____
ROOT
ATOM      1  N   UNL     1      34.564 -11.753 -25.715  0.00  0.00    -0.301 N 
ATOM      2  N   UNL     1      33.440  -8.486 -22.580  0.00  0.00    -0.319 N 
ATOM      3  N   UNL     1      34.760  -9.473 -26.475  0.00  0.00    -0.233 NA
ATOM      4  N   UNL     1      34.152  -7.847 -24.767  0.00  0.00    -0.233 NA
ATOM      5  C   UNL     1      34.194 -12.389 -24.558  0.00  0.00    +0.046 C 
ATOM      6  C   UNL     1      34.036 -10.160 -24.245  0.00  0.00    +0.131 C 
ATOM      7  C   UNL     1      33.862 -11.426 -23.629  0.00  0.00    +0.003 C 
ATOM      8  C   UNL     1      34.472 -10.397 -25.542  0.00  0.00    +0.117 C 
ATOM      9  C   UNL     1      33.878  -8.826 -23.873  0.00  0.00    +0.113 C 
ATOM     10  C   UNL     1      34.570  -8.226 -25.996  0.00  0.00    +0.252 C 
ATOM     11  H   UNL     1      34.851 -12.202 -26.543  0.00  0.00    +0.153 HD
ATOM     12  H   UNL     1      33.246  -9.213 -21.944  0.00  0.00    +0.148 HD
ENDROOT
BRANCH   5  16
ATOM     13  C   UNL     1      34.176 -16.598 -24.227  0.00  0.00    -0.043 C 
ATOM     14  C   UNL     1      33.796 -16.001 -25.423  0.00  0.00    -0.006 C 
ATOM     15  C   UNL     1      34.563 -15.825 -23.139  0.00  0.00    -0.006 C 
ATOM     16  C   UNL     1      34.189 -13.827 -24.445  0.00  0.00    +0.013 C 
ATOM     17  C   UNL     1      33.803 -14.610 -25.532  0.00  0.00    +0.001 C 
ATOM     18  C   UNL     1      34.569 -14.434 -23.249  0.00  0.00    +0.001 C 
BRANCH  13  19
ATOM     19  C   UNL     1      34.169 -18.095 -24.109  0.00  0.00    -0.050 C 
BRANCH  19  20
ATOM     20  N   UNL     1      34.600 -18.540 -22.785  0.00  0.00    +0.387 N 
ATOM     21  N   UNL     1      35.770 -20.463 -20.970  0.00  0.00    +0.384 N 
ATOM     22  C   UNL     1      33.870 -19.748 -22.379  0.00  0.00    -0.100 C 
ATOM     23  C   UNL     1      36.048 -18.784 -22.762  0.00  0.00    -0.100 C 
ATOM     24  C   UNL     1      34.323 -20.220 -20.993  0.00  0.00    -0.101 C 
ATOM     25  C   UNL     1      36.499 -19.255 -21.375  0.00  0.00    -0.101 C 
ATOM     26  H   UNL     1      34.388 -17.797 -22.119  0.00  0.00    -0.079 HD
ATOM     27  H   UNL     1      35.982 -21.205 -21.638  0.00  0.00    -0.080 HD
BRANCH  21  28
ATOM     28  C   UNL     1      36.201 -20.910 -19.648  0.00  0.00    -0.078 C 
ATOM     29  C   UNL     1      35.319 -22.035 -19.134  0.00  0.00    -0.025 C 
ENDBRANCH  21  28
ENDBRANCH  19  20
ENDBRANCH  13  19
ENDBRANCH   5  16
BRANCH   2  30
ATOM     30  C   UNL     1      33.261  -7.134 -22.146  0.00  0.00    +0.093 C 
ATOM     31  C   UNL     1      32.694  -7.134 -20.728  0.00  0.00    +0.026 C 
BRANCH  30  32
ATOM     32  C   UNL     1      32.398  -6.376 -23.131  0.00  0.00    -0.005 C 
ATOM     33  C   UNL     1      32.841  -5.159 -23.621  0.00  0.00    -0.003 C 
ATOM     34  C   UNL     1      31.184  -6.914 -23.520  0.00  0.00    -0.003 C 
ATOM     35  C   UNL     1      32.046  -4.460 -24.528  0.00  0.00    -0.000 C 
ATOM     36  C   UNL     1      30.389  -6.215 -24.427  0.00  0.00    -0.000 C 
ATOM     37  C   UNL     1      30.819  -4.988 -24.931  0.00  0.00    -0.000 C 
ENDBRANCH  30  32
ENDBRANCH   2  30
TORSDOF 6
ENDMDL
