MODEL 1
REMARK VINA RESULT:     -11.6      0.000      0.000
REMARK  Name = 5287739
REMARK  3 active torsions:
REMARK  status: ('A' for Active; 'I' for Inactive)
REMARK    1  A    between atoms: C_2  and  O_21
REMARK    2  A    between atoms: C_3  and  O_23
REMARK    3  A    between atoms: C_4  and  O_25
REMARK                            x       y       z     vdW  Elec       q    Type
REMARK                         _______ _______ _______ _____ _____    ______ ____
ROOT
ATOM      1  C   UNL     1      35.417 -23.930 -13.826  0.00  0.00    -0.021 C 
ATOM      2  C   UNL     1      37.009 -24.995 -11.622  0.00  0.00    +0.168 C 
ATOM      3  C   UNL     1      37.673 -24.028 -12.605  0.00  0.00    +0.162 C 
ATOM      4  C   UNL     1      35.574 -24.554 -11.347  0.00  0.00    +0.144 C 
ATOM      5  C   UNL     1      34.737 -24.563 -12.625  0.00  0.00    +0.058 C 
ATOM      6  C   UNL     1      36.808 -23.694 -13.803  0.00  0.00    +0.003 C 
ATOM      7  C   UNL     1      34.662 -23.617 -14.997  0.00  0.00    -0.004 C 
ATOM      8  C   UNL     1      35.318 -23.028 -16.109  0.00  0.00    -0.000 C 
ATOM      9  C   UNL     1      36.704 -22.769 -16.061  0.00  0.00    -0.000 C 
ATOM     10  C   UNL     1      37.429 -23.107 -14.915  0.00  0.00    -0.002 C 
ATOM     11  C   UNL     1      34.594 -22.693 -17.288  0.00  0.00    -0.000 C 
ATOM     12  C   UNL     1      33.278 -23.865 -15.121  0.00  0.00    -0.000 C 
ATOM     13  C   UNL     1      33.208 -22.951 -17.368  0.00  0.00    -0.000 C 
ATOM     14  C   UNL     1      35.255 -22.102 -18.392  0.00  0.00    -0.000 C 
ATOM     15  C   UNL     1      37.344 -22.184 -17.162  0.00  0.00    -0.000 C 
ATOM     16  C   UNL     1      32.566 -23.539 -16.278  0.00  0.00    -0.000 C 
ATOM     17  C   UNL     1      36.629 -21.852 -18.312  0.00  0.00    -0.000 C 
ATOM     18  C   UNL     1      32.504 -22.617 -18.533  0.00  0.00    -0.000 C 
ATOM     19  C   UNL     1      34.527 -21.777 -19.545  0.00  0.00    -0.000 C 
ATOM     20  C   UNL     1      33.160 -22.033 -19.614  0.00  0.00    +0.000 C 
ENDROOT
BRANCH   2  21
ATOM     21  O   UNL     1      37.011 -26.314 -12.169  0.00  0.00    -0.379 OA
ATOM     22  H   UNL     1      36.097 -26.627 -12.257  0.00  0.00    +0.211 HD
ENDBRANCH   2  21
BRANCH   3  23
ATOM     23  O   UNL     1      37.973 -22.803 -11.937  0.00  0.00    -0.377 OA
ATOM     24  H   UNL     1      38.473 -22.225 -12.534  0.00  0.00    +0.211 HD
ENDBRANCH   3  23
BRANCH   4  25
ATOM     25  O   UNL     1      34.967 -25.427 -10.399  0.00  0.00    -0.382 OA
ATOM     26  H   UNL     1      35.623 -25.693  -9.736  0.00  0.00    +0.210 HD
ENDBRANCH   4  25
TORSDOF 3
ENDMDL
MODEL 2
REMARK VINA RESULT:     -10.9      0.913      3.143
REMARK  Name = 5287739
REMARK  3 active torsions:
REMARK  status: ('A' for Active; 'I' for Inactive)
REMARK    1  A    between atoms: C_2  and  O_21
REMARK    2  A    between atoms: C_3  and  O_23
REMARK    3  A    between atoms: C_4  and  O_25
REMARK                            x       y       z     vdW  Elec       q    Type
REMARK                         _______ _______ _______ _____ _____    ______ ____
ROOT
ATOM      1  C   UNL     1      36.310 -23.322 -14.263  0.00  0.00    -0.021 C 
ATOM      2  C   UNL     1      36.672 -23.760 -11.399  0.00  0.00    +0.168 C 
ATOM      3  C   UNL     1      35.385 -24.260 -12.059  0.00  0.00    +0.162 C 
ATOM      4  C   UNL     1      37.858 -23.984 -12.333  0.00  0.00    +0.144 C 
ATOM      5  C   UNL     1      37.689 -23.209 -13.639  0.00  0.00    +0.058 C 
ATOM      6  C   UNL     1      35.230 -23.812 -13.498  0.00  0.00    +0.003 C 
ATOM      7  C   UNL     1      36.091 -22.891 -15.607  0.00  0.00    -0.004 C 
ATOM      8  C   UNL     1      34.794 -23.003 -16.170  0.00  0.00    -0.000 C 
ATOM      9  C   UNL     1      33.729 -23.523 -15.403  0.00  0.00    -0.000 C 
ATOM     10  C   UNL     1      33.959 -23.916 -14.082  0.00  0.00    -0.002 C 
ATOM     11  C   UNL     1      34.543 -22.592 -17.510  0.00  0.00    -0.000 C 
ATOM     12  C   UNL     1      37.105 -22.345 -16.424  0.00  0.00    -0.000 C 
ATOM     13  C   UNL     1      35.587 -22.058 -18.296  0.00  0.00    -0.000 C 
ATOM     14  C   UNL     1      33.246 -22.712 -18.065  0.00  0.00    -0.000 C 
ATOM     15  C   UNL     1      32.451 -23.635 -15.968  0.00  0.00    -0.000 C 
ATOM     16  C   UNL     1      36.861 -21.938 -17.738  0.00  0.00    -0.000 C 
ATOM     17  C   UNL     1      32.213 -23.237 -17.282  0.00  0.00    -0.000 C 
ATOM     18  C   UNL     1      35.330 -21.657 -19.615  0.00  0.00    -0.000 C 
ATOM     19  C   UNL     1      33.017 -22.304 -19.387  0.00  0.00    -0.000 C 
ATOM     20  C   UNL     1      34.053 -21.780 -20.156  0.00  0.00    +0.000 C 
ENDROOT
BRANCH   2  21
ATOM     21  O   UNL     1      36.551 -22.369 -11.101  0.00  0.00    -0.379 OA
ATOM     22  H   UNL     1      37.330 -22.077 -10.604  0.00  0.00    +0.211 HD
ENDBRANCH   2  21
BRANCH   3  23
ATOM     23  O   UNL     1      35.370 -25.687 -12.051  0.00  0.00    -0.377 OA
ATOM     24  H   UNL     1      35.260 -26.013 -12.958  0.00  0.00    +0.211 HD
ENDBRANCH   3  23
BRANCH   4  25
ATOM     25  O   UNL     1      39.064 -23.560 -11.705  0.00  0.00    -0.382 OA
ATOM     26  H   UNL     1      38.926 -23.498 -10.747  0.00  0.00    +0.210 HD
ENDBRANCH   4  25
TORSDOF 3
ENDMDL
MODEL 3
REMARK VINA RESULT:     -10.3      3.053      4.984
REMARK  Name = 5287739
REMARK  3 active torsions:
REMARK  status: ('A' for Active; 'I' for Inactive)
REMARK    1  A    between atoms: C_2  and  O_21
REMARK    2  A    between atoms: C_3  and  O_23
REMARK    3  A    between atoms: C_4  and  O_25
REMARK                            x       y       z     vdW  Elec       q    Type
REMARK                         _______ _______ _______ _____ _____    ______ ____
ROOT
ATOM      1  C   UNL     1      31.517 -23.819 -15.835  0.00  0.00    -0.021 C 
ATOM      2  C   UNL     1      29.549 -25.283 -14.251  0.00  0.00    +0.168 C 
ATOM      3  C   UNL     1      30.849 -24.841 -13.576  0.00  0.00    +0.162 C 
ATOM      4  C   UNL     1      29.063 -24.197 -15.207  0.00  0.00    +0.144 C 
ATOM      5  C   UNL     1      30.082 -23.939 -16.316  0.00  0.00    +0.058 C 
ATOM      6  C   UNL     1      31.863 -24.260 -14.540  0.00  0.00    +0.003 C 
ATOM      7  C   UNL     1      32.527 -23.305 -16.704  0.00  0.00    -0.004 C 
ATOM      8  C   UNL     1      33.862 -23.203 -16.235  0.00  0.00    -0.000 C 
ATOM      9  C   UNL     1      34.189 -23.620 -14.927  0.00  0.00    -0.000 C 
ATOM     10  C   UNL     1      33.191 -24.144 -14.101  0.00  0.00    -0.002 C 
ATOM     11  C   UNL     1      34.891 -22.687 -17.071  0.00  0.00    -0.000 C 
ATOM     12  C   UNL     1      32.275 -22.887 -18.029  0.00  0.00    -0.000 C 
ATOM     13  C   UNL     1      34.594 -22.273 -18.389  0.00  0.00    -0.000 C 
ATOM     14  C   UNL     1      36.220 -22.584 -16.594  0.00  0.00    -0.000 C 
ATOM     15  C   UNL     1      35.509 -23.513 -14.469  0.00  0.00    -0.000 C 
ATOM     16  C   UNL     1      33.283 -22.382 -18.853  0.00  0.00    -0.000 C 
ATOM     17  C   UNL     1      36.512 -23.000 -15.290  0.00  0.00    -0.000 C 
ATOM     18  C   UNL     1      35.615 -21.764 -19.204  0.00  0.00    -0.000 C 
ATOM     19  C   UNL     1      37.221 -22.072 -17.431  0.00  0.00    -0.000 C 
ATOM     20  C   UNL     1      36.919 -21.664 -18.728  0.00  0.00    +0.000 C 
ENDROOT
BRANCH   2  21
ATOM     21  O   UNL     1      29.769 -26.496 -14.972  0.00  0.00    -0.379 OA
ATOM     22  H   UNL     1      29.958 -26.289 -15.900  0.00  0.00    +0.211 HD
ENDBRANCH   2  21
BRANCH   3  23
ATOM     23  O   UNL     1      30.561 -23.839 -12.601  0.00  0.00    -0.377 OA
ATOM     24  H   UNL     1      30.957 -24.093 -11.752  0.00  0.00    +0.211 HD
ENDBRANCH   3  23
BRANCH   4  25
ATOM     25  O   UNL     1      27.830 -24.587 -15.805  0.00  0.00    -0.382 OA
ATOM     26  H   UNL     1      27.147 -23.931 -15.596  0.00  0.00    +0.210 HD
ENDBRANCH   4  25
TORSDOF 3
ENDMDL
MODEL 4
REMARK VINA RESULT:      -9.9      1.566      3.818
REMARK  Name = 5287739
REMARK  3 active torsions:
REMARK  status: ('A' for Active; 'I' for Inactive)
REMARK    1  A    between atoms: C_2  and  O_21
REMARK    2  A    between atoms: C_3  and  O_23
REMARK    3  A    between atoms: C_4  and  O_25
REMARK                            x       y       z     vdW  Elec       q    Type
REMARK                         _______ _______ _______ _____ _____    ______ ____
ROOT
ATOM      1  C   UNL     1      36.182 -23.335 -16.304  0.00  0.00    -0.021 C 
ATOM      2  C   UNL     1      36.669 -24.546 -13.692  0.00  0.00    +0.168 C 
ATOM      3  C   UNL     1      35.303 -24.750 -14.350  0.00  0.00    +0.162 C 
ATOM      4  C   UNL     1      37.770 -24.606 -14.748  0.00  0.00    +0.144 C 
ATOM      5  C   UNL     1      37.600 -23.501 -15.788  0.00  0.00    +0.058 C 
ATOM      6  C   UNL     1      35.107 -23.924 -15.605  0.00  0.00    +0.003 C 
ATOM      7  C   UNL     1      35.927 -22.545 -17.466  0.00  0.00    -0.004 C 
ATOM      8  C   UNL     1      34.593 -22.401 -17.929  0.00  0.00    -0.000 C 
ATOM      9  C   UNL     1      33.530 -23.021 -17.238  0.00  0.00    -0.000 C 
ATOM     10  C   UNL     1      33.799 -23.768 -16.088  0.00  0.00    -0.002 C 
ATOM     11  C   UNL     1      34.304 -21.630 -19.090  0.00  0.00    -0.000 C 
ATOM     12  C   UNL     1      36.938 -21.883 -18.195  0.00  0.00    -0.000 C 
ATOM     13  C   UNL     1      35.347 -20.990 -19.795  0.00  0.00    -0.000 C 
ATOM     14  C   UNL     1      32.971 -21.496 -19.548  0.00  0.00    -0.000 C 
ATOM     15  C   UNL     1      32.217 -22.878 -17.703  0.00  0.00    -0.000 C 
ATOM     16  C   UNL     1      36.657 -21.124 -19.333  0.00  0.00    -0.000 C 
ATOM     17  C   UNL     1      31.940 -22.126 -18.845  0.00  0.00    -0.000 C 
ATOM     18  C   UNL     1      35.052 -20.233 -20.938  0.00  0.00    -0.000 C 
ATOM     19  C   UNL     1      32.705 -20.733 -20.694  0.00  0.00    -0.000 C 
ATOM     20  C   UNL     1      33.740 -20.107 -21.384  0.00  0.00    +0.000 C 
ENDROOT
BRANCH   2  21
ATOM     21  O   UNL     1      36.703 -23.280 -13.034  0.00  0.00    -0.379 OA
ATOM     22  H   UNL     1      36.080 -22.675 -13.465  0.00  0.00    +0.211 HD
ENDBRANCH   2  21
BRANCH   3  23
ATOM     23  O   UNL     1      35.149 -26.121 -14.711  0.00  0.00    -0.377 OA
ATOM     24  H   UNL     1      35.329 -26.681 -13.939  0.00  0.00    +0.211 HD
ENDBRANCH   3  23
BRANCH   4  25
ATOM     25  O   UNL     1      39.047 -24.461 -14.133  0.00  0.00    -0.382 OA
ATOM     26  H   UNL     1      39.358 -25.325 -13.823  0.00  0.00    +0.210 HD
ENDBRANCH   4  25
TORSDOF 3
ENDMDL
MODEL 5
REMARK VINA RESULT:      -9.8      1.281      3.359
REMARK  Name = 5287739
REMARK  3 active torsions:
REMARK  status: ('A' for Active; 'I' for Inactive)
REMARK    1  A    between atoms: C_2  and  O_21
REMARK    2  A    between atoms: C_3  and  O_23
REMARK    3  A    between atoms: C_4  and  O_25
REMARK                            x       y       z     vdW  Elec       q    Type
REMARK                         _______ _______ _______ _____ _____    ______ ____
ROOT
ATOM      1  C   UNL     1      36.715 -23.878 -15.376  0.00  0.00    -0.021 C 
ATOM      2  C   UNL     1      37.654 -24.904 -12.808  0.00  0.00    +0.168 C 
ATOM      3  C   UNL     1      36.230 -25.241 -13.254  0.00  0.00    +0.162 C 
ATOM      4  C   UNL     1      38.598 -24.945 -14.006  0.00  0.00    +0.144 C 
ATOM      5  C   UNL     1      38.200 -23.913 -15.061  0.00  0.00    +0.058 C 
ATOM      6  C   UNL     1      35.797 -24.502 -14.505  0.00  0.00    +0.003 C 
ATOM      7  C   UNL     1      36.240 -23.175 -16.524  0.00  0.00    -0.004 C 
ATOM      8  C   UNL     1      34.848 -23.152 -16.798  0.00  0.00    -0.000 C 
ATOM      9  C   UNL     1      33.943 -23.807 -15.935  0.00  0.00    -0.000 C 
ATOM     10  C   UNL     1      34.427 -24.468 -14.803  0.00  0.00    -0.002 C 
ATOM     11  C   UNL     1      34.341 -22.470 -17.939  0.00  0.00    -0.000 C 
ATOM     12  C   UNL     1      37.085 -22.484 -17.419  0.00  0.00    -0.000 C 
ATOM     13  C   UNL     1      35.222 -21.797 -18.814  0.00  0.00    -0.000 C 
ATOM     14  C   UNL     1      32.951 -22.456 -18.208  0.00  0.00    -0.000 C 
ATOM     15  C   UNL     1      32.570 -23.784 -16.214  0.00  0.00    -0.000 C 
ATOM     16  C   UNL     1      36.590 -21.811 -18.538  0.00  0.00    -0.000 C 
ATOM     17  C   UNL     1      32.080 -23.119 -17.337  0.00  0.00    -0.000 C 
ATOM     18  C   UNL     1      34.713 -21.128 -19.936  0.00  0.00    -0.000 C 
ATOM     19  C   UNL     1      32.469 -21.780 -19.338  0.00  0.00    -0.000 C 
ATOM     20  C   UNL     1      33.345 -21.121 -20.196  0.00  0.00    +0.000 C 
ENDROOT
BRANCH   2  21
ATOM     21  O   UNL     1      37.679 -23.604 -12.219  0.00  0.00    -0.379 OA
ATOM     22  H   UNL     1      38.576 -23.241 -12.277  0.00  0.00    +0.211 HD
ENDBRANCH   2  21
BRANCH   3  23
ATOM     23  O   UNL     1      36.135 -26.638 -13.528  0.00  0.00    -0.377 OA
ATOM     24  H   UNL     1      37.015 -26.985 -13.742  0.00  0.00    +0.211 HD
ENDBRANCH   3  23
BRANCH   4  25
ATOM     25  O   UNL     1      39.933 -24.674 -13.587  0.00  0.00    -0.382 OA
ATOM     26  H   UNL     1      39.957 -23.834 -13.104  0.00  0.00    +0.210 HD
ENDBRANCH   4  25
TORSDOF 3
ENDMDL
MODEL 6
REMARK VINA RESULT:      -9.7      2.050      3.582
REMARK  Name = 5287739
REMARK  3 active torsions:
REMARK  status: ('A' for Active; 'I' for Inactive)
REMARK    1  A    between atoms: C_2  and  O_21
REMARK    2  A    between atoms: C_3  and  O_23
REMARK    3  A    between atoms: C_4  and  O_25
REMARK                            x       y       z     vdW  Elec       q    Type
REMARK                         _______ _______ _______ _____ _____    ______ ____
ROOT
ATOM      1  C   UNL     1      34.810 -24.556 -14.285  0.00  0.00    -0.021 C 
ATOM      2  C   UNL     1      37.682 -25.086 -14.277  0.00  0.00    +0.168 C 
ATOM      3  C   UNL     1      37.126 -24.079 -15.286  0.00  0.00    +0.162 C 
ATOM      4  C   UNL     1      36.957 -24.938 -12.942  0.00  0.00    +0.144 C 
ATOM      5  C   UNL     1      35.463 -25.223 -13.089  0.00  0.00    +0.058 C 
ATOM      6  C   UNL     1      35.612 -24.030 -15.320  0.00  0.00    +0.003 C 
ATOM      7  C   UNL     1      33.387 -24.501 -14.391  0.00  0.00    -0.004 C 
ATOM      8  C   UNL     1      32.798 -23.875 -15.520  0.00  0.00    -0.000 C 
ATOM      9  C   UNL     1      33.612 -23.325 -16.533  0.00  0.00    -0.000 C 
ATOM     10  C   UNL     1      35.003 -23.412 -16.423  0.00  0.00    -0.002 C 
ATOM     11  C   UNL     1      31.383 -23.793 -15.652  0.00  0.00    -0.000 C 
ATOM     12  C   UNL     1      32.513 -25.045 -13.425  0.00  0.00    -0.000 C 
ATOM     13  C   UNL     1      30.544 -24.344 -14.659  0.00  0.00    -0.000 C 
ATOM     14  C   UNL     1      30.803 -23.162 -16.779  0.00  0.00    -0.000 C 
ATOM     15  C   UNL     1      33.023 -22.705 -17.643  0.00  0.00    -0.000 C 
ATOM     16  C   UNL     1      31.124 -24.969 -13.554  0.00  0.00    -0.000 C 
ATOM     17  C   UNL     1      31.637 -22.622 -17.764  0.00  0.00    -0.000 C 
ATOM     18  C   UNL     1      29.152 -24.258 -14.797  0.00  0.00    -0.000 C 
ATOM     19  C   UNL     1      29.407 -23.090 -16.893  0.00  0.00    -0.000 C 
ATOM     20  C   UNL     1      28.588 -23.634 -15.907  0.00  0.00    +0.000 C 
ENDROOT
BRANCH   2  21
ATOM     21  O   UNL     1      37.509 -26.412 -14.774  0.00  0.00    -0.379 OA
ATOM     22  H   UNL     1      36.681 -26.781 -14.429  0.00  0.00    +0.211 HD
ENDBRANCH   2  21
BRANCH   3  23
ATOM     23  O   UNL     1      37.590 -22.771 -14.958  0.00  0.00    -0.377 OA
ATOM     24  H   UNL     1      38.460 -22.834 -14.533  0.00  0.00    +0.211 HD
ENDBRANCH   3  23
BRANCH   4  25
ATOM     25  O   UNL     1      37.501 -25.844 -11.986  0.00  0.00    -0.382 OA
ATOM     26  H   UNL     1      37.988 -25.348 -11.311  0.00  0.00    +0.210 HD
ENDBRANCH   4  25
TORSDOF 3
ENDMDL
MODEL 7
REMARK VINA RESULT:      -9.6      2.102      4.455
REMARK  Name = 5287739
REMARK  3 active torsions:
REMARK  status: ('A' for Active; 'I' for Inactive)
REMARK    1  A    between atoms: C_2  and  O_21
REMARK    2  A    between atoms: C_3  and  O_23
REMARK    3  A    between atoms: C_4  and  O_25
REMARK                            x       y       z     vdW  Elec       q    Type
REMARK                         _______ _______ _______ _____ _____    ______ ____
ROOT
ATOM      1  C   UNL     1      35.041 -24.082 -15.070  0.00  0.00    -0.021 C 
ATOM      2  C   UNL     1      37.567 -24.354 -13.630  0.00  0.00    +0.168 C 
ATOM      3  C   UNL     1      36.315 -25.007 -13.041  0.00  0.00    +0.162 C 
ATOM      4  C   UNL     1      37.567 -24.503 -15.149  0.00  0.00    +0.144 C 
ATOM      5  C   UNL     1      36.358 -23.807 -15.773  0.00  0.00    +0.058 C 
ATOM      6  C   UNL     1      35.040 -24.641 -13.774  0.00  0.00    +0.003 C 
ATOM      7  C   UNL     1      33.805 -23.735 -15.695  0.00  0.00    -0.004 C 
ATOM      8  C   UNL     1      32.586 -23.999 -15.019  0.00  0.00    -0.000 C 
ATOM      9  C   UNL     1      32.599 -24.585 -13.735  0.00  0.00    -0.000 C 
ATOM     10  C   UNL     1      33.820 -24.895 -13.131  0.00  0.00    -0.002 C 
ATOM     11  C   UNL     1      31.336 -23.674 -15.617  0.00  0.00    -0.000 C 
ATOM     12  C   UNL     1      33.720 -23.129 -16.968  0.00  0.00    -0.000 C 
ATOM     13  C   UNL     1      31.295 -23.076 -16.895  0.00  0.00    -0.000 C 
ATOM     14  C   UNL     1      30.124 -23.946 -14.937  0.00  0.00    -0.000 C 
ATOM     15  C   UNL     1      31.391 -24.847 -13.075  0.00  0.00    -0.000 C 
ATOM     16  C   UNL     1      32.494 -22.808 -17.556  0.00  0.00    -0.000 C 
ATOM     17  C   UNL     1      30.169 -24.533 -13.668  0.00  0.00    -0.000 C 
ATOM     18  C   UNL     1      30.058 -22.762 -17.477  0.00  0.00    -0.000 C 
ATOM     19  C   UNL     1      28.901 -23.621 -15.541  0.00  0.00    -0.000 C 
ATOM     20  C   UNL     1      28.870 -23.033 -16.804  0.00  0.00    +0.000 C 
ENDROOT
BRANCH   2  21
ATOM     21  O   UNL     1      37.598 -22.970 -13.283  0.00  0.00    -0.379 OA
ATOM     22  H   UNL     1      37.597 -22.880 -12.317  0.00  0.00    +0.211 HD
ENDBRANCH   2  21
BRANCH   3  23
ATOM     23  O   UNL     1      36.448 -26.427 -13.096  0.00  0.00    -0.377 OA
ATOM     24  H   UNL     1      37.199 -26.658 -13.665  0.00  0.00    +0.211 HD
ENDBRANCH   3  23
BRANCH   4  25
ATOM     25  O   UNL     1      38.752 -23.935 -15.698  0.00  0.00    -0.382 OA
ATOM     26  H   UNL     1      38.518 -23.335 -16.424  0.00  0.00    +0.210 HD
ENDBRANCH   4  25
TORSDOF 3
ENDMDL
MODEL 8
REMARK VINA RESULT:      -9.1      1.481      3.693
REMARK  Name = 5287739
REMARK  3 active torsions:
REMARK  status: ('A' for Active; 'I' for Inactive)
REMARK    1  A    between atoms: C_2  and  O_21
REMARK    2  A    between atoms: C_3  and  O_23
REMARK    3  A    between atoms: C_4  and  O_25
REMARK                            x       y       z     vdW  Elec       q    Type
REMARK                         _______ _______ _______ _____ _____    ______ ____
ROOT
ATOM      1  C   UNL     1      34.965 -23.669 -15.363  0.00  0.00    -0.021 C 
ATOM      2  C   UNL     1      33.991 -24.692 -12.808  0.00  0.00    +0.168 C 
ATOM      3  C   UNL     1      33.024 -24.642 -13.993  0.00  0.00    +0.162 C 
ATOM      4  C   UNL     1      35.379 -25.109 -13.286  0.00  0.00    +0.144 C 
ATOM      5  C   UNL     1      35.944 -24.104 -14.288  0.00  0.00    +0.058 C 
ATOM      6  C   UNL     1      33.586 -23.922 -15.202  0.00  0.00    +0.003 C 
ATOM      7  C   UNL     1      35.428 -22.962 -16.515  0.00  0.00    -0.004 C 
ATOM      8  C   UNL     1      34.495 -22.563 -17.507  0.00  0.00    -0.000 C 
ATOM      9  C   UNL     1      33.122 -22.850 -17.347  0.00  0.00    -0.000 C 
ATOM     10  C   UNL     1      32.687 -23.520 -16.201  0.00  0.00    -0.002 C 
ATOM     11  C   UNL     1      34.923 -21.866 -18.672  0.00  0.00    -0.000 C 
ATOM     12  C   UNL     1      36.782 -22.626 -16.730  0.00  0.00    -0.000 C 
ATOM     13  C   UNL     1      36.289 -21.557 -18.852  0.00  0.00    -0.000 C 
ATOM     14  C   UNL     1      33.986 -21.476 -19.659  0.00  0.00    -0.000 C 
ATOM     15  C   UNL     1      32.207 -22.456 -18.332  0.00  0.00    -0.000 C 
ATOM     16  C   UNL     1      37.205 -21.941 -17.871  0.00  0.00    -0.000 C 
ATOM     17  C   UNL     1      32.633 -21.780 -19.475  0.00  0.00    -0.000 C 
ATOM     18  C   UNL     1      36.701 -20.871 -20.003  0.00  0.00    -0.000 C 
ATOM     19  C   UNL     1      34.425 -20.791 -20.801  0.00  0.00    -0.000 C 
ATOM     20  C   UNL     1      35.774 -20.492 -20.971  0.00  0.00    +0.000 C 
ENDROOT
BRANCH   2  21
ATOM     21  O   UNL     1      34.061 -23.408 -12.188  0.00  0.00    -0.379 OA
ATOM     22  H   UNL     1      34.922 -23.006 -12.376  0.00  0.00    +0.211 HD
ENDBRANCH   2  21
BRANCH   3  23
ATOM     23  O   UNL     1      32.698 -25.970 -14.398  0.00  0.00    -0.377 OA
ATOM     24  H   UNL     1      33.380 -26.581 -14.078  0.00  0.00    +0.211 HD
ENDBRANCH   3  23
BRANCH   4  25
ATOM     25  O   UNL     1      36.272 -25.199 -12.180  0.00  0.00    -0.382 OA
ATOM     26  H   UNL     1      37.080 -24.700 -12.374  0.00  0.00    +0.210 HD
ENDBRANCH   4  25
TORSDOF 3
ENDMDL
MODEL 9
REMARK VINA RESULT:      -9.1      2.001      3.261
REMARK  Name = 5287739
REMARK  3 active torsions:
REMARK  status: ('A' for Active; 'I' for Inactive)
REMARK    1  A    between atoms: C_2  and  O_21
REMARK    2  A    between atoms: C_3  and  O_23
REMARK    3  A    between atoms: C_4  and  O_25
REMARK                            x       y       z     vdW  Elec       q    Type
REMARK                         _______ _______ _______ _____ _____    ______ ____
ROOT
ATOM      1  C   UNL     1      34.526 -23.147 -16.838  0.00  0.00    -0.021 C 
ATOM      2  C   UNL     1      35.563 -24.952 -14.790  0.00  0.00    +0.168 C 
ATOM      3  C   UNL     1      36.505 -23.906 -15.389  0.00  0.00    +0.162 C 
ATOM      4  C   UNL     1      34.170 -24.355 -14.607  0.00  0.00    +0.144 C 
ATOM      5  C   UNL     1      33.573 -23.923 -15.946  0.00  0.00    +0.058 C 
ATOM      6  C   UNL     1      35.910 -23.159 -16.565  0.00  0.00    +0.003 C 
ATOM      7  C   UNL     1      34.032 -22.445 -17.979  0.00  0.00    -0.004 C 
ATOM      8  C   UNL     1      34.940 -21.729 -18.801  0.00  0.00    -0.000 C 
ATOM      9  C   UNL     1      36.319 -21.725 -18.500  0.00  0.00    -0.000 C 
ATOM     10  C   UNL     1      36.785 -22.439 -17.393  0.00  0.00    -0.002 C 
ATOM     11  C   UNL     1      34.481 -21.010 -19.940  0.00  0.00    -0.000 C 
ATOM     12  C   UNL     1      32.670 -22.423 -18.350  0.00  0.00    -0.000 C 
ATOM     13  C   UNL     1      33.108 -21.007 -20.272  0.00  0.00    -0.000 C 
ATOM     14  C   UNL     1      35.393 -20.295 -20.752  0.00  0.00    -0.000 C 
ATOM     15  C   UNL     1      37.210 -21.012 -19.313  0.00  0.00    -0.000 C 
ATOM     16  C   UNL     1      32.217 -21.720 -19.469  0.00  0.00    -0.000 C 
ATOM     17  C   UNL     1      36.753 -20.304 -20.425  0.00  0.00    -0.000 C 
ATOM     18  C   UNL     1      32.665 -20.295 -21.396  0.00  0.00    -0.000 C 
ATOM     19  C   UNL     1      34.923 -19.591 -21.871  0.00  0.00    -0.000 C 
ATOM     20  C   UNL     1      33.568 -19.591 -22.189  0.00  0.00    +0.000 C 
ENDROOT
BRANCH   2  21
ATOM     21  O   UNL     1      35.491 -26.086 -15.654  0.00  0.00    -0.379 OA
ATOM     22  H   UNL     1      35.459 -26.895 -15.122  0.00  0.00    +0.211 HD
ENDBRANCH   2  21
BRANCH   3  23
ATOM     23  O   UNL     1      36.838 -22.940 -14.393  0.00  0.00    -0.377 OA
ATOM     24  H   UNL     1      36.847 -23.366 -13.521  0.00  0.00    +0.211 HD
ENDBRANCH   3  23
BRANCH   4  25
ATOM     25  O   UNL     1      33.301 -25.312 -14.010  0.00  0.00    -0.382 OA
ATOM     26  H   UNL     1      33.380 -25.264 -13.044  0.00  0.00    +0.210 HD
ENDBRANCH   4  25
TORSDOF 3
ENDMDL
