MODEL 1
REMARK VINA RESULT:     -12.1      0.000      0.000
REMARK  Name = 9826451
REMARK  9 active torsions:
REMARK  status: ('A' for Active; 'I' for Inactive)
REMARK    1  A    between atoms: C_1  and  N_2
REMARK    2  A    between atoms: C_1  and  C_19
REMARK    3  A    between atoms: C_8  and  O_10
REMARK    4  A    between atoms: O_10  and  C_11
REMARK    5  A    between atoms: C_14  and  O_17
REMARK    6  A    between atoms: C_19  and  O_20
REMARK    7  A    between atoms: O_20  and  C_24
REMARK    8  A    between atoms: C_21  and  C_27
REMARK    9  A    between atoms: C_27  and  C_32
REMARK                            x       y       z     vdW  Elec       q    Type
REMARK                         _______ _______ _______ _____ _____    ______ ____
ROOT
ATOM      1  C   UNL     1      35.866 -22.035 -18.059  0.00  0.00    +0.139 C 
ENDROOT
BRANCH   1   2
ATOM      2  N   UNL     1      34.709 -22.726 -17.540  0.00  0.00    -0.291 N 
ATOM      3  C   UNL     1      33.562 -22.932 -18.425  0.00  0.00    +0.113 C 
ATOM      4  N   UNL     1      35.736 -22.982 -15.421  0.00  0.00    -0.233 NA
ATOM      5  N   UNL     1      34.545 -24.091 -13.644  0.00  0.00    -0.214 NA
ATOM      6  C   UNL     1      34.665 -23.184 -16.217  0.00  0.00    +0.115 C 
ATOM      7  C   UNL     1      33.513 -23.823 -15.803  0.00  0.00    +0.146 C 
ATOM      8  C   UNL     1      33.510 -24.259 -14.493  0.00  0.00    +0.210 C 
ATOM      9  C   UNL     1      35.609 -23.453 -14.166  0.00  0.00    +0.254 C 
BRANCH   8  10
ATOM     10  O   UNL     1      32.403 -24.903 -14.007  0.00  0.00    -0.440 OA
BRANCH  10  11
ATOM     11  C   UNL     1      31.175 -24.522 -14.510  0.00  0.00    +0.147 C 
ATOM     12  C   UNL     1      30.858 -23.169 -14.628  0.00  0.00    +0.041 C 
ATOM     13  C   UNL     1      30.251 -25.492 -14.902  0.00  0.00    +0.041 C 
ATOM     14  C   UNL     1      28.694 -23.753 -15.527  0.00  0.00    +0.139 C 
ATOM     15  C   UNL     1      29.618 -22.784 -15.136  0.00  0.00    +0.040 C 
ATOM     16  C   UNL     1      29.011 -25.107 -15.411  0.00  0.00    +0.040 C 
BRANCH  14  17
ATOM     17  O   UNL     1      27.484 -23.378 -16.025  0.00  0.00    -0.471 OA
ATOM     18  C   UNL     1      27.449 -22.923 -17.377  0.00  0.00    +0.252 C 
ENDBRANCH  14  17
ENDBRANCH  10  11
ENDBRANCH   8  10
ENDBRANCH   1   2
BRANCH   1  19
ATOM     19  C   UNL     1      35.676 -21.739 -19.537  0.00  0.00    +0.227 C 
BRANCH  19  20
ATOM     20  O   UNL     1      36.380 -20.546 -19.876  0.00  0.00    -0.474 OA
BRANCH  20  24
ATOM     21  C   UNL     1      34.953 -18.357 -23.101  0.00  0.00    -0.021 C 
ATOM     22  C   UNL     1      34.097 -19.210 -22.404  0.00  0.00    -0.001 C 
ATOM     23  C   UNL     1      36.288 -18.240 -22.715  0.00  0.00    -0.001 C 
ATOM     24  C   UNL     1      35.912 -19.829 -20.934  0.00  0.00    +0.139 C 
ATOM     25  C   UNL     1      34.576 -19.946 -21.320  0.00  0.00    +0.037 C 
ATOM     26  C   UNL     1      36.767 -18.976 -21.632  0.00  0.00    +0.037 C 
BRANCH  21  27
ATOM     27  C   UNL     1      34.434 -17.563 -24.272  0.00  0.00    +0.047 C 
BRANCH  27  32
ATOM     28  S   UNL     1      34.529 -15.518 -22.429  0.00  0.00    -0.048 S 
ATOM     29  O   UNL     1      33.691 -15.381 -26.194  0.00  0.00    -0.274 OA
ATOM     30  O   UNL     1      32.887 -13.500 -22.054  0.00  0.00    -0.263 OA
ATOM     31  N   UNL     1      33.171 -14.300 -24.216  0.00  0.00    -0.246 N 
ATOM     32  C   UNL     1      34.758 -16.085 -24.143  0.00  0.00    +0.137 C 
ATOM     33  C   UNL     1      33.828 -15.239 -24.983  0.00  0.00    +0.239 C 
ATOM     34  C   UNL     1      33.389 -14.263 -22.865  0.00  0.00    +0.279 C 
ATOM     35  H   UNL     1      32.550 -13.662 -24.637  0.00  0.00    +0.158 HD
ENDBRANCH  27  32
ENDBRANCH  21  27
ENDBRANCH  20  24
ENDBRANCH  19  20
ENDBRANCH   1  19
TORSDOF 9
ENDMDL
MODEL 2
REMARK VINA RESULT:     -11.8      5.180     13.947
REMARK  Name = 9826451
REMARK  9 active torsions:
REMARK  status: ('A' for Active; 'I' for Inactive)
REMARK    1  A    between atoms: C_1  and  N_2
REMARK    2  A    between atoms: C_1  and  C_19
REMARK    3  A    between atoms: C_8  and  O_10
REMARK    4  A    between atoms: O_10  and  C_11
REMARK    5  A    between atoms: C_14  and  O_17
REMARK    6  A    between atoms: C_19  and  O_20
REMARK    7  A    between atoms: O_20  and  C_24
REMARK    8  A    between atoms: C_21  and  C_27
REMARK    9  A    between atoms: C_27  and  C_32
REMARK                            x       y       z     vdW  Elec       q    Type
REMARK                         _______ _______ _______ _____ _____    ______ ____
ROOT
ATOM      1  C   UNL     1      33.306 -13.798 -25.654  0.00  0.00    +0.139 C 
ENDROOT
BRANCH   1   2
ATOM      2  N   UNL     1      33.676 -12.712 -24.779  0.00  0.00    -0.291 N 
ATOM      3  C   UNL     1      33.414 -12.848 -23.345  0.00  0.00    +0.113 C 
ATOM      4  N   UNL     1      34.494 -11.440 -26.602  0.00  0.00    -0.233 NA
ATOM      5  N   UNL     1      35.407  -9.245 -26.211  0.00  0.00    -0.214 NA
ATOM      6  C   UNL     1      34.263 -11.541 -25.276  0.00  0.00    +0.115 C 
ATOM      7  C   UNL     1      34.572 -10.549 -24.367  0.00  0.00    +0.146 C 
ATOM      8  C   UNL     1      35.148  -9.412 -24.898  0.00  0.00    +0.210 C 
ATOM      9  C   UNL     1      35.060 -10.283 -26.995  0.00  0.00    +0.254 C 
BRANCH   8  10
ATOM     10  O   UNL     1      35.485  -8.381 -24.060  0.00  0.00    -0.440 OA
BRANCH  10  11
ATOM     11  C   UNL     1      34.622  -7.305 -24.000  0.00  0.00    +0.147 C 
ATOM     12  C   UNL     1      33.634  -7.256 -23.017  0.00  0.00    +0.041 C 
ATOM     13  C   UNL     1      34.739  -6.265 -24.923  0.00  0.00    +0.041 C 
ATOM     14  C   UNL     1      32.880  -5.130 -23.879  0.00  0.00    +0.139 C 
ATOM     15  C   UNL     1      32.763  -6.169 -22.956  0.00  0.00    +0.040 C 
ATOM     16  C   UNL     1      33.869  -5.177 -24.862  0.00  0.00    +0.040 C 
BRANCH  14  17
ATOM     17  O   UNL     1      32.031  -4.067 -23.819  0.00  0.00    -0.471 OA
ATOM     18  C   UNL     1      30.952  -4.045 -24.752  0.00  0.00    +0.252 C 
ENDBRANCH  14  17
ENDBRANCH  10  11
ENDBRANCH   8  10
ENDBRANCH   1   2
BRANCH   1  19
ATOM     19  C   UNL     1      33.219 -15.095 -24.867  0.00  0.00    +0.227 C 
BRANCH  19  20
ATOM     20  O   UNL     1      34.513 -15.688 -24.786  0.00  0.00    -0.474 OA
BRANCH  20  24
ATOM     21  C   UNL     1      34.819 -19.291 -22.748  0.00  0.00    -0.021 C 
ATOM     22  C   UNL     1      34.205 -19.248 -23.999  0.00  0.00    -0.001 C 
ATOM     23  C   UNL     1      35.331 -18.123 -22.181  0.00  0.00    -0.001 C 
ATOM     24  C   UNL     1      34.613 -16.870 -24.118  0.00  0.00    +0.139 C 
ATOM     25  C   UNL     1      34.101 -18.038 -24.684  0.00  0.00    +0.037 C 
ATOM     26  C   UNL     1      35.227 -16.913 -22.866  0.00  0.00    +0.037 C 
BRANCH  21  27
ATOM     27  C   UNL     1      34.931 -20.600 -22.009  0.00  0.00    +0.047 C 
BRANCH  27  32
ATOM     28  S   UNL     1      35.297 -21.647 -19.487  0.00  0.00    -0.048 S 
ATOM     29  O   UNL     1      32.072 -20.320 -21.141  0.00  0.00    -0.274 OA
ATOM     30  O   UNL     1      33.826 -23.354 -18.134  0.00  0.00    -0.263 OA
ATOM     31  N   UNL     1      32.757 -21.895 -19.592  0.00  0.00    -0.246 N 
ATOM     32  C   UNL     1      34.417 -20.491 -20.584  0.00  0.00    +0.137 C 
ATOM     33  C   UNL     1      32.956 -20.870 -20.492  0.00  0.00    +0.239 C 
ATOM     34  C   UNL     1      33.835 -22.446 -18.951  0.00  0.00    +0.279 C 
ATOM     35  H   UNL     1      31.848 -22.229 -19.412  0.00  0.00    +0.158 HD
ENDBRANCH  27  32
ENDBRANCH  21  27
ENDBRANCH  20  24
ENDBRANCH  19  20
ENDBRANCH   1  19
TORSDOF 9
ENDMDL
MODEL 3
REMARK VINA RESULT:     -11.8      5.288      9.618
REMARK  Name = 9826451
REMARK  9 active torsions:
REMARK  status: ('A' for Active; 'I' for Inactive)
REMARK    1  A    between atoms: C_1  and  N_2
REMARK    2  A    between atoms: C_1  and  C_19
REMARK    3  A    between atoms: C_8  and  O_10
REMARK    4  A    between atoms: O_10  and  C_11
REMARK    5  A    between atoms: C_14  and  O_17
REMARK    6  A    between atoms: C_19  and  O_20
REMARK    7  A    between atoms: O_20  and  C_24
REMARK    8  A    between atoms: C_21  and  C_27
REMARK    9  A    between atoms: C_27  and  C_32
REMARK                            x       y       z     vdW  Elec       q    Type
REMARK                         _______ _______ _______ _____ _____    ______ ____
ROOT
ATOM      1  C   UNL     1      33.586 -14.944 -25.371  0.00  0.00    +0.139 C 
ENDROOT
BRANCH   1   2
ATOM      2  N   UNL     1      34.162 -15.525 -24.182  0.00  0.00    -0.291 N 
ATOM      3  C   UNL     1      34.527 -14.638 -23.076  0.00  0.00    +0.113 C 
ATOM      4  N   UNL     1      34.039 -17.700 -25.110  0.00  0.00    -0.233 NA
ATOM      5  N   UNL     1      34.832 -19.586 -23.839  0.00  0.00    -0.214 NA
ATOM      6  C   UNL     1      34.385 -16.904 -24.077  0.00  0.00    +0.115 C 
ATOM      7  C   UNL     1      34.952 -17.369 -22.908  0.00  0.00    +0.146 C 
ATOM      8  C   UNL     1      35.154 -18.734 -22.844  0.00  0.00    +0.210 C 
ATOM      9  C   UNL     1      34.287 -19.010 -24.926  0.00  0.00    +0.254 C 
BRANCH   8  10
ATOM     10  O   UNL     1      35.713 -19.274 -21.716  0.00  0.00    -0.440 OA
BRANCH  10  11
ATOM     11  C   UNL     1      34.938 -20.149 -20.981  0.00  0.00    +0.147 C 
ATOM     12  C   UNL     1      33.549 -20.024 -20.985  0.00  0.00    +0.041 C 
ATOM     13  C   UNL     1      35.545 -21.159 -20.233  0.00  0.00    +0.041 C 
ATOM     14  C   UNL     1      33.373 -21.917 -19.496  0.00  0.00    +0.139 C 
ATOM     15  C   UNL     1      32.766 -20.908 -20.243  0.00  0.00    +0.040 C 
ATOM     16  C   UNL     1      34.763 -22.043 -19.492  0.00  0.00    +0.040 C 
BRANCH  14  17
ATOM     17  O   UNL     1      32.610 -22.782 -18.772  0.00  0.00    -0.471 OA
ATOM     18  C   UNL     1      33.173 -23.291 -17.564  0.00  0.00    +0.252 C 
ENDBRANCH  14  17
ENDBRANCH  10  11
ENDBRANCH   8  10
ENDBRANCH   1   2
BRANCH   1  19
ATOM     19  C   UNL     1      33.294 -13.470 -25.142  0.00  0.00    +0.227 C 
BRANCH  19  20
ATOM     20  O   UNL     1      34.189 -12.681 -25.923  0.00  0.00    -0.474 OA
BRANCH  20  24
ATOM     21  C   UNL     1      34.431  -8.639 -25.015  0.00  0.00    -0.021 C 
ATOM     22  C   UNL     1      35.054  -9.134 -26.160  0.00  0.00    -0.001 C 
ATOM     23  C   UNL     1      33.727  -9.502 -24.174  0.00  0.00    -0.001 C 
ATOM     24  C   UNL     1      34.269 -11.356 -25.625  0.00  0.00    +0.139 C 
ATOM     25  C   UNL     1      34.973 -10.493 -26.466  0.00  0.00    +0.037 C 
ATOM     26  C   UNL     1      33.647 -10.860 -24.479  0.00  0.00    +0.037 C 
BRANCH  21  27
ATOM     27  C   UNL     1      34.519  -7.171 -24.686  0.00  0.00    +0.047 C 
BRANCH  27  32
ATOM     28  S   UNL     1      33.103  -5.154 -25.916  0.00  0.00    -0.048 S 
ATOM     29  O   UNL     1      32.830  -6.483 -22.303  0.00  0.00    -0.274 OA
ATOM     30  O   UNL     1      32.426  -2.775 -25.026  0.00  0.00    -0.263 OA
ATOM     31  N   UNL     1      32.563  -4.522 -23.501  0.00  0.00    -0.246 N 
ATOM     32  C   UNL     1      33.155  -6.504 -24.697  0.00  0.00    +0.137 C 
ATOM     33  C   UNL     1      32.839  -5.866 -23.363  0.00  0.00    +0.239 C 
ATOM     34  C   UNL     1      32.637  -3.944 -24.740  0.00  0.00    +0.279 C 
ATOM     35  H   UNL     1      32.316  -3.983 -22.715  0.00  0.00    +0.158 HD
ENDBRANCH  27  32
ENDBRANCH  21  27
ENDBRANCH  20  24
ENDBRANCH  19  20
ENDBRANCH   1  19
TORSDOF 9
ENDMDL
MODEL 4
REMARK VINA RESULT:     -11.6      4.550      9.159
REMARK  Name = 9826451
REMARK  9 active torsions:
REMARK  status: ('A' for Active; 'I' for Inactive)
REMARK    1  A    between atoms: C_1  and  N_2
REMARK    2  A    between atoms: C_1  and  C_19
REMARK    3  A    between atoms: C_8  and  O_10
REMARK    4  A    between atoms: O_10  and  C_11
REMARK    5  A    between atoms: C_14  and  O_17
REMARK    6  A    between atoms: C_19  and  O_20
REMARK    7  A    between atoms: O_20  and  C_24
REMARK    8  A    between atoms: C_21  and  C_27
REMARK    9  A    between atoms: C_27  and  C_32
REMARK                            x       y       z     vdW  Elec       q    Type
REMARK                         _______ _______ _______ _____ _____    ______ ____
ROOT
ATOM      1  C   UNL     1      33.613 -14.998 -25.562  0.00  0.00    +0.139 C 
ENDROOT
BRANCH   1   2
ATOM      2  N   UNL     1      34.181 -15.547 -24.354  0.00  0.00    -0.291 N 
ATOM      3  C   UNL     1      34.554 -14.629 -23.276  0.00  0.00    +0.113 C 
ATOM      4  N   UNL     1      34.037 -17.750 -25.212  0.00  0.00    -0.233 NA
ATOM      5  N   UNL     1      34.808 -19.602 -23.880  0.00  0.00    -0.214 NA
ATOM      6  C   UNL     1      34.389 -16.924 -24.204  0.00  0.00    +0.115 C 
ATOM      7  C   UNL     1      34.950 -17.358 -23.020  0.00  0.00    +0.146 C 
ATOM      8  C   UNL     1      35.138 -18.722 -22.913  0.00  0.00    +0.210 C 
ATOM      9  C   UNL     1      34.271 -19.056 -24.986  0.00  0.00    +0.254 C 
BRANCH   8  10
ATOM     10  O   UNL     1      35.689 -19.231 -21.766  0.00  0.00    -0.440 OA
BRANCH  10  11
ATOM     11  C   UNL     1      34.918 -20.103 -21.025  0.00  0.00    +0.147 C 
ATOM     12  C   UNL     1      35.525 -21.118 -20.286  0.00  0.00    +0.041 C 
ATOM     13  C   UNL     1      33.528 -19.968 -21.013  0.00  0.00    +0.041 C 
ATOM     14  C   UNL     1      33.357 -21.864 -19.525  0.00  0.00    +0.139 C 
ATOM     15  C   UNL     1      34.745 -21.999 -19.537  0.00  0.00    +0.040 C 
ATOM     16  C   UNL     1      32.749 -20.848 -20.263  0.00  0.00    +0.040 C 
BRANCH  14  17
ATOM     17  O   UNL     1      32.595 -22.722 -18.793  0.00  0.00    -0.471 OA
ATOM     18  C   UNL     1      33.194 -23.291 -17.630  0.00  0.00    +0.252 C 
ENDBRANCH  14  17
ENDBRANCH  10  11
ENDBRANCH   8  10
ENDBRANCH   1   2
BRANCH   1  19
ATOM     19  C   UNL     1      33.079 -13.601 -25.298  0.00  0.00    +0.227 C 
BRANCH  19  20
ATOM     20  O   UNL     1      33.699 -12.679 -26.192  0.00  0.00    -0.474 OA
BRANCH  20  24
ATOM     21  C   UNL     1      34.906  -9.034 -24.616  0.00  0.00    -0.021 C 
ATOM     22  C   UNL     1      34.177  -9.927 -23.830  0.00  0.00    -0.001 C 
ATOM     23  C   UNL     1      35.229  -9.367 -25.932  0.00  0.00    -0.001 C 
ATOM     24  C   UNL     1      34.094 -11.484 -25.675  0.00  0.00    +0.139 C 
ATOM     25  C   UNL     1      33.771 -11.151 -24.359  0.00  0.00    +0.037 C 
ATOM     26  C   UNL     1      34.823 -10.590 -26.461  0.00  0.00    +0.037 C 
BRANCH  21  27
ATOM     27  C   UNL     1      35.345  -7.711 -24.043  0.00  0.00    +0.047 C 
BRANCH  27  32
ATOM     28  S   UNL     1      32.943  -7.672 -22.695  0.00  0.00    -0.048 S 
ATOM     29  O   UNL     1      33.959  -5.840 -25.936  0.00  0.00    -0.274 OA
ATOM     30  O   UNL     1      30.484  -7.803 -23.614  0.00  0.00    -0.263 OA
ATOM     31  N   UNL     1      32.094  -6.762 -24.925  0.00  0.00    -0.246 N 
ATOM     32  C   UNL     1      34.164  -6.809 -23.731  0.00  0.00    +0.137 C 
ATOM     33  C   UNL     1      33.426  -6.409 -24.990  0.00  0.00    +0.239 C 
ATOM     34  C   UNL     1      31.626  -7.423 -23.821  0.00  0.00    +0.279 C 
ATOM     35  H   UNL     1      31.486  -6.541 -25.667  0.00  0.00    +0.158 HD
ENDBRANCH  27  32
ENDBRANCH  21  27
ENDBRANCH  20  24
ENDBRANCH  19  20
ENDBRANCH   1  19
TORSDOF 9
ENDMDL
MODEL 5
REMARK VINA RESULT:     -11.4      2.501      4.871
REMARK  Name = 9826451
REMARK  9 active torsions:
REMARK  status: ('A' for Active; 'I' for Inactive)
REMARK    1  A    between atoms: C_1  and  N_2
REMARK    2  A    between atoms: C_1  and  C_19
REMARK    3  A    between atoms: C_8  and  O_10
REMARK    4  A    between atoms: O_10  and  C_11
REMARK    5  A    between atoms: C_14  and  O_17
REMARK    6  A    between atoms: C_19  and  O_20
REMARK    7  A    between atoms: O_20  and  C_24
REMARK    8  A    between atoms: C_21  and  C_27
REMARK    9  A    between atoms: C_27  and  C_32
REMARK                            x       y       z     vdW  Elec       q    Type
REMARK                         _______ _______ _______ _____ _____    ______ ____
ROOT
ATOM      1  C   UNL     1      33.276 -21.948 -19.951  0.00  0.00    +0.139 C 
ENDROOT
BRANCH   1   2
ATOM      2  N   UNL     1      34.005 -22.296 -18.754  0.00  0.00    -0.291 N 
ATOM      3  C   UNL     1      35.452 -22.078 -18.729  0.00  0.00    +0.113 C 
ATOM      4  N   UNL     1      32.023 -23.033 -17.686  0.00  0.00    -0.233 NA
ATOM      5  N   UNL     1      32.131 -23.908 -15.445  0.00  0.00    -0.214 NA
ATOM      6  C   UNL     1      33.359 -22.842 -17.638  0.00  0.00    +0.115 C 
ATOM      7  C   UNL     1      34.137 -23.156 -16.543  0.00  0.00    +0.146 C 
ATOM      8  C   UNL     1      33.462 -23.691 -15.464  0.00  0.00    +0.210 C 
ATOM      9  C   UNL     1      31.483 -23.561 -16.572  0.00  0.00    +0.254 C 
BRANCH   8  10
ATOM     10  O   UNL     1      34.165 -24.029 -14.337  0.00  0.00    -0.440 OA
BRANCH  10  11
ATOM     11  C   UNL     1      35.370 -24.681 -14.512  0.00  0.00    +0.147 C 
ATOM     12  C   UNL     1      36.546 -24.121 -14.016  0.00  0.00    +0.041 C 
ATOM     13  C   UNL     1      35.409 -25.903 -15.186  0.00  0.00    +0.041 C 
ATOM     14  C   UNL     1      37.801 -26.001 -14.867  0.00  0.00    +0.139 C 
ATOM     15  C   UNL     1      37.762 -24.780 -14.193  0.00  0.00    +0.040 C 
ATOM     16  C   UNL     1      36.624 -26.563 -15.362  0.00  0.00    +0.040 C 
BRANCH  14  17
ATOM     17  O   UNL     1      38.988 -26.646 -15.039  0.00  0.00    -0.471 OA
ATOM     18  C   UNL     1      40.176 -25.869 -14.894  0.00  0.00    +0.252 C 
ENDBRANCH  14  17
ENDBRANCH  10  11
ENDBRANCH   8  10
ENDBRANCH   1   2
BRANCH   1  19
ATOM     19  C   UNL     1      33.633 -20.538 -20.388  0.00  0.00    +0.227 C 
BRANCH  19  20
ATOM     20  O   UNL     1      34.443 -20.595 -21.561  0.00  0.00    -0.474 OA
BRANCH  20  24
ATOM     21  C   UNL     1      34.867 -17.087 -23.738  0.00  0.00    -0.021 C 
ATOM     22  C   UNL     1      34.264 -18.201 -24.321  0.00  0.00    -0.001 C 
ATOM     23  C   UNL     1      35.328 -17.152 -22.422  0.00  0.00    -0.001 C 
ATOM     24  C   UNL     1      34.583 -19.445 -22.275  0.00  0.00    +0.139 C 
ATOM     25  C   UNL     1      34.122 -19.380 -23.590  0.00  0.00    +0.037 C 
ATOM     26  C   UNL     1      35.187 -18.331 -21.692  0.00  0.00    +0.037 C 
BRANCH  21  27
ATOM     27  C   UNL     1      35.021 -15.814 -24.529  0.00  0.00    +0.047 C 
BRANCH  27  32
ATOM     28  S   UNL     1      33.485 -13.902 -25.783  0.00  0.00    -0.048 S 
ATOM     29  O   UNL     1      34.596 -14.113 -22.093  0.00  0.00    -0.274 OA
ATOM     30  O   UNL     1      33.552 -11.282 -25.588  0.00  0.00    -0.263 OA
ATOM     31  N   UNL     1      34.098 -12.538 -23.712  0.00  0.00    -0.246 N 
ATOM     32  C   UNL     1      33.875 -14.849 -24.279  0.00  0.00    +0.137 C 
ATOM     33  C   UNL     1      34.235 -13.823 -23.228  0.00  0.00    +0.239 C 
ATOM     34  C   UNL     1      33.715 -12.347 -25.013  0.00  0.00    +0.279 C 
ATOM     35  H   UNL     1      34.276 -11.766 -23.128  0.00  0.00    +0.158 HD
ENDBRANCH  27  32
ENDBRANCH  21  27
ENDBRANCH  20  24
ENDBRANCH  19  20
ENDBRANCH   1  19
TORSDOF 9
ENDMDL
MODEL 6
REMARK VINA RESULT:     -11.4      3.462     11.289
REMARK  Name = 9826451
REMARK  9 active torsions:
REMARK  status: ('A' for Active; 'I' for Inactive)
REMARK    1  A    between atoms: C_1  and  N_2
REMARK    2  A    between atoms: C_1  and  C_19
REMARK    3  A    between atoms: C_8  and  O_10
REMARK    4  A    between atoms: O_10  and  C_11
REMARK    5  A    between atoms: C_14  and  O_17
REMARK    6  A    between atoms: C_19  and  O_20
REMARK    7  A    between atoms: O_20  and  C_24
REMARK    8  A    between atoms: C_21  and  C_27
REMARK    9  A    between atoms: C_27  and  C_32
REMARK                            x       y       z     vdW  Elec       q    Type
REMARK                         _______ _______ _______ _____ _____    ______ ____
ROOT
ATOM      1  C   UNL     1      34.223 -21.413 -19.343  0.00  0.00    +0.139 C 
ENDROOT
BRANCH   1   2
ATOM      2  N   UNL     1      33.901 -20.615 -20.501  0.00  0.00    -0.291 N 
ATOM      3  C   UNL     1      32.520 -20.614 -20.988  0.00  0.00    +0.113 C 
ATOM      4  N   UNL     1      36.144 -19.880 -20.697  0.00  0.00    -0.233 NA
ATOM      5  N   UNL     1      36.758 -18.384 -22.482  0.00  0.00    -0.214 NA
ATOM      6  C   UNL     1      34.878 -19.862 -21.165  0.00  0.00    +0.115 C 
ATOM      7  C   UNL     1      34.482 -19.139 -22.272  0.00  0.00    +0.146 C 
ATOM      8  C   UNL     1      35.475 -18.411 -22.897  0.00  0.00    +0.210 C 
ATOM      9  C   UNL     1      37.019 -19.130 -21.393  0.00  0.00    +0.254 C 
BRANCH   8  10
ATOM     10  O   UNL     1      35.161 -17.667 -24.003  0.00  0.00    -0.440 OA
BRANCH  10  11
ATOM     11  C   UNL     1      34.595 -16.425 -23.793  0.00  0.00    +0.147 C 
ATOM     12  C   UNL     1      33.926 -15.777 -24.831  0.00  0.00    +0.041 C 
ATOM     13  C   UNL     1      34.693 -15.818 -22.540  0.00  0.00    +0.041 C 
ATOM     14  C   UNL     1      33.452 -13.917 -23.366  0.00  0.00    +0.139 C 
ATOM     15  C   UNL     1      33.355 -14.523 -24.618  0.00  0.00    +0.040 C 
ATOM     16  C   UNL     1      34.121 -14.565 -22.326  0.00  0.00    +0.040 C 
BRANCH  14  17
ATOM     17  O   UNL     1      32.894 -12.693 -23.157  0.00  0.00    -0.471 OA
ATOM     18  C   UNL     1      32.018 -12.561 -22.038  0.00  0.00    +0.252 C 
ENDBRANCH  14  17
ENDBRANCH  10  11
ENDBRANCH   8  10
ENDBRANCH   1   2
BRANCH   1  19
ATOM     19  C   UNL     1      33.348 -22.654 -19.305  0.00  0.00    +0.227 C 
BRANCH  19  20
ATOM     20  O   UNL     1      32.514 -22.612 -18.149  0.00  0.00    -0.474 OA
BRANCH  20  24
ATOM     21  C   UNL     1      34.011 -24.323 -14.676  0.00  0.00    -0.021 C 
ATOM     22  C   UNL     1      32.708 -23.827 -14.703  0.00  0.00    -0.001 C 
ATOM     23  C   UNL     1      34.812 -24.244 -15.816  0.00  0.00    -0.001 C 
ATOM     24  C   UNL     1      33.005 -23.173 -17.010  0.00  0.00    +0.139 C 
ATOM     25  C   UNL     1      32.204 -23.252 -15.870  0.00  0.00    +0.037 C 
ATOM     26  C   UNL     1      34.309 -23.668 -16.982  0.00  0.00    +0.037 C 
BRANCH  21  27
ATOM     27  C   UNL     1      34.554 -24.944 -13.415  0.00  0.00    +0.047 C 
BRANCH  27  32
ATOM     28  S   UNL     1      36.559 -23.067 -13.208  0.00  0.00    -0.048 S 
ATOM     29  O   UNL     1      34.927 -25.217 -10.450  0.00  0.00    -0.274 OA
ATOM     30  O   UNL     1      38.805 -23.133 -11.844  0.00  0.00    -0.263 OA
ATOM     31  N   UNL     1      36.955 -24.232 -10.970  0.00  0.00    -0.246 N 
ATOM     32  C   UNL     1      35.122 -23.902 -12.468  0.00  0.00    +0.137 C 
ATOM     33  C   UNL     1      35.626 -24.532 -11.189  0.00  0.00    +0.239 C 
ATOM     34  C   UNL     1      37.635 -23.480 -11.891  0.00  0.00    +0.279 C 
ATOM     35  H   UNL     1      37.409 -24.558 -10.160  0.00  0.00    +0.158 HD
ENDBRANCH  27  32
ENDBRANCH  21  27
ENDBRANCH  20  24
ENDBRANCH  19  20
ENDBRANCH   1  19
TORSDOF 9
ENDMDL
MODEL 7
REMARK VINA RESULT:     -11.3      3.791     12.591
REMARK  Name = 9826451
REMARK  9 active torsions:
REMARK  status: ('A' for Active; 'I' for Inactive)
REMARK    1  A    between atoms: C_1  and  N_2
REMARK    2  A    between atoms: C_1  and  C_19
REMARK    3  A    between atoms: C_8  and  O_10
REMARK    4  A    between atoms: O_10  and  C_11
REMARK    5  A    between atoms: C_14  and  O_17
REMARK    6  A    between atoms: C_19  and  O_20
REMARK    7  A    between atoms: O_20  and  C_24
REMARK    8  A    between atoms: C_21  and  C_27
REMARK    9  A    between atoms: C_27  and  C_32
REMARK                            x       y       z     vdW  Elec       q    Type
REMARK                         _______ _______ _______ _____ _____    ______ ____
ROOT
ATOM      1  C   UNL     1      35.019 -17.198 -21.757  0.00  0.00    +0.139 C 
ENDROOT
BRANCH   1   2
ATOM      2  N   UNL     1      34.859 -16.321 -22.893  0.00  0.00    -0.291 N 
ATOM      3  C   UNL     1      35.406 -16.741 -24.184  0.00  0.00    +0.113 C 
ATOM      4  N   UNL     1      33.711 -14.723 -21.575  0.00  0.00    -0.233 NA
ATOM      5  N   UNL     1      32.944 -12.674 -22.584  0.00  0.00    -0.214 NA
ATOM      6  C   UNL     1      34.207 -15.087 -22.776  0.00  0.00    +0.115 C 
ATOM      7  C   UNL     1      34.112 -14.308 -23.911  0.00  0.00    +0.146 C 
ATOM      8  C   UNL     1      33.463 -13.099 -23.754  0.00  0.00    +0.210 C 
ATOM      9  C   UNL     1      33.102 -13.523 -21.551  0.00  0.00    +0.254 C 
BRANCH   8  10
ATOM     10  O   UNL     1      33.328 -12.268 -24.835  0.00  0.00    -0.440 OA
BRANCH  10  11
ATOM     11  C   UNL     1      33.829 -10.987 -24.717  0.00  0.00    +0.147 C 
ATOM     12  C   UNL     1      34.968 -10.615 -25.431  0.00  0.00    +0.041 C 
ATOM     13  C   UNL     1      33.194 -10.064 -23.884  0.00  0.00    +0.041 C 
ATOM     14  C   UNL     1      34.839  -8.399 -24.480  0.00  0.00    +0.139 C 
ATOM     15  C   UNL     1      35.473  -9.321 -25.312  0.00  0.00    +0.040 C 
ATOM     16  C   UNL     1      33.699  -8.770 -23.767  0.00  0.00    +0.040 C 
BRANCH  14  17
ATOM     17  O   UNL     1      35.332  -7.134 -24.364  0.00  0.00    -0.471 OA
ATOM     18  C   UNL     1      34.434  -6.060 -24.636  0.00  0.00    +0.252 C 
ENDBRANCH  14  17
ENDBRANCH  10  11
ENDBRANCH   8  10
ENDBRANCH   1   2
BRANCH   1  19
ATOM     19  C   UNL     1      34.759 -18.637 -22.170  0.00  0.00    +0.227 C 
BRANCH  19  20
ATOM     20  O   UNL     1      35.628 -19.504 -21.443  0.00  0.00    -0.474 OA
BRANCH  20  24
ATOM     21  C   UNL     1      33.848 -22.386 -19.044  0.00  0.00    -0.021 C 
ATOM     22  C   UNL     1      35.237 -22.269 -19.079  0.00  0.00    -0.001 C 
ATOM     23  C   UNL     1      33.056 -21.534 -19.816  0.00  0.00    -0.001 C 
ATOM     24  C   UNL     1      35.044 -20.449 -20.656  0.00  0.00    +0.139 C 
ATOM     25  C   UNL     1      35.836 -21.301 -19.885  0.00  0.00    +0.037 C 
ATOM     26  C   UNL     1      33.655 -20.567 -20.622  0.00  0.00    +0.037 C 
BRANCH  21  27
ATOM     27  C   UNL     1      33.202 -23.432 -18.173  0.00  0.00    +0.047 C 
BRANCH  27  32
ATOM     28  S   UNL     1      33.734 -23.703 -15.484  0.00  0.00    -0.048 S 
ATOM     29  O   UNL     1      30.434 -22.745 -17.239  0.00  0.00    -0.274 OA
ATOM     30  O   UNL     1      32.320 -24.844 -13.585  0.00  0.00    -0.263 OA
ATOM     31  N   UNL     1      31.188 -23.825 -15.338  0.00  0.00    -0.246 N 
ATOM     32  C   UNL     1      32.809 -22.877 -16.815  0.00  0.00    +0.137 C 
ATOM     33  C   UNL     1      31.348 -23.126 -16.517  0.00  0.00    +0.239 C 
ATOM     34  C   UNL     1      32.294 -24.222 -14.635  0.00  0.00    +0.279 C 
ATOM     35  H   UNL     1      30.285 -24.037 -15.006  0.00  0.00    +0.158 HD
ENDBRANCH  27  32
ENDBRANCH  21  27
ENDBRANCH  20  24
ENDBRANCH  19  20
ENDBRANCH   1  19
TORSDOF 9
ENDMDL
MODEL 8
REMARK VINA RESULT:     -11.3      3.803     11.262
REMARK  Name = 9826451
REMARK  9 active torsions:
REMARK  status: ('A' for Active; 'I' for Inactive)
REMARK    1  A    between atoms: C_1  and  N_2
REMARK    2  A    between atoms: C_1  and  C_19
REMARK    3  A    between atoms: C_8  and  O_10
REMARK    4  A    between atoms: O_10  and  C_11
REMARK    5  A    between atoms: C_14  and  O_17
REMARK    6  A    between atoms: C_19  and  O_20
REMARK    7  A    between atoms: O_20  and  C_24
REMARK    8  A    between atoms: C_21  and  C_27
REMARK    9  A    between atoms: C_27  and  C_32
REMARK                            x       y       z     vdW  Elec       q    Type
REMARK                         _______ _______ _______ _____ _____    ______ ____
ROOT
ATOM      1  C   UNL     1      34.501 -21.579 -19.167  0.00  0.00    +0.139 C 
ENDROOT
BRANCH   1   2
ATOM      2  N   UNL     1      34.124 -20.802 -20.324  0.00  0.00    -0.291 N 
ATOM      3  C   UNL     1      32.737 -20.865 -20.788  0.00  0.00    +0.113 C 
ATOM      4  N   UNL     1      36.328 -19.968 -20.558  0.00  0.00    -0.233 NA
ATOM      5  N   UNL     1      36.846 -18.455 -22.360  0.00  0.00    -0.214 NA
ATOM      6  C   UNL     1      35.056 -20.009 -21.006  0.00  0.00    +0.115 C 
ATOM      7  C   UNL     1      34.610 -19.311 -22.110  0.00  0.00    +0.146 C 
ATOM      8  C   UNL     1      35.559 -18.542 -22.754  0.00  0.00    +0.210 C 
ATOM      9  C   UNL     1      37.157 -19.183 -21.272  0.00  0.00    +0.254 C 
BRANCH   8  10
ATOM     10  O   UNL     1      35.194 -17.818 -23.858  0.00  0.00    -0.440 OA
BRANCH  10  11
ATOM     11  C   UNL     1      34.655 -16.565 -23.646  0.00  0.00    +0.147 C 
ATOM     12  C   UNL     1      34.033 -15.885 -24.693  0.00  0.00    +0.041 C 
ATOM     13  C   UNL     1      34.732 -15.978 -22.382  0.00  0.00    +0.041 C 
ATOM     14  C   UNL     1      33.565 -14.034 -23.215  0.00  0.00    +0.139 C 
ATOM     15  C   UNL     1      33.488 -14.620 -24.478  0.00  0.00    +0.040 C 
ATOM     16  C   UNL     1      34.187 -14.713 -22.166  0.00  0.00    +0.040 C 
BRANCH  14  17
ATOM     17  O   UNL     1      33.033 -12.799 -23.004  0.00  0.00    -0.471 OA
ATOM     18  C   UNL     1      32.090 -12.670 -21.940  0.00  0.00    +0.252 C 
ENDBRANCH  14  17
ENDBRANCH  10  11
ENDBRANCH   8  10
ENDBRANCH   1   2
BRANCH   1  19
ATOM     19  C   UNL     1      33.304 -22.360 -18.652  0.00  0.00    +0.227 C 
BRANCH  19  20
ATOM     20  O   UNL     1      33.751 -23.576 -18.055  0.00  0.00    -0.474 OA
BRANCH  20  24
ATOM     21  C   UNL     1      35.666 -23.289 -14.384  0.00  0.00    -0.021 C 
ATOM     22  C   UNL     1      36.262 -22.753 -15.525  0.00  0.00    -0.001 C 
ATOM     23  C   UNL     1      34.427 -23.923 -14.477  0.00  0.00    -0.001 C 
ATOM     24  C   UNL     1      34.380 -23.482 -16.852  0.00  0.00    +0.139 C 
ATOM     25  C   UNL     1      35.619 -22.849 -16.759  0.00  0.00    +0.037 C 
ATOM     26  C   UNL     1      33.784 -24.020 -15.711  0.00  0.00    +0.037 C 
BRANCH  21  27
ATOM     27  C   UNL     1      36.362 -23.185 -13.052  0.00  0.00    +0.047 C 
BRANCH  27  32
ATOM     28  S   UNL     1      38.127 -24.884 -14.311  0.00  0.00    -0.048 S 
ATOM     29  O   UNL     1      35.740 -25.585 -11.361  0.00  0.00    -0.274 OA
ATOM     30  O   UNL     1      37.822 -27.382 -15.070  0.00  0.00    -0.263 OA
ATOM     31  N   UNL     1      36.700 -26.666 -13.166  0.00  0.00    -0.246 N 
ATOM     32  C   UNL     1      37.268 -24.375 -12.790  0.00  0.00    +0.137 C 
ATOM     33  C   UNL     1      36.477 -25.584 -12.340  0.00  0.00    +0.239 C 
ATOM     34  C   UNL     1      37.527 -26.527 -14.249  0.00  0.00    +0.279 C 
ATOM     35  H   UNL     1      36.268 -27.531 -12.978  0.00  0.00    +0.158 HD
ENDBRANCH  27  32
ENDBRANCH  21  27
ENDBRANCH  20  24
ENDBRANCH  19  20
ENDBRANCH   1  19
TORSDOF 9
ENDMDL
MODEL 9
REMARK VINA RESULT:     -11.1      2.811      4.523
REMARK  Name = 9826451
REMARK  9 active torsions:
REMARK  status: ('A' for Active; 'I' for Inactive)
REMARK    1  A    between atoms: C_1  and  N_2
REMARK    2  A    between atoms: C_1  and  C_19
REMARK    3  A    between atoms: C_8  and  O_10
REMARK    4  A    between atoms: O_10  and  C_11
REMARK    5  A    between atoms: C_14  and  O_17
REMARK    6  A    between atoms: C_19  and  O_20
REMARK    7  A    between atoms: O_20  and  C_24
REMARK    8  A    between atoms: C_21  and  C_27
REMARK    9  A    between atoms: C_27  and  C_32
REMARK                            x       y       z     vdW  Elec       q    Type
REMARK                         _______ _______ _______ _____ _____    ______ ____
ROOT
ATOM      1  C   UNL     1      34.807 -18.936 -21.502  0.00  0.00    +0.139 C 
ENDROOT
BRANCH   1   2
ATOM      2  N   UNL     1      34.036 -20.039 -20.979  0.00  0.00    -0.291 N 
ATOM      3  C   UNL     1      32.655 -20.205 -21.433  0.00  0.00    +0.113 C 
ATOM      4  N   UNL     1      35.856 -20.757 -19.644  0.00  0.00    -0.233 NA
ATOM      5  N   UNL     1      35.608 -22.691 -18.229  0.00  0.00    -0.214 NA
ATOM      6  C   UNL     1      34.580 -20.932 -20.047  0.00  0.00    +0.115 C 
ATOM      7  C   UNL     1      33.766 -21.949 -19.591  0.00  0.00    +0.146 C 
ATOM      8  C   UNL     1      34.340 -22.807 -18.674  0.00  0.00    +0.210 C 
ATOM      9  C   UNL     1      36.299 -21.659 -18.748  0.00  0.00    +0.254 C 
BRANCH   8  10
ATOM     10  O   UNL     1      33.597 -23.844 -18.173  0.00  0.00    -0.440 OA
BRANCH  10  11
ATOM     11  C   UNL     1      33.047 -23.682 -16.917  0.00  0.00    +0.147 C 
ATOM     12  C   UNL     1      31.744 -23.203 -16.782  0.00  0.00    +0.041 C 
ATOM     13  C   UNL     1      33.795 -23.999 -15.783  0.00  0.00    +0.041 C 
ATOM     14  C   UNL     1      31.937 -23.357 -14.379  0.00  0.00    +0.139 C 
ATOM     15  C   UNL     1      31.189 -23.040 -15.513  0.00  0.00    +0.040 C 
ATOM     16  C   UNL     1      33.240 -23.837 -14.514  0.00  0.00    +0.040 C 
BRANCH  14  17
ATOM     17  O   UNL     1      31.395 -23.199 -13.140  0.00  0.00    -0.471 OA
ATOM     18  C   UNL     1      30.329 -24.076 -12.780  0.00  0.00    +0.252 C 
ENDBRANCH  14  17
ENDBRANCH  10  11
ENDBRANCH   8  10
ENDBRANCH   1   2
BRANCH   1  19
ATOM     19  C   UNL     1      34.728 -18.919 -23.020  0.00  0.00    +0.227 C 
BRANCH  19  20
ATOM     20  O   UNL     1      35.528 -17.853 -23.525  0.00  0.00    -0.474 OA
BRANCH  20  24
ATOM     21  C   UNL     1      33.610 -14.261 -24.326  0.00  0.00    -0.021 C 
ATOM     22  C   UNL     1      34.214 -14.467 -23.086  0.00  0.00    -0.001 C 
ATOM     23  C   UNL     1      33.650 -15.262 -25.297  0.00  0.00    -0.001 C 
ATOM     24  C   UNL     1      34.899 -16.675 -23.787  0.00  0.00    +0.139 C 
ATOM     25  C   UNL     1      34.859 -15.674 -22.816  0.00  0.00    +0.037 C 
ATOM     26  C   UNL     1      34.294 -16.469 -25.027  0.00  0.00    +0.037 C 
BRANCH  21  27
ATOM     27  C   UNL     1      32.914 -12.956 -24.617  0.00  0.00    +0.047 C 
BRANCH  27  32
ATOM     28  S   UNL     1      33.507 -10.330 -24.035  0.00  0.00    -0.048 S 
ATOM     29  O   UNL     1      33.999 -12.277 -27.331  0.00  0.00    -0.274 OA
ATOM     30  O   UNL     1      33.113  -8.152 -25.453  0.00  0.00    -0.263 OA
ATOM     31  N   UNL     1      33.560 -10.133 -26.581  0.00  0.00    -0.246 N 
ATOM     32  C   UNL     1      33.898 -11.851 -24.954  0.00  0.00    +0.137 C 
ATOM     33  C   UNL     1      33.829 -11.476 -26.418  0.00  0.00    +0.239 C 
ATOM     34  C   UNL     1      33.361  -9.347 -25.477  0.00  0.00    +0.279 C 
ATOM     35  H   UNL     1      33.510  -9.743 -27.484  0.00  0.00    +0.158 HD
ENDBRANCH  27  32
ENDBRANCH  21  27
ENDBRANCH  20  24
ENDBRANCH  19  20
ENDBRANCH   1  19
TORSDOF 9
ENDMDL
