MODEL 1
REMARK VINA RESULT:     -11.3      0.000      0.000
REMARK  Name = 6450813
REMARK  4 active torsions:
REMARK  status: ('A' for Active; 'I' for Inactive)
REMARK    1  A    between atoms: C_4  and  C_10
REMARK    2  A    between atoms: C_6  and  C_22
REMARK    3  A    between atoms: C_12  and  N_17
REMARK    4  A    between atoms: C_22  and  C_24
REMARK                            x       y       z     vdW  Elec       q    Type
REMARK                         _______ _______ _______ _____ _____    ______ ____
ROOT
ATOM      1  N   UNL     1      34.593 -16.155 -22.676  0.00  0.00    -0.191 N 
ATOM      2  N   UNL     1      34.691 -15.632 -21.421  0.00  0.00    -0.179 NA
ATOM      3  N   UNL     1      33.982 -15.474 -24.907  0.00  0.00    -0.231 NA
ATOM      4  C   UNL     1      34.858 -17.473 -23.086  0.00  0.00    +0.143 C 
ATOM      5  C   UNL     1      34.163 -15.187 -23.587  0.00  0.00    +0.141 C 
ATOM      6  C   UNL     1      33.997 -14.021 -22.873  0.00  0.00    +0.161 C 
ATOM      7  C   UNL     1      34.692 -17.800 -24.378  0.00  0.00    +0.020 C 
ATOM      8  C   UNL     1      34.334 -14.356 -21.557  0.00  0.00    +0.106 C 
ATOM      9  C   UNL     1      34.231 -16.697 -25.259  0.00  0.00    +0.097 C 
ENDROOT
BRANCH   4  10
ATOM     10  C   UNL     1      35.325 -18.501 -22.138  0.00  0.00    +0.003 C 
ATOM     11  C   UNL     1      34.407 -19.354 -21.524  0.00  0.00    +0.013 C 
ATOM     12  C   UNL     1      34.848 -20.327 -20.628  0.00  0.00    +0.054 C 
ATOM     13  C   UNL     1      36.685 -18.623 -21.856  0.00  0.00    -0.002 C 
ATOM     14  C   UNL     1      36.209 -20.448 -20.346  0.00  0.00    +0.015 C 
ATOM     15  C   UNL     1      37.128 -19.596 -20.959  0.00  0.00    +0.001 C 
BRANCH  12  17
ATOM     16  O   UNL     1      35.484 -22.492 -18.814  0.00  0.00    -0.275 OA
ATOM     17  N   UNL     1      33.931 -21.180 -20.013  0.00  0.00    -0.257 N 
ATOM     18  C   UNL     1      32.473 -20.950 -20.252  0.00  0.00    +0.120 C 
ATOM     19  C   UNL     1      34.314 -22.213 -19.090  0.00  0.00    +0.230 C 
ATOM     20  C   UNL     1      33.221 -22.983 -18.385  0.00  0.00    +0.095 C 
ENDBRANCH  12  17
ENDBRANCH   4  10
BRANCH   6  22
ATOM     21  O   UNL     1      34.034 -12.297 -24.461  0.00  0.00    -0.290 OA
ATOM     22  C   UNL     1      33.567 -12.763 -23.403  0.00  0.00    +0.191 C 
BRANCH  22  24
ATOM     23  S   UNL     1      32.389 -10.359 -22.981  0.00  0.00    -0.084 S 
ATOM     24  C   UNL     1      32.532 -12.008 -22.658  0.00  0.00    +0.065 C 
ATOM     25  C   UNL     1      31.678 -12.494 -21.741  0.00  0.00    +0.010 C 
ATOM     26  C   UNL     1      30.837 -11.455 -21.252  0.00  0.00    +0.008 C 
ATOM     27  C   UNL     1      31.115 -10.242 -21.842  0.00  0.00    +0.036 C 
ENDBRANCH  22  24
ENDBRANCH   6  22
TORSDOF 4
ENDMDL
MODEL 2
REMARK VINA RESULT:     -11.0      3.235      8.825
REMARK  Name = 6450813
REMARK  4 active torsions:
REMARK  status: ('A' for Active; 'I' for Inactive)
REMARK    1  A    between atoms: C_4  and  C_10
REMARK    2  A    between atoms: C_6  and  C_22
REMARK    3  A    between atoms: C_12  and  N_17
REMARK    4  A    between atoms: C_22  and  C_24
REMARK                            x       y       z     vdW  Elec       q    Type
REMARK                         _______ _______ _______ _____ _____    ______ ____
ROOT
ATOM      1  N   UNL     1      34.740 -16.028 -23.048  0.00  0.00    -0.191 N 
ATOM      2  N   UNL     1      35.079 -16.702 -24.183  0.00  0.00    -0.179 NA
ATOM      3  N   UNL     1      34.714 -16.352 -20.658  0.00  0.00    -0.231 NA
ATOM      4  C   UNL     1      34.209 -14.732 -22.939  0.00  0.00    +0.143 C 
ATOM      5  C   UNL     1      34.981 -16.809 -21.914  0.00  0.00    +0.141 C 
ATOM      6  C   UNL     1      35.494 -18.005 -22.362  0.00  0.00    +0.161 C 
ATOM      7  C   UNL     1      33.930 -14.242 -21.719  0.00  0.00    +0.020 C 
ATOM      8  C   UNL     1      35.530 -17.880 -23.756  0.00  0.00    +0.106 C 
ATOM      9  C   UNL     1      34.222 -15.154 -20.585  0.00  0.00    +0.097 C 
ENDROOT
BRANCH   4  10
ATOM     10  C   UNL     1      33.962 -13.891 -24.125  0.00  0.00    +0.003 C 
ATOM     11  C   UNL     1      34.247 -12.525 -24.085  0.00  0.00    +0.013 C 
ATOM     12  C   UNL     1      34.014 -11.731 -25.207  0.00  0.00    +0.054 C 
ATOM     13  C   UNL     1      33.445 -14.461 -25.288  0.00  0.00    -0.002 C 
ATOM     14  C   UNL     1      33.496 -12.301 -26.370  0.00  0.00    +0.015 C 
ATOM     15  C   UNL     1      33.211 -13.667 -26.411  0.00  0.00    +0.001 C 
BRANCH  12  17
ATOM     16  O   UNL     1      32.634  -9.748 -23.612  0.00  0.00    -0.275 OA
ATOM     17  N   UNL     1      34.298 -10.365 -25.168  0.00  0.00    -0.257 N 
ATOM     18  C   UNL     1      35.447  -9.853 -25.976  0.00  0.00    +0.120 C 
ATOM     19  C   UNL     1      33.595  -9.440 -24.322  0.00  0.00    +0.230 C 
ATOM     20  C   UNL     1      34.082  -8.010 -24.267  0.00  0.00    +0.095 C 
ENDBRANCH  12  17
ENDBRANCH   4  10
BRANCH   6  22
ATOM     21  O   UNL     1      37.086 -19.354 -21.295  0.00  0.00    -0.290 OA
ATOM     22  C   UNL     1      35.889 -19.111 -21.545  0.00  0.00    +0.191 C 
BRANCH  22  24
ATOM     23  S   UNL     1      35.311 -21.262 -20.001  0.00  0.00    -0.084 S 
ATOM     24  C   UNL     1      34.828 -19.981 -20.985  0.00  0.00    +0.065 C 
ATOM     25  C   UNL     1      33.502 -19.864 -21.173  0.00  0.00    +0.010 C 
ATOM     26  C   UNL     1      32.812 -20.891 -20.468  0.00  0.00    +0.008 C 
ATOM     27  C   UNL     1      33.674 -21.721 -19.788  0.00  0.00    +0.036 C 
ENDBRANCH  22  24
ENDBRANCH   6  22
TORSDOF 4
ENDMDL
MODEL 3
REMARK VINA RESULT:     -10.7      4.658     10.070
REMARK  Name = 6450813
REMARK  4 active torsions:
REMARK  status: ('A' for Active; 'I' for Inactive)
REMARK    1  A    between atoms: C_4  and  C_10
REMARK    2  A    between atoms: C_6  and  C_22
REMARK    3  A    between atoms: C_12  and  N_17
REMARK    4  A    between atoms: C_22  and  C_24
REMARK                            x       y       z     vdW  Elec       q    Type
REMARK                         _______ _______ _______ _____ _____    ______ ____
ROOT
ATOM      1  N   UNL     1      35.531 -21.612 -18.652  0.00  0.00    -0.191 N 
ATOM      2  N   UNL     1      36.763 -21.249 -18.198  0.00  0.00    -0.179 NA
ATOM      3  N   UNL     1      33.682 -23.024 -18.016  0.00  0.00    -0.231 NA
ATOM      4  C   UNL     1      34.888 -21.199 -19.831  0.00  0.00    +0.143 C 
ATOM      5  C   UNL     1      34.920 -22.511 -17.772  0.00  0.00    +0.141 C 
ATOM      6  C   UNL     1      35.802 -22.703 -16.733  0.00  0.00    +0.161 C 
ATOM      7  C   UNL     1      33.666 -21.681 -20.112  0.00  0.00    +0.020 C 
ATOM      8  C   UNL     1      36.909 -21.908 -17.049  0.00  0.00    +0.106 C 
ATOM      9  C   UNL     1      33.112 -22.628 -19.112  0.00  0.00    +0.097 C 
ENDROOT
BRANCH   4  10
ATOM     10  C   UNL     1      35.514 -20.242 -20.762  0.00  0.00    +0.003 C 
ATOM     11  C   UNL     1      34.750 -19.635 -21.760  0.00  0.00    +0.013 C 
ATOM     12  C   UNL     1      35.341 -18.729 -22.639  0.00  0.00    +0.054 C 
ATOM     13  C   UNL     1      36.871 -19.941 -20.645  0.00  0.00    -0.002 C 
ATOM     14  C   UNL     1      36.698 -18.429 -22.522  0.00  0.00    +0.015 C 
ATOM     15  C   UNL     1      37.464 -19.035 -21.525  0.00  0.00    +0.001 C 
BRANCH  12  17
ATOM     16  O   UNL     1      35.177 -15.889 -23.171  0.00  0.00    -0.275 OA
ATOM     17  N   UNL     1      34.578 -18.123 -23.638  0.00  0.00    -0.257 N 
ATOM     18  C   UNL     1      33.799 -18.997 -24.568  0.00  0.00    +0.120 C 
ATOM     19  C   UNL     1      34.572 -16.705 -23.871  0.00  0.00    +0.230 C 
ATOM     20  C   UNL     1      33.811 -16.181 -25.067  0.00  0.00    +0.095 C 
ENDBRANCH  12  17
ENDBRANCH   4  10
BRANCH   6  22
ATOM     21  O   UNL     1      34.580 -23.448 -14.877  0.00  0.00    -0.290 OA
ATOM     22  C   UNL     1      35.593 -23.548 -15.597  0.00  0.00    +0.191 C 
BRANCH  22  24
ATOM     23  S   UNL     1      36.134 -26.183 -15.261  0.00  0.00    -0.084 S 
ATOM     24  C   UNL     1      36.622 -24.569 -15.285  0.00  0.00    +0.065 C 
ATOM     25  C   UNL     1      37.921 -24.353 -15.016  0.00  0.00    +0.010 C 
ATOM     26  C   UNL     1      38.584 -25.588 -14.768  0.00  0.00    +0.008 C 
ATOM     27  C   UNL     1      37.730 -26.664 -14.868  0.00  0.00    +0.036 C 
ENDBRANCH  22  24
ENDBRANCH   6  22
TORSDOF 4
ENDMDL
MODEL 4
REMARK VINA RESULT:     -10.6      1.511      2.231
REMARK  Name = 6450813
REMARK  4 active torsions:
REMARK  status: ('A' for Active; 'I' for Inactive)
REMARK    1  A    between atoms: C_4  and  C_10
REMARK    2  A    between atoms: C_6  and  C_22
REMARK    3  A    between atoms: C_12  and  N_17
REMARK    4  A    between atoms: C_22  and  C_24
REMARK                            x       y       z     vdW  Elec       q    Type
REMARK                         _______ _______ _______ _____ _____    ______ ____
ROOT
ATOM      1  N   UNL     1      34.410 -15.914 -22.962  0.00  0.00    -0.191 N 
ATOM      2  N   UNL     1      34.658 -15.345 -21.749  0.00  0.00    -0.179 NA
ATOM      3  N   UNL     1      33.515 -15.320 -25.122  0.00  0.00    -0.231 NA
ATOM      4  C   UNL     1      34.635 -17.245 -23.354  0.00  0.00    +0.143 C 
ATOM      5  C   UNL     1      33.857 -14.983 -23.846  0.00  0.00    +0.141 C 
ATOM      6  C   UNL     1      33.769 -13.793 -23.159  0.00  0.00    +0.161 C 
ATOM      7  C   UNL     1      34.312 -17.620 -24.603  0.00  0.00    +0.020 C 
ATOM      8  C   UNL     1      34.272 -14.077 -21.885  0.00  0.00    +0.106 C 
ATOM      9  C   UNL     1      33.732 -16.554 -25.458  0.00  0.00    +0.097 C 
ENDROOT
BRANCH   4  10
ATOM     10  C   UNL     1      35.229 -18.234 -22.437  0.00  0.00    +0.003 C 
ATOM     11  C   UNL     1      34.410 -19.141 -21.761  0.00  0.00    +0.013 C 
ATOM     12  C   UNL     1      34.971 -20.077 -20.894  0.00  0.00    +0.054 C 
ATOM     13  C   UNL     1      36.609 -18.266 -22.244  0.00  0.00    -0.002 C 
ATOM     14  C   UNL     1      36.353 -20.108 -20.701  0.00  0.00    +0.015 C 
ATOM     15  C   UNL     1      37.172 -19.203 -21.376  0.00  0.00    +0.001 C 
BRANCH  12  17
ATOM     16  O   UNL     1      35.864 -22.192 -19.130  0.00  0.00    -0.275 OA
ATOM     17  N   UNL     1      34.153 -20.982 -20.217  0.00  0.00    -0.257 N 
ATOM     18  C   UNL     1      32.671 -20.844 -20.355  0.00  0.00    +0.120 C 
ATOM     19  C   UNL     1      34.663 -21.987 -19.324  0.00  0.00    +0.230 C 
ATOM     20  C   UNL     1      33.671 -22.820 -18.546  0.00  0.00    +0.095 C 
ENDBRANCH  12  17
ENDBRANCH   4  10
BRANCH   6  22
ATOM     21  O   UNL     1      32.410 -11.886 -23.063  0.00  0.00    -0.290 OA
ATOM     22  C   UNL     1      33.262 -12.558 -23.675  0.00  0.00    +0.191 C 
BRANCH  22  24
ATOM     23  S   UNL     1      34.762 -10.707 -24.968  0.00  0.00    -0.084 S 
ATOM     24  C   UNL     1      33.782 -12.079 -24.979  0.00  0.00    +0.065 C 
ATOM     25  C   UNL     1      33.559 -12.622 -26.188  0.00  0.00    +0.010 C 
ATOM     26  C   UNL     1      34.232 -11.873 -27.195  0.00  0.00    +0.008 C 
ATOM     27  C   UNL     1      34.924 -10.805 -26.670  0.00  0.00    +0.036 C 
ENDBRANCH  22  24
ENDBRANCH   6  22
TORSDOF 4
ENDMDL
MODEL 5
REMARK VINA RESULT:     -10.5      3.293      8.869
REMARK  Name = 6450813
REMARK  4 active torsions:
REMARK  status: ('A' for Active; 'I' for Inactive)
REMARK    1  A    between atoms: C_4  and  C_10
REMARK    2  A    between atoms: C_6  and  C_22
REMARK    3  A    between atoms: C_12  and  N_17
REMARK    4  A    between atoms: C_22  and  C_24
REMARK                            x       y       z     vdW  Elec       q    Type
REMARK                         _______ _______ _______ _____ _____    ______ ____
ROOT
ATOM      1  N   UNL     1      34.130 -15.243 -22.832  0.00  0.00    -0.191 N 
ATOM      2  N   UNL     1      34.283 -15.100 -21.486  0.00  0.00    -0.179 NA
ATOM      3  N   UNL     1      34.609 -16.839 -24.576  0.00  0.00    -0.231 NA
ATOM      4  C   UNL     1      33.561 -14.333 -23.739  0.00  0.00    +0.143 C 
ATOM      5  C   UNL     1      34.641 -16.470 -23.265  0.00  0.00    +0.141 C 
ATOM      6  C   UNL     1      35.118 -17.113 -22.145  0.00  0.00    +0.161 C 
ATOM      7  C   UNL     1      33.510 -14.655 -25.042  0.00  0.00    +0.020 C 
ATOM      8  C   UNL     1      34.872 -16.228 -21.090  0.00  0.00    +0.106 C 
ATOM      9  C   UNL     1      34.080 -15.980 -25.392  0.00  0.00    +0.097 C 
ENDROOT
BRANCH   4  10
ATOM     10  C   UNL     1      33.006 -13.040 -23.296  0.00  0.00    +0.003 C 
ATOM     11  C   UNL     1      33.476 -11.850 -23.853  0.00  0.00    +0.013 C 
ATOM     12  C   UNL     1      32.952 -10.628 -23.435  0.00  0.00    +0.054 C 
ATOM     13  C   UNL     1      32.011 -13.006 -22.319  0.00  0.00    -0.002 C 
ATOM     14  C   UNL     1      31.957 -10.595 -22.458  0.00  0.00    +0.015 C 
ATOM     15  C   UNL     1      31.486 -11.784 -21.899  0.00  0.00    +0.001 C 
BRANCH  12  17
ATOM     16  O   UNL     1      33.183  -8.084 -22.072  0.00  0.00    -0.275 OA
ATOM     17  N   UNL     1      33.422  -9.438 -23.991  0.00  0.00    -0.257 N 
ATOM     18  C   UNL     1      33.905  -9.455 -25.406  0.00  0.00    +0.120 C 
ATOM     19  C   UNL     1      33.546  -8.216 -23.244  0.00  0.00    +0.230 C 
ATOM     20  C   UNL     1      34.194  -7.029 -23.919  0.00  0.00    +0.095 C 
ENDBRANCH  12  17
ENDBRANCH   4  10
BRANCH   6  22
ATOM     21  O   UNL     1      36.800 -18.647 -22.706  0.00  0.00    -0.290 OA
ATOM     22  C   UNL     1      35.730 -18.407 -22.113  0.00  0.00    +0.191 C 
BRANCH  22  24
ATOM     23  S   UNL     1      36.033 -20.534 -20.461  0.00  0.00    -0.084 S 
ATOM     24  C   UNL     1      35.056 -19.481 -21.344  0.00  0.00    +0.065 C 
ATOM     25  C   UNL     1      33.735 -19.714 -21.266  0.00  0.00    +0.010 C 
ATOM     26  C   UNL     1      33.482 -20.836 -20.427  0.00  0.00    +0.008 C 
ATOM     27  C   UNL     1      34.643 -21.378 -19.923  0.00  0.00    +0.036 C 
ENDBRANCH  22  24
ENDBRANCH   6  22
TORSDOF 4
ENDMDL
MODEL 6
REMARK VINA RESULT:     -10.3      5.597      9.125
REMARK  Name = 6450813
REMARK  4 active torsions:
REMARK  status: ('A' for Active; 'I' for Inactive)
REMARK    1  A    between atoms: C_4  and  C_10
REMARK    2  A    between atoms: C_6  and  C_22
REMARK    3  A    between atoms: C_12  and  N_17
REMARK    4  A    between atoms: C_22  and  C_24
REMARK                            x       y       z     vdW  Elec       q    Type
REMARK                         _______ _______ _______ _____ _____    ______ ____
ROOT
ATOM      1  N   UNL     1      33.731 -23.030 -17.247  0.00  0.00    -0.191 N 
ATOM      2  N   UNL     1      32.765 -22.990 -18.208  0.00  0.00    -0.179 NA
ATOM      3  N   UNL     1      36.062 -22.483 -16.963  0.00  0.00    -0.231 NA
ATOM      4  C   UNL     1      33.617 -23.495 -15.926  0.00  0.00    +0.143 C 
ATOM      5  C   UNL     1      34.943 -22.537 -17.738  0.00  0.00    +0.141 C 
ATOM      6  C   UNL     1      34.716 -22.170 -19.046  0.00  0.00    +0.161 C 
ATOM      7  C   UNL     1      34.697 -23.461 -15.127  0.00  0.00    +0.020 C 
ATOM      8  C   UNL     1      33.369 -22.471 -19.275  0.00  0.00    +0.106 C 
ATOM      9  C   UNL     1      35.931 -22.920 -15.749  0.00  0.00    +0.097 C 
ENDROOT
BRANCH   4  10
ATOM     10  C   UNL     1      32.342 -24.007 -15.390  0.00  0.00    +0.003 C 
ATOM     11  C   UNL     1      31.139 -23.683 -16.020  0.00  0.00    +0.013 C 
ATOM     12  C   UNL     1      29.934 -24.167 -15.514  0.00  0.00    +0.054 C 
ATOM     13  C   UNL     1      32.337 -24.815 -14.254  0.00  0.00    -0.002 C 
ATOM     14  C   UNL     1      29.930 -24.975 -14.377  0.00  0.00    +0.015 C 
ATOM     15  C   UNL     1      31.132 -25.300 -13.746  0.00  0.00    +0.001 C 
BRANCH  12  17
ATOM     16  O   UNL     1      28.369 -21.772 -15.069  0.00  0.00    -0.275 OA
ATOM     17  N   UNL     1      28.731 -23.843 -16.142  0.00  0.00    -0.257 N 
ATOM     18  C   UNL     1      28.197 -24.774 -17.183  0.00  0.00    +0.120 C 
ATOM     19  C   UNL     1      28.023 -22.615 -15.901  0.00  0.00    +0.230 C 
ATOM     20  C   UNL     1      26.803 -22.317 -16.741  0.00  0.00    +0.095 C 
ENDBRANCH  12  17
ENDBRANCH   4  10
BRANCH   6  22
ATOM     21  O   UNL     1      36.818 -22.101 -20.082  0.00  0.00    -0.290 OA
ATOM     22  C   UNL     1      35.681 -21.609 -19.942  0.00  0.00    +0.191 C 
BRANCH  22  24
ATOM     23  S   UNL     1      36.513 -19.306 -21.105  0.00  0.00    -0.084 S 
ATOM     24  C   UNL     1      35.296 -20.408 -20.722  0.00  0.00    +0.065 C 
ATOM     25  C   UNL     1      34.068 -20.092 -21.167  0.00  0.00    +0.010 C 
ATOM     26  C   UNL     1      34.105 -18.858 -21.877  0.00  0.00    +0.008 C 
ATOM     27  C   UNL     1      35.372 -18.322 -21.919  0.00  0.00    +0.036 C 
ENDBRANCH  22  24
ENDBRANCH   6  22
TORSDOF 4
ENDMDL
MODEL 7
REMARK VINA RESULT:     -10.2      3.427      8.854
REMARK  Name = 6450813
REMARK  4 active torsions:
REMARK  status: ('A' for Active; 'I' for Inactive)
REMARK    1  A    between atoms: C_4  and  C_10
REMARK    2  A    between atoms: C_6  and  C_22
REMARK    3  A    between atoms: C_12  and  N_17
REMARK    4  A    between atoms: C_22  and  C_24
REMARK                            x       y       z     vdW  Elec       q    Type
REMARK                         _______ _______ _______ _____ _____    ______ ____
ROOT
ATOM      1  N   UNL     1      34.186 -20.981 -20.192  0.00  0.00    -0.191 N 
ATOM      2  N   UNL     1      32.844 -20.917 -20.421  0.00  0.00    -0.179 NA
ATOM      3  N   UNL     1      35.749 -22.088 -18.727  0.00  0.00    -0.231 NA
ATOM      4  C   UNL     1      35.210 -20.286 -20.858  0.00  0.00    +0.143 C 
ATOM      5  C   UNL     1      34.472 -21.863 -19.146  0.00  0.00    +0.141 C 
ATOM      6  C   UNL     1      33.265 -22.369 -18.718  0.00  0.00    +0.161 C 
ATOM      7  C   UNL     1      36.484 -20.479 -20.477  0.00  0.00    +0.020 C 
ATOM      8  C   UNL     1      32.309 -21.754 -19.533  0.00  0.00    +0.106 C 
ATOM      9  C   UNL     1      36.675 -21.434 -19.357  0.00  0.00    +0.097 C 
ENDROOT
BRANCH   4  10
ATOM     10  C   UNL     1      34.924 -19.363 -21.972  0.00  0.00    +0.003 C 
ATOM     11  C   UNL     1      34.844 -17.990 -21.739  0.00  0.00    +0.013 C 
ATOM     12  C   UNL     1      34.574 -17.117 -22.792  0.00  0.00    +0.054 C 
ATOM     13  C   UNL     1      34.735 -19.862 -23.260  0.00  0.00    -0.002 C 
ATOM     14  C   UNL     1      34.384 -17.617 -24.080  0.00  0.00    +0.015 C 
ATOM     15  C   UNL     1      34.464 -18.990 -24.315  0.00  0.00    +0.001 C 
BRANCH  12  17
ATOM     16  O   UNL     1      34.340 -15.056 -24.811  0.00  0.00    -0.275 OA
ATOM     17  N   UNL     1      34.493 -15.743 -22.559  0.00  0.00    -0.257 N 
ATOM     18  C   UNL     1      34.472 -15.261 -21.144  0.00  0.00    +0.120 C 
ATOM     19  C   UNL     1      34.339 -14.775 -23.610  0.00  0.00    +0.230 C 
ATOM     20  C   UNL     1      34.126 -13.329 -23.224  0.00  0.00    +0.095 C 
ENDBRANCH  12  17
ENDBRANCH   4  10
BRANCH   6  22
ATOM     21  O   UNL     1      33.866 -24.261 -17.472  0.00  0.00    -0.290 OA
ATOM     22  C   UNL     1      33.077 -23.315 -17.661  0.00  0.00    +0.191 C 
BRANCH  22  24
ATOM     23  S   UNL     1      32.163 -23.255 -15.110  0.00  0.00    -0.084 S 
ATOM     24  C   UNL     1      31.902 -23.146 -16.772  0.00  0.00    +0.065 C 
ATOM     25  C   UNL     1      30.633 -22.910 -17.145  0.00  0.00    +0.010 C 
ATOM     26  C   UNL     1      29.794 -22.809 -15.998  0.00  0.00    +0.008 C 
ATOM     27  C   UNL     1      30.497 -22.976 -14.826  0.00  0.00    +0.036 C 
ENDBRANCH  22  24
ENDBRANCH   6  22
TORSDOF 4
ENDMDL
MODEL 8
REMARK VINA RESULT:     -10.0      9.650     12.323
REMARK  Name = 6450813
REMARK  4 active torsions:
REMARK  status: ('A' for Active; 'I' for Inactive)
REMARK    1  A    between atoms: C_4  and  C_10
REMARK    2  A    between atoms: C_6  and  C_22
REMARK    3  A    between atoms: C_12  and  N_17
REMARK    4  A    between atoms: C_22  and  C_24
REMARK                            x       y       z     vdW  Elec       q    Type
REMARK                         _______ _______ _______ _____ _____    ______ ____
ROOT
ATOM      1  N   UNL     1      33.583 -23.866 -14.615  0.00  0.00    -0.191 N 
ATOM      2  N   UNL     1      33.379 -24.264 -13.328  0.00  0.00    -0.179 NA
ATOM      3  N   UNL     1      35.360 -23.045 -16.023  0.00  0.00    -0.231 NA
ATOM      4  C   UNL     1      32.645 -23.802 -15.659  0.00  0.00    +0.143 C 
ATOM      5  C   UNL     1      34.914 -23.488 -14.815  0.00  0.00    +0.141 C 
ATOM      6  C   UNL     1      35.558 -23.668 -13.611  0.00  0.00    +0.161 C 
ATOM      7  C   UNL     1      33.042 -23.369 -16.867  0.00  0.00    +0.020 C 
ATOM      8  C   UNL     1      34.569 -24.142 -12.742  0.00  0.00    +0.106 C 
ATOM      9  C   UNL     1      34.474 -22.993 -16.969  0.00  0.00    +0.097 C 
ENDROOT
BRANCH   4  10
ATOM     10  C   UNL     1      31.241 -24.209 -15.467  0.00  0.00    +0.003 C 
ATOM     11  C   UNL     1      30.206 -23.352 -15.845  0.00  0.00    +0.013 C 
ATOM     12  C   UNL     1      28.879 -23.738 -15.664  0.00  0.00    +0.054 C 
ATOM     13  C   UNL     1      30.945 -25.452 -14.907  0.00  0.00    -0.002 C 
ATOM     14  C   UNL     1      28.584 -24.981 -15.104  0.00  0.00    +0.015 C 
ATOM     15  C   UNL     1      29.617 -25.839 -14.725  0.00  0.00    +0.001 C 
BRANCH  12  17
ATOM     16  O   UNL     1      27.854 -23.380 -18.347  0.00  0.00    -0.275 OA
ATOM     17  N   UNL     1      27.843 -22.881 -16.041  0.00  0.00    -0.257 N 
ATOM     18  C   UNL     1      27.144 -22.097 -14.976  0.00  0.00    +0.120 C 
ATOM     19  C   UNL     1      27.358 -22.780 -17.390  0.00  0.00    +0.230 C 
ATOM     20  C   UNL     1      26.144 -21.918 -17.649  0.00  0.00    +0.095 C 
ENDBRANCH  12  17
ENDBRANCH   4  10
BRANCH   6  22
ATOM     21  O   UNL     1      37.312 -22.438 -12.660  0.00  0.00    -0.290 OA
ATOM     22  C   UNL     1      36.941 -23.408 -13.349  0.00  0.00    +0.191 C 
BRANCH  22  24
ATOM     23  S   UNL     1      38.337 -25.708 -13.023  0.00  0.00    -0.084 S 
ATOM     24  C   UNL     1      37.947 -24.335 -13.920  0.00  0.00    +0.065 C 
ATOM     25  C   UNL     1      38.594 -24.205 -15.091  0.00  0.00    +0.010 C 
ATOM     26  C   UNL     1      39.481 -25.302 -15.287  0.00  0.00    +0.008 C 
ATOM     27  C   UNL     1      39.441 -26.194 -14.239  0.00  0.00    +0.036 C 
ENDBRANCH  22  24
ENDBRANCH   6  22
TORSDOF 4
ENDMDL
MODEL 9
REMARK VINA RESULT:     -10.0      4.053      8.976
REMARK  Name = 6450813
REMARK  4 active torsions:
REMARK  status: ('A' for Active; 'I' for Inactive)
REMARK    1  A    between atoms: C_4  and  C_10
REMARK    2  A    between atoms: C_6  and  C_22
REMARK    3  A    between atoms: C_12  and  N_17
REMARK    4  A    between atoms: C_22  and  C_24
REMARK                            x       y       z     vdW  Elec       q    Type
REMARK                         _______ _______ _______ _____ _____    ______ ____
ROOT
ATOM      1  N   UNL     1      33.866 -12.363 -24.777  0.00  0.00    -0.191 N 
ATOM      2  N   UNL     1      33.910 -12.600 -23.436  0.00  0.00    -0.179 NA
ATOM      3  N   UNL     1      33.806 -13.584 -26.856  0.00  0.00    -0.231 NA
ATOM      4  C   UNL     1      33.852 -11.122 -25.436  0.00  0.00    +0.143 C 
ATOM      5  C   UNL     1      33.843 -13.563 -25.495  0.00  0.00    +0.141 C 
ATOM      6  C   UNL     1      33.866 -14.577 -24.564  0.00  0.00    +0.161 C 
ATOM      7  C   UNL     1      33.816 -11.096 -26.779  0.00  0.00    +0.020 C 
ATOM      8  C   UNL     1      33.907 -13.927 -23.325  0.00  0.00    +0.106 C 
ATOM      9  C   UNL     1      33.796 -12.425 -27.440  0.00  0.00    +0.097 C 
ENDROOT
BRANCH   4  10
ATOM     10  C   UNL     1      33.862  -9.849 -24.692  0.00  0.00    +0.003 C 
ATOM     11  C   UNL     1      33.194  -9.748 -23.470  0.00  0.00    +0.013 C 
ATOM     12  C   UNL     1      33.204  -8.544 -22.767  0.00  0.00    +0.054 C 
ATOM     13  C   UNL     1      34.539  -8.745 -25.209  0.00  0.00    -0.002 C 
ATOM     14  C   UNL     1      33.881  -7.440 -23.285  0.00  0.00    +0.015 C 
ATOM     15  C   UNL     1      34.549  -7.539 -24.506  0.00  0.00    +0.001 C 
BRANCH  12  17
ATOM     16  O   UNL     1      31.266 -10.423 -21.721  0.00  0.00    -0.275 OA
ATOM     17  N   UNL     1      32.536  -8.442 -21.546  0.00  0.00    -0.257 N 
ATOM     18  C   UNL     1      32.866  -7.292 -20.648  0.00  0.00    +0.120 C 
ATOM     19  C   UNL     1      31.611  -9.434 -21.070  0.00  0.00    +0.230 C 
ATOM     20  C   UNL     1      31.055  -9.279 -19.673  0.00  0.00    +0.095 C 
ENDBRANCH  12  17
ENDBRANCH   4  10
BRANCH   6  22
ATOM     21  O   UNL     1      33.343 -16.439 -25.888  0.00  0.00    -0.290 OA
ATOM     22  C   UNL     1      33.852 -15.980 -24.847  0.00  0.00    +0.191 C 
BRANCH  22  24
ATOM     23  S   UNL     1      34.311 -18.554 -24.134  0.00  0.00    -0.084 S 
ATOM     24  C   UNL     1      34.472 -16.898 -23.862  0.00  0.00    +0.065 C 
ATOM     25  C   UNL     1      35.158 -16.557 -22.758  0.00  0.00    +0.010 C 
ATOM     26  C   UNL     1      35.594 -17.725 -22.069  0.00  0.00    +0.008 C 
ATOM     27  C   UNL     1      35.202 -18.880 -22.708  0.00  0.00    +0.036 C 
ENDBRANCH  22  24
ENDBRANCH   6  22
TORSDOF 4
ENDMDL
