MODEL 1
REMARK VINA RESULT:     -11.8      0.000      0.000
REMARK  Name = 54726191
REMARK  4 active torsions:
REMARK  status: ('A' for Active; 'I' for Inactive)
REMARK    1  A    between atoms: C_15  and  O_31
REMARK    2  A    between atoms: C_16  and  C_20
REMARK    3  A    between atoms: N_19  and  C_22
REMARK    4  A    between atoms: C_22  and  C_25
REMARK                            x       y       z     vdW  Elec       q    Type
REMARK                         _______ _______ _______ _____ _____    ______ ____
ROOT
ATOM      1  O   UNL     1      37.122 -23.020 -16.121  0.00  0.00    -0.336 OA
ATOM      2  O   UNL     1      33.044 -23.551 -18.391  0.00  0.00    -0.268 OA
ATOM      3  O   UNL     1      33.286 -19.812 -21.837  0.00  0.00    -0.283 OA
ATOM      4  N   UNL     1      34.931 -23.137 -17.115  0.00  0.00    -0.253 N 
ATOM      5  N   UNL     1      35.856 -21.417 -19.145  0.00  0.00    -0.275 N 
ATOM      6  C   UNL     1      36.140 -22.333 -16.907  0.00  0.00    +0.215 C 
ATOM      7  C   UNL     1      34.415 -23.920 -15.978  0.00  0.00    +0.080 C 
ATOM      8  C   UNL     1      35.551 -24.529 -15.155  0.00  0.00    +0.052 C 
ATOM      9  C   UNL     1      36.812 -22.034 -18.237  0.00  0.00    +0.147 C 
ATOM     10  C   UNL     1      36.626 -23.497 -14.878  0.00  0.00    +0.146 C 
ATOM     11  C   UNL     1      34.091 -22.928 -18.218  0.00  0.00    +0.267 C 
ATOM     12  C   UNL     1      34.532 -21.862 -19.194  0.00  0.00    +0.143 C 
ATOM     13  C   UNL     1      33.487 -23.060 -15.110  0.00  0.00    +0.022 C 
ATOM     14  C   UNL     1      36.273 -20.446 -20.046  0.00  0.00    +0.074 C 
ATOM     15  C   UNL     1      33.629 -21.363 -20.068  0.00  0.00    +0.191 C 
ATOM     16  C   UNL     1      35.490 -19.867 -20.964  0.00  0.00    +0.110 C 
ATOM     17  C   UNL     1      34.070 -20.301 -21.028  0.00  0.00    +0.236 C 
ENDROOT
BRANCH  16  20
ATOM     18  O   UNL     1      37.289 -18.677 -21.892  0.00  0.00    -0.270 OA
ATOM     19  N   UNL     1      35.119 -18.159 -22.573  0.00  0.00    -0.297 N 
ATOM     20  C   UNL     1      36.071 -18.854 -21.843  0.00  0.00    +0.251 C 
ATOM     21  H   UNL     1      34.172 -18.393 -22.445  0.00  0.00    +0.150 HD
BRANCH  19  22
ATOM     22  C   UNL     1      35.445 -17.107 -23.510  0.00  0.00    +0.119 C 
BRANCH  22  25
ATOM     23  F   UNL     1      34.001 -15.815 -25.571  0.00  0.00    -0.204 F 
ATOM     24  F   UNL     1      32.355 -12.481 -22.644  0.00  0.00    -0.204 F 
ATOM     25  C   UNL     1      34.622 -15.874 -23.280  0.00  0.00    +0.025 C 
ATOM     26  C   UNL     1      33.933 -15.286 -24.342  0.00  0.00    +0.140 C 
ATOM     27  C   UNL     1      34.544 -15.317 -22.004  0.00  0.00    +0.002 C 
ATOM     28  C   UNL     1      33.168 -14.140 -24.127  0.00  0.00    +0.059 C 
ATOM     29  C   UNL     1      33.778 -14.170 -21.789  0.00  0.00    +0.030 C 
ATOM     30  C   UNL     1      33.090 -13.581 -22.850  0.00  0.00    +0.142 C 
ENDBRANCH  22  25
ENDBRANCH  19  22
ENDBRANCH  16  20
BRANCH  15  31
ATOM     31  O   UNL     1      32.312 -21.758 -20.127  0.00  0.00    -0.502 OA
ATOM     32  H   UNL     1      31.735 -21.371 -20.756  0.00  0.00    +0.292 HD
ENDBRANCH  15  31
TORSDOF 4
ENDMDL
MODEL 2
REMARK VINA RESULT:     -11.4      5.916     11.844
REMARK  Name = 54726191
REMARK  4 active torsions:
REMARK  status: ('A' for Active; 'I' for Inactive)
REMARK    1  A    between atoms: C_15  and  O_31
REMARK    2  A    between atoms: C_16  and  C_20
REMARK    3  A    between atoms: N_19  and  C_22
REMARK    4  A    between atoms: C_22  and  C_25
REMARK                            x       y       z     vdW  Elec       q    Type
REMARK                         _______ _______ _______ _____ _____    ______ ____
ROOT
ATOM      1  O   UNL     1      33.905  -7.059 -25.503  0.00  0.00    -0.336 OA
ATOM      2  O   UNL     1      32.266  -8.914 -21.510  0.00  0.00    -0.268 OA
ATOM      3  O   UNL     1      32.202 -13.879 -22.630  0.00  0.00    -0.283 OA
ATOM      4  N   UNL     1      32.834  -7.980 -23.551  0.00  0.00    -0.253 N 
ATOM      5  N   UNL     1      33.607 -10.538 -24.443  0.00  0.00    -0.275 N 
ATOM      6  C   UNL     1      33.217  -8.189 -24.951  0.00  0.00    +0.215 C 
ATOM      7  C   UNL     1      32.313  -6.656 -23.165  0.00  0.00    +0.080 C 
ATOM      8  C   UNL     1      33.057  -5.529 -23.883  0.00  0.00    +0.052 C 
ATOM      9  C   UNL     1      34.184  -9.356 -25.068  0.00  0.00    +0.147 C 
ATOM     10  C   UNL     1      33.196  -5.835 -25.361  0.00  0.00    +0.146 C 
ATOM     11  C   UNL     1      32.637  -9.057 -22.675  0.00  0.00    +0.267 C 
ATOM     12  C   UNL     1      32.887 -10.432 -23.250  0.00  0.00    +0.143 C 
ATOM     13  C   UNL     1      30.801  -6.581 -23.411  0.00  0.00    +0.022 C 
ATOM     14  C   UNL     1      33.851 -11.798 -24.971  0.00  0.00    +0.074 C 
ATOM     15  C   UNL     1      32.392 -11.509 -22.601  0.00  0.00    +0.191 C 
ATOM     16  C   UNL     1      33.425 -12.948 -24.436  0.00  0.00    +0.110 C 
ATOM     17  C   UNL     1      32.636 -12.871 -23.178  0.00  0.00    +0.236 C 
ENDROOT
BRANCH  16  20
ATOM     18  O   UNL     1      33.435 -14.398 -26.284  0.00  0.00    -0.270 OA
ATOM     19  N   UNL     1      34.444 -15.090 -24.298  0.00  0.00    -0.297 N 
ATOM     20  C   UNL     1      33.757 -14.202 -25.110  0.00  0.00    +0.251 C 
ATOM     21  H   UNL     1      34.644 -14.817 -23.374  0.00  0.00    +0.150 HD
BRANCH  19  22
ATOM     22  C   UNL     1      34.882 -16.396 -24.736  0.00  0.00    +0.119 C 
BRANCH  22  25
ATOM     23  F   UNL     1      34.089 -19.088 -25.090  0.00  0.00    -0.204 F 
ATOM     24  F   UNL     1      34.839 -20.150 -20.541  0.00  0.00    -0.204 F 
ATOM     25  C   UNL     1      34.870 -17.398 -23.619  0.00  0.00    +0.025 C 
ATOM     26  C   UNL     1      34.467 -18.711 -23.862  0.00  0.00    +0.140 C 
ATOM     27  C   UNL     1      35.263 -17.014 -22.337  0.00  0.00    +0.002 C 
ATOM     28  C   UNL     1      34.457 -19.641 -22.822  0.00  0.00    +0.059 C 
ATOM     29  C   UNL     1      35.253 -17.944 -21.297  0.00  0.00    +0.030 C 
ATOM     30  C   UNL     1      34.849 -19.258 -21.539  0.00  0.00    +0.142 C 
ENDBRANCH  22  25
ENDBRANCH  19  22
ENDBRANCH  16  20
BRANCH  15  31
ATOM     31  O   UNL     1      31.657 -11.442 -21.439  0.00  0.00    -0.502 OA
ATOM     32  H   UNL     1      31.903 -10.844 -20.762  0.00  0.00    +0.292 HD
ENDBRANCH  15  31
TORSDOF 4
ENDMDL
MODEL 3
REMARK VINA RESULT:     -10.8      3.347      5.091
REMARK  Name = 54726191
REMARK  4 active torsions:
REMARK  status: ('A' for Active; 'I' for Inactive)
REMARK    1  A    between atoms: C_15  and  O_31
REMARK    2  A    between atoms: C_16  and  C_20
REMARK    3  A    between atoms: N_19  and  C_22
REMARK    4  A    between atoms: C_22  and  C_25
REMARK                            x       y       z     vdW  Elec       q    Type
REMARK                         _______ _______ _______ _____ _____    ______ ____
ROOT
ATOM      1  O   UNL     1      37.610 -24.842 -13.813  0.00  0.00    -0.336 OA
ATOM      2  O   UNL     1      32.988 -24.795 -12.975  0.00  0.00    -0.268 OA
ATOM      3  O   UNL     1      31.185 -22.717 -17.258  0.00  0.00    -0.283 OA
ATOM      4  N   UNL     1      35.274 -24.591 -13.281  0.00  0.00    -0.253 N 
ATOM      5  N   UNL     1      34.804 -24.042 -16.003  0.00  0.00    -0.275 N 
ATOM      6  C   UNL     1      36.382 -24.189 -14.155  0.00  0.00    +0.215 C 
ATOM      7  C   UNL     1      35.547 -24.739 -11.840  0.00  0.00    +0.080 C 
ATOM      8  C   UNL     1      36.922 -25.360 -11.590  0.00  0.00    +0.052 C 
ATOM      9  C   UNL     1      36.091 -24.583 -15.593  0.00  0.00    +0.147 C 
ATOM     10  C   UNL     1      37.977 -24.690 -12.448  0.00  0.00    +0.146 C 
ATOM     11  C   UNL     1      33.940 -24.513 -13.704  0.00  0.00    +0.267 C 
ATOM     12  C   UNL     1      33.720 -24.036 -15.121  0.00  0.00    +0.143 C 
ATOM     13  C   UNL     1      35.397 -23.392 -11.123  0.00  0.00    +0.022 C 
ATOM     14  C   UNL     1      34.608 -23.616 -17.310  0.00  0.00    +0.074 C 
ATOM     15  C   UNL     1      32.491 -23.604 -15.480  0.00  0.00    +0.191 C 
ATOM     16  C   UNL     1      33.448 -23.165 -17.803  0.00  0.00    +0.110 C 
ATOM     17  C   UNL     1      32.281 -23.125 -16.885  0.00  0.00    +0.236 C 
ENDROOT
BRANCH  16  20
ATOM     18  O   UNL     1      33.577 -23.553 -20.116  0.00  0.00    -0.270 OA
ATOM     19  N   UNL     1      33.130 -21.394 -19.354  0.00  0.00    -0.297 N 
ATOM     20  C   UNL     1      33.396 -22.746 -19.203  0.00  0.00    +0.251 C 
ATOM     21  H   UNL     1      33.004 -20.850 -18.544  0.00  0.00    +0.150 HD
BRANCH  19  22
ATOM     22  C   UNL     1      33.030 -20.741 -20.640  0.00  0.00    +0.119 C 
BRANCH  22  25
ATOM     23  F   UNL     1      33.330 -19.237 -23.018  0.00  0.00    -0.204 F 
ATOM     24  F   UNL     1      37.957 -18.570 -22.288  0.00  0.00    -0.204 F 
ATOM     25  C   UNL     1      34.343 -20.162 -21.081  0.00  0.00    +0.025 C 
ATOM     26  C   UNL     1      34.421 -19.429 -22.266  0.00  0.00    +0.140 C 
ATOM     27  C   UNL     1      35.485 -20.356 -20.303  0.00  0.00    +0.002 C 
ATOM     28  C   UNL     1      35.643 -18.892 -22.673  0.00  0.00    +0.059 C 
ATOM     29  C   UNL     1      36.706 -19.818 -20.712  0.00  0.00    +0.030 C 
ATOM     30  C   UNL     1      36.785 -19.087 -21.896  0.00  0.00    +0.142 C 
ENDBRANCH  22  25
ENDBRANCH  19  22
ENDBRANCH  16  20
BRANCH  15  31
ATOM     31  O   UNL     1      31.408 -23.559 -14.632  0.00  0.00    -0.502 OA
ATOM     32  H   UNL     1      31.428 -23.006 -13.876  0.00  0.00    +0.292 HD
ENDBRANCH  15  31
TORSDOF 4
ENDMDL
MODEL 4
REMARK VINA RESULT:     -10.7      4.223     10.224
REMARK  Name = 54726191
REMARK  4 active torsions:
REMARK  status: ('A' for Active; 'I' for Inactive)
REMARK    1  A    between atoms: C_15  and  O_31
REMARK    2  A    between atoms: C_16  and  C_20
REMARK    3  A    between atoms: N_19  and  C_22
REMARK    4  A    between atoms: C_22  and  C_25
REMARK                            x       y       z     vdW  Elec       q    Type
REMARK                         _______ _______ _______ _____ _____    ______ ____
ROOT
ATOM      1  O   UNL     1      34.055 -10.436 -23.674  0.00  0.00    -0.336 OA
ATOM      2  O   UNL     1      32.731 -13.766 -26.712  0.00  0.00    -0.268 OA
ATOM      3  O   UNL     1      34.488 -17.977 -24.456  0.00  0.00    -0.283 OA
ATOM      4  N   UNL     1      33.596 -12.107 -25.348  0.00  0.00    -0.253 N 
ATOM      5  N   UNL     1      34.166 -14.074 -23.413  0.00  0.00    -0.275 N 
ATOM      6  C   UNL     1      34.353 -11.757 -24.140  0.00  0.00    +0.215 C 
ATOM      7  C   UNL     1      33.437 -11.075 -26.388  0.00  0.00    +0.080 C 
ATOM      8  C   UNL     1      33.218  -9.691 -25.778  0.00  0.00    +0.052 C 
ATOM      9  C   UNL     1      33.987 -12.690 -22.998  0.00  0.00    +0.147 C 
ATOM     10  C   UNL     1      34.215  -9.431 -24.666  0.00  0.00    +0.146 C 
ATOM     11  C   UNL     1      33.319 -13.440 -25.680  0.00  0.00    +0.267 C 
ATOM     12  C   UNL     1      33.806 -14.483 -24.700  0.00  0.00    +0.143 C 
ATOM     13  C   UNL     1      34.636 -11.088 -27.344  0.00  0.00    +0.022 C 
ATOM     14  C   UNL     1      34.604 -15.027 -22.504  0.00  0.00    +0.074 C 
ATOM     15  C   UNL     1      33.893 -15.769 -25.106  0.00  0.00    +0.191 C 
ATOM     16  C   UNL     1      34.738 -16.332 -22.767  0.00  0.00    +0.110 C 
ATOM     17  C   UNL     1      34.385 -16.798 -24.133  0.00  0.00    +0.236 C 
ENDROOT
BRANCH  16  20
ATOM     18  O   UNL     1      35.094 -16.910 -20.518  0.00  0.00    -0.270 OA
ATOM     19  N   UNL     1      35.791 -18.382 -22.188  0.00  0.00    -0.297 N 
ATOM     20  C   UNL     1      35.216 -17.217 -21.705  0.00  0.00    +0.251 C 
ATOM     21  H   UNL     1      35.830 -18.513 -23.163  0.00  0.00    +0.150 HD
BRANCH  19  22
ATOM     22  C   UNL     1      36.339 -19.412 -21.335  0.00  0.00    +0.119 C 
BRANCH  22  25
ATOM     23  F   UNL     1      36.889 -21.517 -19.526  0.00  0.00    -0.204 F 
ATOM     24  F   UNL     1      32.306 -22.567 -18.993  0.00  0.00    -0.204 F 
ATOM     25  C   UNL     1      35.265 -20.254 -20.710  0.00  0.00    +0.025 C 
ATOM     26  C   UNL     1      35.605 -21.278 -19.825  0.00  0.00    +0.140 C 
ATOM     27  C   UNL     1      33.925 -20.011 -21.014  0.00  0.00    +0.002 C 
ATOM     28  C   UNL     1      34.605 -22.059 -19.245  0.00  0.00    +0.059 C 
ATOM     29  C   UNL     1      32.926 -20.793 -20.434  0.00  0.00    +0.030 C 
ATOM     30  C   UNL     1      33.265 -21.817 -19.550  0.00  0.00    +0.142 C 
ENDBRANCH  22  25
ENDBRANCH  19  22
ENDBRANCH  16  20
BRANCH  15  31
ATOM     31  O   UNL     1      33.573 -16.204 -26.373  0.00  0.00    -0.502 OA
ATOM     32  H   UNL     1      33.849 -17.051 -26.661  0.00  0.00    +0.292 HD
ENDBRANCH  15  31
TORSDOF 4
ENDMDL
MODEL 5
REMARK VINA RESULT:     -10.4      3.910      9.424
REMARK  Name = 54726191
REMARK  4 active torsions:
REMARK  status: ('A' for Active; 'I' for Inactive)
REMARK    1  A    between atoms: C_15  and  O_31
REMARK    2  A    between atoms: C_16  and  C_20
REMARK    3  A    between atoms: N_19  and  C_22
REMARK    4  A    between atoms: C_22  and  C_25
REMARK                            x       y       z     vdW  Elec       q    Type
REMARK                         _______ _______ _______ _____ _____    ______ ____
ROOT
ATOM      1  O   UNL     1      33.955 -12.704 -22.965  0.00  0.00    -0.336 OA
ATOM      2  O   UNL     1      32.914 -16.339 -25.753  0.00  0.00    -0.268 OA
ATOM      3  O   UNL     1      35.569 -20.099 -23.580  0.00  0.00    -0.283 OA
ATOM      4  N   UNL     1      33.619 -14.501 -24.535  0.00  0.00    -0.253 N 
ATOM      5  N   UNL     1      34.701 -16.259 -22.618  0.00  0.00    -0.275 N 
ATOM      6  C   UNL     1      34.422 -13.978 -23.424  0.00  0.00    +0.215 C 
ATOM      7  C   UNL     1      33.186 -13.557 -25.581  0.00  0.00    +0.080 C 
ATOM      8  C   UNL     1      32.799 -12.202 -24.989  0.00  0.00    +0.052 C 
ATOM      9  C   UNL     1      34.334 -14.906 -22.224  0.00  0.00    +0.147 C 
ATOM     10  C   UNL     1      33.844 -11.732 -23.996  0.00  0.00    +0.146 C 
ATOM     11  C   UNL     1      33.538 -15.875 -24.799  0.00  0.00    +0.267 C 
ATOM     12  C   UNL     1      34.289 -16.778 -23.848  0.00  0.00    +0.143 C 
ATOM     13  C   UNL     1      34.269 -13.415 -26.657  0.00  0.00    +0.022 C 
ATOM     14  C   UNL     1      35.381 -17.085 -21.734  0.00  0.00    +0.074 C 
ATOM     15  C   UNL     1      34.550 -18.050 -24.225  0.00  0.00    +0.191 C 
ATOM     16  C   UNL     1      35.706 -18.361 -21.973  0.00  0.00    +0.110 C 
ATOM     17  C   UNL     1      35.302 -18.939 -23.282  0.00  0.00    +0.236 C 
ENDROOT
BRANCH  16  20
ATOM     18  O   UNL     1      37.436 -18.640 -20.410  0.00  0.00    -0.270 OA
ATOM     19  N   UNL     1      35.860 -20.340 -20.667  0.00  0.00    -0.297 N 
ATOM     20  C   UNL     1      36.429 -19.107 -20.944  0.00  0.00    +0.251 C 
ATOM     21  H   UNL     1      35.052 -20.602 -21.164  0.00  0.00    +0.150 HD
BRANCH  19  22
ATOM     22  C   UNL     1      36.393 -21.261 -19.689  0.00  0.00    +0.119 C 
BRANCH  22  25
ATOM     23  F   UNL     1      36.777 -22.242 -17.063  0.00  0.00    -0.204 F 
ATOM     24  F   UNL     1      32.318 -23.791 -16.740  0.00  0.00    -0.204 F 
ATOM     25  C   UNL     1      35.308 -21.936 -18.902  0.00  0.00    +0.025 C 
ATOM     26  C   UNL     1      35.565 -22.397 -17.610  0.00  0.00    +0.140 C 
ATOM     27  C   UNL     1      34.041 -22.100 -19.463  0.00  0.00    +0.002 C 
ATOM     28  C   UNL     1      34.554 -23.024 -16.880  0.00  0.00    +0.059 C 
ATOM     29  C   UNL     1      33.031 -22.727 -18.732  0.00  0.00    +0.030 C 
ATOM     30  C   UNL     1      33.287 -23.189 -17.441  0.00  0.00    +0.142 C 
ENDBRANCH  22  25
ENDBRANCH  19  22
ENDBRANCH  16  20
BRANCH  15  31
ATOM     31  O   UNL     1      34.183 -18.587 -25.438  0.00  0.00    -0.502 OA
ATOM     32  H   UNL     1      34.014 -19.506 -25.512  0.00  0.00    +0.292 HD
ENDBRANCH  15  31
TORSDOF 4
ENDMDL
MODEL 6
REMARK VINA RESULT:     -10.4      5.962     10.498
REMARK  Name = 54726191
REMARK  4 active torsions:
REMARK  status: ('A' for Active; 'I' for Inactive)
REMARK    1  A    between atoms: C_15  and  O_31
REMARK    2  A    between atoms: C_16  and  C_20
REMARK    3  A    between atoms: N_19  and  C_22
REMARK    4  A    between atoms: C_22  and  C_25
REMARK                            x       y       z     vdW  Elec       q    Type
REMARK                         _______ _______ _______ _____ _____    ______ ____
ROOT
ATOM      1  O   UNL     1      31.237 -11.174 -19.610  0.00  0.00    -0.336 OA
ATOM      2  O   UNL     1      31.944  -8.732 -23.560  0.00  0.00    -0.268 OA
ATOM      3  O   UNL     1      34.219 -12.193 -26.519  0.00  0.00    -0.283 OA
ATOM      4  N   UNL     1      31.820  -9.852 -21.537  0.00  0.00    -0.253 N 
ATOM      5  N   UNL     1      32.407 -12.250 -22.894  0.00  0.00    -0.275 N 
ATOM      6  C   UNL     1      32.054 -11.089 -20.783  0.00  0.00    +0.215 C 
ATOM      7  C   UNL     1      31.647  -8.600 -20.778  0.00  0.00    +0.080 C 
ATOM      8  C   UNL     1      30.840  -8.826 -19.499  0.00  0.00    +0.052 C 
ATOM      9  C   UNL     1      31.692 -12.300 -21.627  0.00  0.00    +0.147 C 
ATOM     10  C   UNL     1      31.347 -10.045 -18.754  0.00  0.00    +0.146 C 
ATOM     11  C   UNL     1      32.082  -9.770 -22.912  0.00  0.00    +0.267 C 
ATOM     12  C   UNL     1      32.573 -11.038 -23.570  0.00  0.00    +0.143 C 
ATOM     13  C   UNL     1      33.008  -7.959 -20.482  0.00  0.00    +0.022 C 
ATOM     14  C   UNL     1      32.845 -13.421 -23.497  0.00  0.00    +0.074 C 
ATOM     15  C   UNL     1      33.171 -10.956 -24.779  0.00  0.00    +0.191 C 
ATOM     16  C   UNL     1      33.451 -13.489 -24.688  0.00  0.00    +0.110 C 
ATOM     17  C   UNL     1      33.664 -12.216 -25.425  0.00  0.00    +0.236 C 
ENDROOT
BRANCH  16  20
ATOM     18  O   UNL     1      33.459 -15.215 -26.281  0.00  0.00    -0.270 OA
ATOM     19  N   UNL     1      34.716 -15.468 -24.333  0.00  0.00    -0.297 N 
ATOM     20  C   UNL     1      33.861 -14.798 -25.194  0.00  0.00    +0.251 C 
ATOM     21  H   UNL     1      34.966 -15.028 -23.488  0.00  0.00    +0.150 HD
BRANCH  19  22
ATOM     22  C   UNL     1      35.258 -16.779 -24.609  0.00  0.00    +0.119 C 
BRANCH  22  25
ATOM     23  F   UNL     1      33.509 -18.993 -24.815  0.00  0.00    -0.204 F 
ATOM     24  F   UNL     1      34.356 -20.371 -20.368  0.00  0.00    -0.204 F 
ATOM     25  C   UNL     1      35.017 -17.737 -23.479  0.00  0.00    +0.025 C 
ATOM     26  C   UNL     1      34.140 -18.810 -23.648  0.00  0.00    +0.140 C 
ATOM     27  C   UNL     1      35.671 -17.555 -22.261  0.00  0.00    +0.002 C 
ATOM     28  C   UNL     1      33.917 -19.699 -22.596  0.00  0.00    +0.059 C 
ATOM     29  C   UNL     1      35.447 -18.445 -21.210  0.00  0.00    +0.030 C 
ATOM     30  C   UNL     1      34.570 -19.517 -21.377  0.00  0.00    +0.142 C 
ENDBRANCH  22  25
ENDBRANCH  19  22
ENDBRANCH  16  20
BRANCH  15  31
ATOM     31  O   UNL     1      33.377  -9.778 -25.462  0.00  0.00    -0.502 OA
ATOM     32  H   UNL     1      32.665  -9.183 -25.595  0.00  0.00    +0.292 HD
ENDBRANCH  15  31
TORSDOF 4
ENDMDL
MODEL 7
REMARK VINA RESULT:      -9.9      4.880      8.383
REMARK  Name = 54726191
REMARK  4 active torsions:
REMARK  status: ('A' for Active; 'I' for Inactive)
REMARK    1  A    between atoms: C_15  and  O_31
REMARK    2  A    between atoms: C_16  and  C_20
REMARK    3  A    between atoms: N_19  and  C_22
REMARK    4  A    between atoms: C_22  and  C_25
REMARK                            x       y       z     vdW  Elec       q    Type
REMARK                         _______ _______ _______ _____ _____    ______ ____
ROOT
ATOM      1  O   UNL     1      35.277 -17.979 -20.988  0.00  0.00    -0.336 OA
ATOM      2  O   UNL     1      35.227 -16.626 -25.487  0.00  0.00    -0.268 OA
ATOM      3  O   UNL     1      32.446 -12.369 -25.252  0.00  0.00    -0.283 OA
ATOM      4  N   UNL     1      35.044 -17.426 -23.322  0.00  0.00    -0.253 N 
ATOM      5  N   UNL     1      34.058 -14.907 -22.535  0.00  0.00    -0.275 N 
ATOM      6  C   UNL     1      34.542 -17.222 -21.958  0.00  0.00    +0.215 C 
ATOM      7  C   UNL     1      35.427 -18.791 -23.723  0.00  0.00    +0.080 C 
ATOM      8  C   UNL     1      36.119 -19.538 -22.583  0.00  0.00    +0.052 C 
ATOM      9  C   UNL     1      34.696 -15.767 -21.549  0.00  0.00    +0.147 C 
ATOM     10  C   UNL     1      35.353 -19.366 -21.285  0.00  0.00    +0.146 C 
ATOM     11  C   UNL     1      34.861 -16.461 -24.323  0.00  0.00    +0.267 C 
ATOM     12  C   UNL     1      34.160 -15.191 -23.899  0.00  0.00    +0.143 C 
ATOM     13  C   UNL     1      34.205 -19.560 -24.242  0.00  0.00    +0.022 C 
ATOM     14  C   UNL     1      33.426 -13.737 -22.138  0.00  0.00    +0.074 C 
ATOM     15  C   UNL     1      33.641 -14.385 -24.851  0.00  0.00    +0.191 C 
ATOM     16  C   UNL     1      32.869 -12.847 -22.969  0.00  0.00    +0.110 C 
ATOM     17  C   UNL     1      32.939 -13.130 -24.426  0.00  0.00    +0.236 C 
ENDROOT
BRANCH  16  20
ATOM     18  O   UNL     1      31.455 -11.747 -21.450  0.00  0.00    -0.270 OA
ATOM     19  N   UNL     1      32.601 -10.488 -23.043  0.00  0.00    -0.297 N 
ATOM     20  C   UNL     1      32.232 -11.659 -22.402  0.00  0.00    +0.251 C 
ATOM     21  H   UNL     1      33.234 -10.547 -23.795  0.00  0.00    +0.150 HD
BRANCH  19  22
ATOM     22  C   UNL     1      32.105  -9.183 -22.667  0.00  0.00    +0.119 C 
BRANCH  22  25
ATOM     23  F   UNL     1      30.947  -6.661 -23.219  0.00  0.00    -0.204 F 
ATOM     24  F   UNL     1      34.892  -5.039 -25.266  0.00  0.00    -0.204 F 
ATOM     25  C   UNL     1      32.847  -8.078 -23.359  0.00  0.00    +0.025 C 
ATOM     26  C   UNL     1      32.216  -6.857 -23.601  0.00  0.00    +0.140 C 
ATOM     27  C   UNL     1      34.169  -8.272 -23.761  0.00  0.00    +0.002 C 
ATOM     28  C   UNL     1      32.907  -5.830 -24.246  0.00  0.00    +0.059 C 
ATOM     29  C   UNL     1      34.860  -7.245 -24.405  0.00  0.00    +0.030 C 
ATOM     30  C   UNL     1      34.229  -6.024 -24.648  0.00  0.00    +0.142 C 
ENDBRANCH  22  25
ENDBRANCH  19  22
ENDBRANCH  16  20
BRANCH  15  31
ATOM     31  O   UNL     1      33.698 -14.646 -26.202  0.00  0.00    -0.502 OA
ATOM     32  H   UNL     1      33.299 -15.420 -26.547  0.00  0.00    +0.292 HD
ENDBRANCH  15  31
TORSDOF 4
ENDMDL
MODEL 8
REMARK VINA RESULT:      -9.8      1.882      2.777
REMARK  Name = 54726191
REMARK  4 active torsions:
REMARK  status: ('A' for Active; 'I' for Inactive)
REMARK    1  A    between atoms: C_15  and  O_31
REMARK    2  A    between atoms: C_16  and  C_20
REMARK    3  A    between atoms: N_19  and  C_22
REMARK    4  A    between atoms: C_22  and  C_25
REMARK                            x       y       z     vdW  Elec       q    Type
REMARK                         _______ _______ _______ _____ _____    ______ ____
ROOT
ATOM      1  O   UNL     1      35.333 -24.140 -14.101  0.00  0.00    -0.336 OA
ATOM      2  O   UNL     1      31.558 -23.911 -16.888  0.00  0.00    -0.268 OA
ATOM      3  O   UNL     1      33.250 -20.958 -20.674  0.00  0.00    -0.283 OA
ATOM      4  N   UNL     1      33.327 -23.821 -15.397  0.00  0.00    -0.253 N 
ATOM      5  N   UNL     1      34.930 -22.750 -17.450  0.00  0.00    -0.275 N 
ATOM      6  C   UNL     1      34.684 -23.348 -15.103  0.00  0.00    +0.215 C 
ATOM      7  C   UNL     1      32.483 -24.251 -14.267  0.00  0.00    +0.080 C 
ATOM      8  C   UNL     1      33.295 -25.005 -13.214  0.00  0.00    +0.052 C 
ATOM      9  C   UNL     1      35.560 -23.450 -16.341  0.00  0.00    +0.147 C 
ATOM     10  C   UNL     1      34.582 -24.268 -12.900  0.00  0.00    +0.146 C 
ATOM     11  C   UNL     1      32.713 -23.570 -16.632  0.00  0.00    +0.267 C 
ATOM     12  C   UNL     1      33.549 -22.827 -17.648  0.00  0.00    +0.143 C 
ATOM     13  C   UNL     1      31.747 -23.050 -13.660  0.00  0.00    +0.022 C 
ATOM     14  C   UNL     1      35.707 -22.079 -18.385  0.00  0.00    +0.074 C 
ATOM     15  C   UNL     1      32.932 -22.248 -18.702  0.00  0.00    +0.191 C 
ATOM     16  C   UNL     1      35.231 -21.463 -19.474  0.00  0.00    +0.110 C 
ATOM     17  C   UNL     1      33.764 -21.506 -19.703  0.00  0.00    +0.236 C 
ENDROOT
BRANCH  16  20
ATOM     18  O   UNL     1      37.266 -21.295 -20.636  0.00  0.00    -0.270 OA
ATOM     19  N   UNL     1      35.699 -19.580 -20.847  0.00  0.00    -0.297 N 
ATOM     20  C   UNL     1      36.174 -20.791 -20.368  0.00  0.00    +0.251 C 
ATOM     21  H   UNL     1      34.806 -19.284 -20.559  0.00  0.00    +0.150 HD
BRANCH  19  22
ATOM     22  C   UNL     1      36.448 -18.731 -21.745  0.00  0.00    +0.119 C 
BRANCH  22  25
ATOM     23  F   UNL     1      35.042 -20.121 -23.769  0.00  0.00    -0.204 F 
ATOM     24  F   UNL     1      33.116 -16.153 -25.481  0.00  0.00    -0.204 F 
ATOM     25  C   UNL     1      35.559 -18.045 -22.742  0.00  0.00    +0.025 C 
ATOM     26  C   UNL     1      34.894 -18.791 -23.715  0.00  0.00    +0.140 C 
ATOM     27  C   UNL     1      35.399 -16.660 -22.693  0.00  0.00    +0.002 C 
ATOM     28  C   UNL     1      34.069 -18.151 -24.640  0.00  0.00    +0.059 C 
ATOM     29  C   UNL     1      34.573 -16.021 -23.619  0.00  0.00    +0.030 C 
ATOM     30  C   UNL     1      33.908 -16.766 -24.593  0.00  0.00    +0.142 C 
ENDBRANCH  22  25
ENDBRANCH  19  22
ENDBRANCH  16  20
BRANCH  15  31
ATOM     31  O   UNL     1      31.572 -22.280 -18.915  0.00  0.00    -0.502 OA
ATOM     32  H   UNL     1      31.236 -22.442 -19.775  0.00  0.00    +0.292 HD
ENDBRANCH  15  31
TORSDOF 4
ENDMDL
MODEL 9
REMARK VINA RESULT:      -9.7      6.071     12.172
REMARK  Name = 54726191
REMARK  4 active torsions:
REMARK  status: ('A' for Active; 'I' for Inactive)
REMARK    1  A    between atoms: C_15  and  O_31
REMARK    2  A    between atoms: C_16  and  C_20
REMARK    3  A    between atoms: N_19  and  C_22
REMARK    4  A    between atoms: C_22  and  C_25
REMARK                            x       y       z     vdW  Elec       q    Type
REMARK                         _______ _______ _______ _____ _____    ______ ____
ROOT
ATOM      1  O   UNL     1      32.209  -6.824 -22.516  0.00  0.00    -0.336 OA
ATOM      2  O   UNL     1      33.133  -8.951 -26.601  0.00  0.00    -0.268 OA
ATOM      3  O   UNL     1      34.222 -13.684 -25.076  0.00  0.00    -0.283 OA
ATOM      4  N   UNL     1      32.922  -7.843 -24.579  0.00  0.00    -0.253 N 
ATOM      5  N   UNL     1      32.783 -10.343 -23.289  0.00  0.00    -0.275 N 
ATOM      6  C   UNL     1      32.914  -7.918 -23.114  0.00  0.00    +0.215 C 
ATOM      7  C   UNL     1      33.127  -6.524 -25.204  0.00  0.00    +0.080 C 
ATOM      8  C   UNL     1      32.408  -5.418 -24.431  0.00  0.00    +0.052 C 
ATOM      9  C   UNL     1      32.194  -9.174 -22.652  0.00  0.00    +0.147 C 
ATOM     10  C   UNL     1      32.667  -5.548 -22.943  0.00  0.00    +0.146 C 
ATOM     11  C   UNL     1      33.072  -8.989 -25.372  0.00  0.00    +0.267 C 
ATOM     12  C   UNL     1      33.178 -10.300 -24.628  0.00  0.00    +0.143 C 
ATOM     13  C   UNL     1      34.625  -6.228 -25.352  0.00  0.00    +0.022 C 
ATOM     14  C   UNL     1      32.866 -11.546 -22.602  0.00  0.00    +0.074 C 
ATOM     15  C   UNL     1      33.667 -11.380 -25.278  0.00  0.00    +0.191 C 
ATOM     16  C   UNL     1      33.328 -12.692 -23.117  0.00  0.00    +0.110 C 
ATOM     17  C   UNL     1      33.778 -12.677 -24.533  0.00  0.00    +0.236 C 
ENDROOT
BRANCH  16  20
ATOM     18  O   UNL     1      32.474 -14.097 -21.440  0.00  0.00    -0.270 OA
ATOM     19  N   UNL     1      34.461 -14.689 -22.506  0.00  0.00    -0.297 N 
ATOM     20  C   UNL     1      33.361 -13.882 -22.267  0.00  0.00    +0.251 C 
ATOM     21  H   UNL     1      35.104 -14.409 -23.197  0.00  0.00    +0.150 HD
BRANCH  19  22
ATOM     22  C   UNL     1      34.716 -15.920 -21.792  0.00  0.00    +0.119 C 
BRANCH  22  25
ATOM     23  F   UNL     1      35.437 -18.520 -20.942  0.00  0.00    -0.204 F 
ATOM     24  F   UNL     1      34.624 -20.393 -25.210  0.00  0.00    -0.204 F 
ATOM     25  C   UNL     1      34.692 -17.113 -22.702  0.00  0.00    +0.025 C 
ATOM     26  C   UNL     1      35.060 -18.369 -22.218  0.00  0.00    +0.140 C 
ATOM     27  C   UNL     1      34.300 -16.966 -24.033  0.00  0.00    +0.002 C 
ATOM     28  C   UNL     1      35.037 -19.477 -23.066  0.00  0.00    +0.059 C 
ATOM     29  C   UNL     1      34.277 -18.074 -24.880  0.00  0.00    +0.030 C 
ATOM     30  C   UNL     1      34.646 -19.330 -24.397  0.00  0.00    +0.142 C 
ENDBRANCH  22  25
ENDBRANCH  19  22
ENDBRANCH  16  20
BRANCH  15  31
ATOM     31  O   UNL     1      34.091 -11.369 -26.587  0.00  0.00    -0.502 OA
ATOM     32  H   UNL     1      34.382 -12.162 -26.993  0.00  0.00    +0.292 HD
ENDBRANCH  15  31
TORSDOF 4
ENDMDL
