MODEL 1
REMARK VINA RESULT:     -13.3      0.000      0.000
REMARK  Name = 89670174
REMARK  4 active torsions:
REMARK  status: ('A' for Active; 'I' for Inactive)
REMARK    1  A    between atoms: C_3  and  C_13
REMARK    2  A    between atoms: C_9  and  O_26
REMARK    3  A    between atoms: C_18  and  C_25
REMARK    4  A    between atoms: O_26  and  C_30
REMARK                            x       y       z     vdW  Elec       q    Type
REMARK                         _______ _______ _______ _____ _____    ______ ____
ROOT
ATOM      1  O   UNL     1      34.518 -19.490 -24.123  0.00  0.00    -0.479 OA
ATOM      2  C   UNL     1      35.385 -18.664 -21.991  0.00  0.00    +0.072 C 
ATOM      3  C   UNL     1      34.364 -19.710 -21.570  0.00  0.00    +0.085 C 
ATOM      4  C   UNL     1      35.147 -19.900 -22.851  0.00  0.00    +0.174 C 
ATOM      5  C   UNL     1      34.996 -17.567 -22.913  0.00  0.00    +0.018 C 
ATOM      6  C   UNL     1      34.519 -18.104 -24.116  0.00  0.00    +0.135 C 
ATOM      7  C   UNL     1      35.041 -16.190 -22.752  0.00  0.00    +0.036 C 
ATOM      8  C   UNL     1      34.078 -17.321 -25.164  0.00  0.00    +0.040 C 
ATOM      9  C   UNL     1      34.603 -15.376 -23.802  0.00  0.00    +0.145 C 
ATOM     10  C   UNL     1      34.126 -15.937 -24.999  0.00  0.00    +0.041 C 
ENDROOT
BRANCH   3  13
ATOM     11  N   UNL     1      35.855 -20.647 -19.732  0.00  0.00    -0.318 N 
ATOM     12  N   UNL     1      33.765 -21.398 -19.831  0.00  0.00    -0.318 N 
ATOM     13  C   UNL     1      34.649 -20.593 -20.374  0.00  0.00    +0.148 C 
ATOM     14  C   UNL     1      35.741 -21.549 -18.705  0.00  0.00    +0.059 C 
ATOM     15  C   UNL     1      34.428 -22.004 -18.787  0.00  0.00    +0.059 C 
ATOM     16  C   UNL     1      36.647 -21.992 -17.740  0.00  0.00    +0.019 C 
ATOM     17  C   UNL     1      33.974 -22.957 -17.860  0.00  0.00    +0.016 C 
ATOM     18  C   UNL     1      36.178 -22.941 -16.825  0.00  0.00    +0.073 C 
ATOM     19  C   UNL     1      34.866 -23.416 -16.883  0.00  0.00    +0.005 C 
ATOM     20  H   UNL     1      36.660 -20.132 -19.965  0.00  0.00    +0.148 HD
ATOM     21  H   UNL     1      32.831 -21.539 -20.108  0.00  0.00    +0.148 HD
BRANCH  18  25
ATOM     22  F   UNL     1      38.414 -23.433 -16.134  0.00  0.00    -0.166 F 
ATOM     23  F   UNL     1      37.042 -22.741 -14.604  0.00  0.00    -0.166 F 
ATOM     24  F   UNL     1      36.832 -24.744 -15.422  0.00  0.00    -0.166 F 
ATOM     25  C   UNL     1      37.099 -23.452 -15.767  0.00  0.00    +0.419 C 
ENDBRANCH  18  25
ENDBRANCH   3  13
BRANCH   9  26
ATOM     26  O   UNL     1      34.638 -14.000 -23.660  0.00  0.00    -0.454 OA
BRANCH  26  30
ATOM     27  O   UNL     1      31.775  -8.348 -23.841  0.00  0.00    -0.275 OA
ATOM     28  N   UNL     1      31.699 -10.317 -22.662  0.00  0.00    -0.270 N 
ATOM     29  N   UNL     1      31.629 -12.292 -21.362  0.00  0.00    -0.229 NA
ATOM     30  C   UNL     1      33.667 -13.416 -22.904  0.00  0.00    +0.146 C 
ATOM     31  C   UNL     1      33.210 -12.126 -23.183  0.00  0.00    +0.045 C 
ATOM     32  C   UNL     1      33.706 -11.359 -24.370  0.00  0.00    +0.042 C 
ATOM     33  C   UNL     1      33.118 -14.132 -21.846  0.00  0.00    +0.058 C 
ATOM     34  C   UNL     1      32.193 -11.606 -22.384  0.00  0.00    +0.133 C 
ATOM     35  C   UNL     1      33.614  -9.861 -24.122  0.00  0.00    +0.090 C 
ATOM     36  C   UNL     1      32.267  -9.442 -23.566  0.00  0.00    +0.227 C 
ATOM     37  C   UNL     1      32.109 -13.531 -21.116  0.00  0.00    +0.103 C 
ATOM     38  H   UNL     1      30.894 -10.019 -22.180  0.00  0.00    +0.156 HD
ENDBRANCH  26  30
ENDBRANCH   9  26
TORSDOF 4
ENDMDL
MODEL 2
REMARK VINA RESULT:     -12.9      5.933     11.481
REMARK  Name = 89670174
REMARK  4 active torsions:
REMARK  status: ('A' for Active; 'I' for Inactive)
REMARK    1  A    between atoms: C_3  and  C_13
REMARK    2  A    between atoms: C_9  and  O_26
REMARK    3  A    between atoms: C_18  and  C_25
REMARK    4  A    between atoms: O_26  and  C_30
REMARK                            x       y       z     vdW  Elec       q    Type
REMARK                         _______ _______ _______ _____ _____    ______ ____
ROOT
ATOM      1  O   UNL     1      36.615 -19.724 -21.445  0.00  0.00    -0.479 OA
ATOM      2  C   UNL     1      34.331 -19.081 -22.032  0.00  0.00    +0.072 C 
ATOM      3  C   UNL     1      35.014 -17.746 -21.776  0.00  0.00    +0.085 C 
ATOM      4  C   UNL     1      35.807 -18.894 -22.361  0.00  0.00    +0.174 C 
ATOM      5  C   UNL     1      34.376 -20.154 -21.007  0.00  0.00    +0.018 C 
ATOM      6  C   UNL     1      35.708 -20.483 -20.723  0.00  0.00    +0.135 C 
ATOM      7  C   UNL     1      33.354 -20.820 -20.347  0.00  0.00    +0.036 C 
ATOM      8  C   UNL     1      36.062 -21.449 -19.801  0.00  0.00    +0.040 C 
ATOM      9  C   UNL     1      33.688 -21.805 -19.411  0.00  0.00    +0.145 C 
ATOM     10  C   UNL     1      35.031 -22.117 -19.141  0.00  0.00    +0.041 C 
ENDROOT
BRANCH   3  13
ATOM     11  N   UNL     1      34.719 -15.255 -22.206  0.00  0.00    -0.318 N 
ATOM     12  N   UNL     1      34.278 -16.639 -23.889  0.00  0.00    -0.318 N 
ATOM     13  C   UNL     1      34.667 -16.552 -22.637  0.00  0.00    +0.148 C 
ATOM     14  C   UNL     1      34.339 -14.452 -23.251  0.00  0.00    +0.059 C 
ATOM     15  C   UNL     1      34.069 -15.338 -24.289  0.00  0.00    +0.059 C 
ATOM     16  C   UNL     1      34.212 -13.067 -23.372  0.00  0.00    +0.019 C 
ATOM     17  C   UNL     1      33.646 -14.832 -25.529  0.00  0.00    +0.016 C 
ATOM     18  C   UNL     1      33.789 -12.580 -24.614  0.00  0.00    +0.073 C 
ATOM     19  C   UNL     1      33.511 -13.445 -25.674  0.00  0.00    +0.005 C 
ATOM     20  H   UNL     1      34.982 -14.952 -21.307  0.00  0.00    +0.148 HD
ATOM     21  H   UNL     1      34.161 -17.456 -24.425  0.00  0.00    +0.148 HD
BRANCH  18  25
ATOM     22  F   UNL     1      33.183 -10.765 -26.048  0.00  0.00    -0.166 F 
ATOM     23  F   UNL     1      32.762 -10.529 -23.933  0.00  0.00    -0.166 F 
ATOM     24  F   UNL     1      34.813 -10.436 -24.648  0.00  0.00    -0.166 F 
ATOM     25  C   UNL     1      33.637 -11.108 -24.807  0.00  0.00    +0.419 C 
ENDBRANCH  18  25
ENDBRANCH   3  13
BRANCH   9  26
ATOM     26  O   UNL     1      32.683 -22.480 -18.741  0.00  0.00    -0.454 OA
BRANCH  26  30
ATOM     27  O   UNL     1      29.152 -24.653 -13.947  0.00  0.00    -0.275 OA
ATOM     28  N   UNL     1      31.359 -24.433 -14.542  0.00  0.00    -0.270 N 
ATOM     29  N   UNL     1      33.649 -24.159 -15.067  0.00  0.00    -0.229 NA
ATOM     30  C   UNL     1      32.981 -23.014 -17.524  0.00  0.00    +0.146 C 
ATOM     31  C   UNL     1      31.975 -23.425 -16.647  0.00  0.00    +0.045 C 
ATOM     32  C   UNL     1      30.529 -23.374 -17.036  0.00  0.00    +0.042 C 
ATOM     33  C   UNL     1      34.315 -23.159 -17.163  0.00  0.00    +0.058 C 
ATOM     34  C   UNL     1      32.356 -23.988 -15.431  0.00  0.00    +0.133 C 
ATOM     35  C   UNL     1      29.644 -23.224 -15.808  0.00  0.00    +0.090 C 
ATOM     36  C   UNL     1      30.009 -24.194 -14.702  0.00  0.00    +0.227 C 
ATOM     37  C   UNL     1      34.593 -23.735 -15.936  0.00  0.00    +0.103 C 
ATOM     38  H   UNL     1      31.643 -24.949 -13.753  0.00  0.00    +0.156 HD
ENDBRANCH  26  30
ENDBRANCH   9  26
TORSDOF 4
ENDMDL
MODEL 3
REMARK VINA RESULT:     -12.7      5.803     11.407
REMARK  Name = 89670174
REMARK  4 active torsions:
REMARK  status: ('A' for Active; 'I' for Inactive)
REMARK    1  A    between atoms: C_3  and  C_13
REMARK    2  A    between atoms: C_9  and  O_26
REMARK    3  A    between atoms: C_18  and  C_25
REMARK    4  A    between atoms: O_26  and  C_30
REMARK                            x       y       z     vdW  Elec       q    Type
REMARK                         _______ _______ _______ _____ _____    ______ ____
ROOT
ATOM      1  O   UNL     1      37.187 -19.597 -20.007  0.00  0.00    -0.479 OA
ATOM      2  C   UNL     1      35.182 -19.731 -21.399  0.00  0.00    +0.072 C 
ATOM      3  C   UNL     1      35.273 -18.251 -21.061  0.00  0.00    +0.085 C 
ATOM      4  C   UNL     1      36.540 -19.062 -21.222  0.00  0.00    +0.174 C 
ATOM      5  C   UNL     1      35.195 -20.749 -20.318  0.00  0.00    +0.018 C 
ATOM      6  C   UNL     1      36.371 -20.627 -19.565  0.00  0.00    +0.135 C 
ATOM      7  C   UNL     1      34.271 -21.727 -19.984  0.00  0.00    +0.036 C 
ATOM      8  C   UNL     1      36.658 -21.439 -18.486  0.00  0.00    +0.040 C 
ATOM      9  C   UNL     1      34.542 -22.565 -18.897  0.00  0.00    +0.145 C 
ATOM     10  C   UNL     1      35.726 -22.422 -18.154  0.00  0.00    +0.041 C 
ENDROOT
BRANCH   3  13
ATOM     11  N   UNL     1      34.876 -15.874 -21.877  0.00  0.00    -0.318 N 
ATOM     12  N   UNL     1      34.554 -17.519 -23.337  0.00  0.00    -0.318 N 
ATOM     13  C   UNL     1      34.898 -17.222 -22.105  0.00  0.00    +0.148 C 
ATOM     14  C   UNL     1      34.492 -15.260 -23.042  0.00  0.00    +0.059 C 
ATOM     15  C   UNL     1      34.297 -16.307 -23.938  0.00  0.00    +0.059 C 
ATOM     16  C   UNL     1      34.304 -13.918 -23.378  0.00  0.00    +0.019 C 
ATOM     17  C   UNL     1      33.891 -16.018 -25.251  0.00  0.00    +0.016 C 
ATOM     18  C   UNL     1      33.900 -13.649 -24.690  0.00  0.00    +0.073 C 
ATOM     19  C   UNL     1      33.697 -14.679 -25.611  0.00  0.00    +0.005 C 
ATOM     20  H   UNL     1      35.096 -15.424 -21.030  0.00  0.00    +0.148 HD
ATOM     21  H   UNL     1      34.493 -18.413 -23.744  0.00  0.00    +0.148 HD
BRANCH  18  25
ATOM     22  F   UNL     1      32.945 -11.506 -24.223  0.00  0.00    -0.166 F 
ATOM     23  F   UNL     1      34.843 -11.529 -25.271  0.00  0.00    -0.166 F 
ATOM     24  F   UNL     1      33.028 -12.136 -26.303  0.00  0.00    -0.166 F 
ATOM     25  C   UNL     1      33.685 -12.233 -25.111  0.00  0.00    +0.419 C 
ENDBRANCH  18  25
ENDBRANCH   3  13
BRANCH   9  26
ATOM     26  O   UNL     1      33.631 -23.546 -18.546  0.00  0.00    -0.454 OA
BRANCH  26  30
ATOM     27  O   UNL     1      34.501 -24.414 -12.328  0.00  0.00    -0.275 OA
ATOM     28  N   UNL     1      32.928 -23.585 -13.781  0.00  0.00    -0.270 N 
ATOM     29  N   UNL     1      31.238 -22.792 -15.235  0.00  0.00    -0.229 NA
ATOM     30  C   UNL     1      32.852 -23.325 -17.450  0.00  0.00    +0.146 C 
ATOM     31  C   UNL     1      33.315 -23.609 -16.164  0.00  0.00    +0.045 C 
ATOM     32  C   UNL     1      34.712 -24.093 -15.923  0.00  0.00    +0.042 C 
ATOM     33  C   UNL     1      31.580 -22.792 -17.626  0.00  0.00    +0.058 C 
ATOM     34  C   UNL     1      32.473 -23.330 -15.089  0.00  0.00    +0.133 C 
ATOM     35  C   UNL     1      34.784 -24.927 -14.653  0.00  0.00    +0.090 C 
ATOM     36  C   UNL     1      34.091 -24.264 -13.479  0.00  0.00    +0.227 C 
ATOM     37  C   UNL     1      30.822 -22.544 -16.496  0.00  0.00    +0.103 C 
ATOM     38  H   UNL     1      32.380 -23.258 -13.031  0.00  0.00    +0.156 HD
ENDBRANCH  26  30
ENDBRANCH   9  26
TORSDOF 4
ENDMDL
MODEL 4
REMARK VINA RESULT:     -12.6      1.864      2.418
REMARK  Name = 89670174
REMARK  4 active torsions:
REMARK  status: ('A' for Active; 'I' for Inactive)
REMARK    1  A    between atoms: C_3  and  C_13
REMARK    2  A    between atoms: C_9  and  O_26
REMARK    3  A    between atoms: C_18  and  C_25
REMARK    4  A    between atoms: O_26  and  C_30
REMARK                            x       y       z     vdW  Elec       q    Type
REMARK                         _______ _______ _______ _____ _____    ______ ____
ROOT
ATOM      1  O   UNL     1      34.533 -19.582 -24.027  0.00  0.00    -0.479 OA
ATOM      2  C   UNL     1      34.824 -18.835 -21.718  0.00  0.00    +0.072 C 
ATOM      3  C   UNL     1      33.672 -19.824 -21.621  0.00  0.00    +0.085 C 
ATOM      4  C   UNL     1      34.766 -20.044 -22.644  0.00  0.00    +0.174 C 
ATOM      5  C   UNL     1      34.763 -17.705 -22.679  0.00  0.00    +0.018 C 
ATOM      6  C   UNL     1      34.606 -18.199 -23.981  0.00  0.00    +0.135 C 
ATOM      7  C   UNL     1      34.835 -16.336 -22.474  0.00  0.00    +0.036 C 
ATOM      8  C   UNL     1      34.513 -17.378 -25.088  0.00  0.00    +0.040 C 
ATOM      9  C   UNL     1      34.746 -15.484 -23.580  0.00  0.00    +0.145 C 
ATOM     10  C   UNL     1      34.587 -16.002 -24.877  0.00  0.00    +0.041 C 
ENDROOT
BRANCH   3  13
ATOM     11  N   UNL     1      32.397 -21.032 -19.780  0.00  0.00    -0.318 N 
ATOM     12  N   UNL     1      34.598 -21.337 -19.863  0.00  0.00    -0.318 N 
ATOM     13  C   UNL     1      33.570 -20.736 -20.419  0.00  0.00    +0.148 C 
ATOM     14  C   UNL     1      32.689 -21.882 -18.743  0.00  0.00    +0.059 C 
ATOM     15  C   UNL     1      34.068 -22.057 -18.816  0.00  0.00    +0.059 C 
ATOM     16  C   UNL     1      31.889 -22.493 -17.777  0.00  0.00    +0.019 C 
ATOM     17  C   UNL     1      34.704 -22.887 -17.878  0.00  0.00    +0.016 C 
ATOM     18  C   UNL     1      32.538 -23.317 -16.851  0.00  0.00    +0.073 C 
ATOM     19  C   UNL     1      33.920 -23.511 -16.900  0.00  0.00    +0.005 C 
ATOM     20  H   UNL     1      31.504 -20.696 -20.020  0.00  0.00    +0.148 HD
ATOM     21  H   UNL     1      35.542 -21.285 -20.137  0.00  0.00    +0.148 HD
BRANCH  18  25
ATOM     22  F   UNL     1      32.475 -24.833 -15.003  0.00  0.00    -0.166 F 
ATOM     23  F   UNL     1      31.121 -23.141 -14.932  0.00  0.00    -0.166 F 
ATOM     24  F   UNL     1      30.741 -24.776 -16.314  0.00  0.00    -0.166 F 
ATOM     25  C   UNL     1      31.736 -24.001 -15.794  0.00  0.00    +0.419 C 
ENDBRANCH  18  25
ENDBRANCH   3  13
BRANCH   9  26
ATOM     26  O   UNL     1      34.815 -14.115 -23.396  0.00  0.00    -0.454 OA
BRANCH  26  30
ATOM     27  O   UNL     1      31.896  -8.527 -24.056  0.00  0.00    -0.275 OA
ATOM     28  N   UNL     1      31.762 -10.439 -22.789  0.00  0.00    -0.270 N 
ATOM     29  N   UNL     1      31.627 -12.350 -21.401  0.00  0.00    -0.229 NA
ATOM     30  C   UNL     1      33.784 -13.511 -22.740  0.00  0.00    +0.146 C 
ATOM     31  C   UNL     1      33.331 -12.245 -23.113  0.00  0.00    +0.045 C 
ATOM     32  C   UNL     1      33.900 -11.527 -24.298  0.00  0.00    +0.042 C 
ATOM     33  C   UNL     1      33.171 -14.185 -21.689  0.00  0.00    +0.058 C 
ATOM     34  C   UNL     1      32.253 -11.704 -22.414  0.00  0.00    +0.133 C 
ATOM     35  C   UNL     1      33.770 -10.021 -24.131  0.00  0.00    +0.090 C 
ATOM     36  C   UNL     1      32.382  -9.599 -23.693  0.00  0.00    +0.227 C 
ATOM     37  C   UNL     1      32.105 -13.567 -21.062  0.00  0.00    +0.103 C 
ATOM     38  H   UNL     1      30.921 -10.132 -22.380  0.00  0.00    +0.156 HD
ENDBRANCH  26  30
ENDBRANCH   9  26
TORSDOF 4
ENDMDL
MODEL 5
REMARK VINA RESULT:     -12.4      5.924     11.621
REMARK  Name = 89670174
REMARK  4 active torsions:
REMARK  status: ('A' for Active; 'I' for Inactive)
REMARK    1  A    between atoms: C_3  and  C_13
REMARK    2  A    between atoms: C_9  and  O_26
REMARK    3  A    between atoms: C_18  and  C_25
REMARK    4  A    between atoms: O_26  and  C_30
REMARK                            x       y       z     vdW  Elec       q    Type
REMARK                         _______ _______ _______ _____ _____    ______ ____
ROOT
ATOM      1  O   UNL     1      33.391 -15.581 -25.918  0.00  0.00    -0.479 OA
ATOM      2  C   UNL     1      33.686 -14.521 -23.735  0.00  0.00    +0.072 C 
ATOM      3  C   UNL     1      34.347 -13.540 -24.690  0.00  0.00    +0.085 C 
ATOM      4  C   UNL     1      33.150 -14.343 -25.150  0.00  0.00    +0.174 C 
ATOM      5  C   UNL     1      34.087 -15.951 -23.734  0.00  0.00    +0.018 C 
ATOM      6  C   UNL     1      33.885 -16.502 -25.006  0.00  0.00    +0.135 C 
ATOM      7  C   UNL     1      34.593 -16.749 -22.719  0.00  0.00    +0.036 C 
ATOM      8  C   UNL     1      34.174 -17.818 -25.309  0.00  0.00    +0.040 C 
ATOM      9  C   UNL     1      34.891 -18.087 -23.001  0.00  0.00    +0.145 C 
ATOM     10  C   UNL     1      34.682 -18.617 -24.286  0.00  0.00    +0.041 C 
ENDROOT
BRANCH   3  13
ATOM     11  N   UNL     1      33.238 -11.491 -23.667  0.00  0.00    -0.318 N 
ATOM     12  N   UNL     1      35.011 -11.149 -24.963  0.00  0.00    -0.318 N 
ATOM     13  C   UNL     1      34.210 -12.053 -24.447  0.00  0.00    +0.148 C 
ATOM     14  C   UNL     1      33.425 -10.132 -23.679  0.00  0.00    +0.059 C 
ATOM     15  C   UNL     1      34.537  -9.943 -24.494  0.00  0.00    +0.059 C 
ATOM     16  C   UNL     1      32.737  -9.084 -23.066  0.00  0.00    +0.019 C 
ATOM     17  C   UNL     1      35.006  -8.639 -24.723  0.00  0.00    +0.016 C 
ATOM     18  C   UNL     1      33.217  -7.792 -23.304  0.00  0.00    +0.073 C 
ATOM     19  C   UNL     1      34.331  -7.572 -24.117  0.00  0.00    +0.005 C 
ATOM     20  H   UNL     1      32.530 -11.974 -23.183  0.00  0.00    +0.148 HD
ATOM     21  H   UNL     1      35.783 -11.299 -25.555  0.00  0.00    +0.148 HD
BRANCH  18  25
ATOM     22  F   UNL     1      32.998  -5.420 -23.097  0.00  0.00    -0.166 F 
ATOM     23  F   UNL     1      31.183  -6.593 -22.918  0.00  0.00    -0.166 F 
ATOM     24  F   UNL     1      32.653  -6.619 -21.316  0.00  0.00    -0.166 F 
ATOM     25  C   UNL     1      32.526  -6.629 -22.674  0.00  0.00    +0.419 C 
ENDBRANCH  18  25
ENDBRANCH   3  13
BRANCH   9  26
ATOM     26  O   UNL     1      35.399 -18.899 -22.002  0.00  0.00    -0.454 OA
BRANCH  26  30
ATOM     27  O   UNL     1      36.023 -22.983 -17.195  0.00  0.00    -0.275 OA
ATOM     28  N   UNL     1      34.395 -22.126 -18.570  0.00  0.00    -0.270 N 
ATOM     29  N   UNL     1      32.690 -21.338 -20.009  0.00  0.00    -0.229 NA
ATOM     30  C   UNL     1      34.529 -19.721 -21.351  0.00  0.00    +0.146 C 
ATOM     31  C   UNL     1      34.951 -20.529 -20.293  0.00  0.00    +0.045 C 
ATOM     32  C   UNL     1      36.355 -20.471 -19.775  0.00  0.00    +0.042 C 
ATOM     33  C   UNL     1      33.196 -19.737 -21.745  0.00  0.00    +0.058 C 
ATOM     34  C   UNL     1      33.998 -21.322 -19.655  0.00  0.00    +0.133 C 
ATOM     35  C   UNL     1      36.754 -21.798 -19.147  0.00  0.00    +0.090 C 
ATOM     36  C   UNL     1      35.706 -22.331 -18.190  0.00  0.00    +0.227 C 
ATOM     37  C   UNL     1      32.325 -20.552 -21.046  0.00  0.00    +0.103 C 
ATOM     38  H   UNL     1      33.691 -22.573 -18.047  0.00  0.00    +0.156 HD
ENDBRANCH  26  30
ENDBRANCH   9  26
TORSDOF 4
ENDMDL
MODEL 6
REMARK VINA RESULT:     -12.3      2.311      3.539
REMARK  Name = 89670174
REMARK  4 active torsions:
REMARK  status: ('A' for Active; 'I' for Inactive)
REMARK    1  A    between atoms: C_3  and  C_13
REMARK    2  A    between atoms: C_9  and  O_26
REMARK    3  A    between atoms: C_18  and  C_25
REMARK    4  A    between atoms: O_26  and  C_30
REMARK                            x       y       z     vdW  Elec       q    Type
REMARK                         _______ _______ _______ _____ _____    ______ ____
ROOT
ATOM      1  O   UNL     1      34.643 -16.974 -25.364  0.00  0.00    -0.479 OA
ATOM      2  C   UNL     1      34.778 -16.596 -22.953  0.00  0.00    +0.072 C 
ATOM      3  C   UNL     1      33.991 -17.894 -23.058  0.00  0.00    +0.085 C 
ATOM      4  C   UNL     1      35.059 -17.579 -24.083  0.00  0.00    +0.174 C 
ATOM      5  C   UNL     1      34.335 -15.389 -23.695  0.00  0.00    +0.018 C 
ATOM      6  C   UNL     1      34.288 -15.667 -25.068  0.00  0.00    +0.135 C 
ATOM      7  C   UNL     1      33.990 -14.124 -23.245  0.00  0.00    +0.036 C 
ATOM      8  C   UNL     1      33.905 -14.733 -26.010  0.00  0.00    +0.040 C 
ATOM      9  C   UNL     1      33.601 -13.160 -24.181  0.00  0.00    +0.145 C 
ATOM     10  C   UNL     1      33.559 -13.462 -25.553  0.00  0.00    +0.041 C 
ENDROOT
BRANCH   3  13
ATOM     11  N   UNL     1      33.217 -19.669 -21.407  0.00  0.00    -0.318 N 
ATOM     12  N   UNL     1      35.409 -19.404 -21.664  0.00  0.00    -0.318 N 
ATOM     13  C   UNL     1      34.220 -18.991 -22.042  0.00  0.00    +0.148 C 
ATOM     14  C   UNL     1      33.797 -20.582 -20.564  0.00  0.00    +0.059 C 
ATOM     15  C   UNL     1      35.165 -20.397 -20.742  0.00  0.00    +0.059 C 
ATOM     16  C   UNL     1      33.258 -21.524 -19.686  0.00  0.00    +0.019 C 
ATOM     17  C   UNL     1      36.064 -21.191 -20.010  0.00  0.00    +0.016 C 
ATOM     18  C   UNL     1      34.168 -22.305 -18.965  0.00  0.00    +0.073 C 
ATOM     19  C   UNL     1      35.546 -22.143 -19.124  0.00  0.00    +0.005 C 
ATOM     20  H   UNL     1      32.251 -19.528 -21.533  0.00  0.00    +0.148 HD
ATOM     21  H   UNL     1      36.284 -19.076 -21.973  0.00  0.00    +0.148 HD
BRANCH  18  25
ATOM     22  F   UNL     1      34.509 -23.597 -16.982  0.00  0.00    -0.166 F 
ATOM     23  F   UNL     1      32.475 -22.986 -17.419  0.00  0.00    -0.166 F 
ATOM     24  F   UNL     1      33.422 -24.534 -18.616  0.00  0.00    -0.166 F 
ATOM     25  C   UNL     1      33.653 -23.333 -18.013  0.00  0.00    +0.419 C 
ENDBRANCH  18  25
ENDBRANCH   3  13
BRANCH   9  26
ATOM     26  O   UNL     1      33.251 -11.892 -23.751  0.00  0.00    -0.454 OA
BRANCH  26  30
ATOM     27  O   UNL     1      31.880  -5.704 -23.804  0.00  0.00    -0.275 OA
ATOM     28  N   UNL     1      33.340  -7.186 -24.775  0.00  0.00    -0.270 N 
ATOM     29  N   UNL     1      34.817  -8.678 -25.867  0.00  0.00    -0.229 NA
ATOM     30  C   UNL     1      33.738 -10.829 -24.451  0.00  0.00    +0.146 C 
ATOM     31  C   UNL     1      33.241  -9.540 -24.249  0.00  0.00    +0.045 C 
ATOM     32  C   UNL     1      32.210  -9.253 -23.201  0.00  0.00    +0.042 C 
ATOM     33  C   UNL     1      34.759 -11.042 -25.371  0.00  0.00    +0.058 C 
ATOM     34  C   UNL     1      33.808  -8.498 -24.981  0.00  0.00    +0.133 C 
ATOM     35  C   UNL     1      31.379  -8.038 -23.579  0.00  0.00    +0.090 C 
ATOM     36  C   UNL     1      32.228  -6.864 -24.025  0.00  0.00    +0.227 C 
ATOM     37  C   UNL     1      35.260  -9.942 -26.043  0.00  0.00    +0.103 C 
ATOM     38  H   UNL     1      33.840  -6.449 -25.195  0.00  0.00    +0.156 HD
ENDBRANCH  26  30
ENDBRANCH   9  26
TORSDOF 4
ENDMDL
MODEL 7
REMARK VINA RESULT:     -11.8      1.635      2.378
REMARK  Name = 89670174
REMARK  4 active torsions:
REMARK  status: ('A' for Active; 'I' for Inactive)
REMARK    1  A    between atoms: C_3  and  C_13
REMARK    2  A    between atoms: C_9  and  O_26
REMARK    3  A    between atoms: C_18  and  C_25
REMARK    4  A    between atoms: O_26  and  C_30
REMARK                            x       y       z     vdW  Elec       q    Type
REMARK                         _______ _______ _______ _____ _____    ______ ____
ROOT
ATOM      1  O   UNL     1      34.584 -17.856 -25.088  0.00  0.00    -0.479 OA
ATOM      2  C   UNL     1      35.020 -17.300 -22.747  0.00  0.00    +0.072 C 
ATOM      3  C   UNL     1      34.070 -18.485 -22.653  0.00  0.00    +0.085 C 
ATOM      4  C   UNL     1      35.055 -18.403 -23.799  0.00  0.00    +0.174 C 
ATOM      5  C   UNL     1      34.655 -16.111 -23.558  0.00  0.00    +0.018 C 
ATOM      6  C   UNL     1      34.429 -16.493 -24.887  0.00  0.00    +0.135 C 
ATOM      7  C   UNL     1      34.521 -14.778 -23.201  0.00  0.00    +0.036 C 
ATOM      8  C   UNL     1      34.068 -15.598 -25.874  0.00  0.00    +0.040 C 
ATOM      9  C   UNL     1      34.160 -13.851 -24.184  0.00  0.00    +0.145 C 
ATOM     10  C   UNL     1      33.935 -14.258 -25.511  0.00  0.00    +0.041 C 
ENDROOT
BRANCH   3  13
ATOM     11  N   UNL     1      33.247 -20.210 -20.973  0.00  0.00    -0.318 N 
ATOM     12  N   UNL     1      35.438 -19.844 -21.067  0.00  0.00    -0.318 N 
ATOM     13  C   UNL     1      34.267 -19.514 -21.561  0.00  0.00    +0.148 C 
ATOM     14  C   UNL     1      33.799 -21.046 -20.035  0.00  0.00    +0.059 C 
ATOM     15  C   UNL     1      35.166 -20.800 -20.113  0.00  0.00    +0.059 C 
ATOM     16  C   UNL     1      33.235 -21.969 -19.153  0.00  0.00    +0.019 C 
ATOM     17  C   UNL     1      36.039 -21.506 -19.268  0.00  0.00    +0.016 C 
ATOM     18  C   UNL     1      34.118 -22.663 -18.319  0.00  0.00    +0.073 C 
ATOM     19  C   UNL     1      35.495 -22.437 -18.375  0.00  0.00    +0.005 C 
ATOM     20  H   UNL     1      32.290 -20.126 -21.183  0.00  0.00    +0.148 HD
ATOM     21  H   UNL     1      36.319 -19.488 -21.322  0.00  0.00    +0.148 HD
BRANCH  18  25
ATOM     22  F   UNL     1      33.191 -24.835 -17.944  0.00  0.00    -0.166 F 
ATOM     23  F   UNL     1      34.466 -24.030 -16.387  0.00  0.00    -0.166 F 
ATOM     24  F   UNL     1      32.476 -23.209 -16.690  0.00  0.00    -0.166 F 
ATOM     25  C   UNL     1      33.576 -23.665 -17.355  0.00  0.00    +0.419 C 
ENDBRANCH  18  25
ENDBRANCH   3  13
BRANCH   9  26
ATOM     26  O   UNL     1      34.019 -12.516 -23.848  0.00  0.00    -0.454 OA
BRANCH  26  30
ATOM     27  O   UNL     1      30.903  -7.154 -22.539  0.00  0.00    -0.275 OA
ATOM     28  N   UNL     1      30.961  -9.355 -21.884  0.00  0.00    -0.270 N 
ATOM     29  N   UNL     1      31.031 -11.591 -21.114  0.00  0.00    -0.229 NA
ATOM     30  C   UNL     1      33.054 -12.189 -22.943  0.00  0.00    +0.146 C 
ATOM     31  C   UNL     1      32.529 -10.897 -22.880  0.00  0.00    +0.045 C 
ATOM     32  C   UNL     1      32.943  -9.835 -23.852  0.00  0.00    +0.042 C 
ATOM     33  C   UNL     1      32.580 -13.172 -22.082  0.00  0.00    +0.058 C 
ATOM     34  C   UNL     1      31.523 -10.644 -21.949  0.00  0.00    +0.133 C 
ATOM     35  C   UNL     1      32.794  -8.452 -23.237  0.00  0.00    +0.090 C 
ATOM     36  C   UNL     1      31.454  -8.255 -22.558  0.00  0.00    +0.227 C 
ATOM     37  C   UNL     1      31.575 -12.825 -21.197  0.00  0.00    +0.103 C 
ATOM     38  H   UNL     1      30.164  -9.229 -21.321  0.00  0.00    +0.156 HD
ENDBRANCH  26  30
ENDBRANCH   9  26
TORSDOF 4
ENDMDL
MODEL 8
REMARK VINA RESULT:     -11.8      6.614     12.423
REMARK  Name = 89670174
REMARK  4 active torsions:
REMARK  status: ('A' for Active; 'I' for Inactive)
REMARK    1  A    between atoms: C_3  and  C_13
REMARK    2  A    between atoms: C_9  and  O_26
REMARK    3  A    between atoms: C_18  and  C_25
REMARK    4  A    between atoms: O_26  and  C_30
REMARK                            x       y       z     vdW  Elec       q    Type
REMARK                         _______ _______ _______ _____ _____    ______ ____
ROOT
ATOM      1  O   UNL     1      31.003 -23.699 -16.756  0.00  0.00    -0.479 OA
ATOM      2  C   UNL     1      33.132 -22.514 -16.562  0.00  0.00    +0.072 C 
ATOM      3  C   UNL     1      33.111 -22.955 -18.017  0.00  0.00    +0.085 C 
ATOM      4  C   UNL     1      31.814 -22.602 -17.321  0.00  0.00    +0.174 C 
ATOM      5  C   UNL     1      32.930 -23.507 -15.475  0.00  0.00    +0.018 C 
ATOM      6  C   UNL     1      31.691 -24.141 -15.638  0.00  0.00    +0.135 C 
ATOM      7  C   UNL     1      33.741 -23.858 -14.407  0.00  0.00    +0.036 C 
ATOM      8  C   UNL     1      31.231 -25.119 -14.777  0.00  0.00    +0.040 C 
ATOM      9  C   UNL     1      33.295 -24.844 -13.520  0.00  0.00    +0.145 C 
ATOM     10  C   UNL     1      32.050 -25.469 -13.704  0.00  0.00    +0.041 C 
ENDROOT
BRANCH   3  13
ATOM     11  N   UNL     1      32.900 -21.355 -19.985  0.00  0.00    -0.318 N 
ATOM     12  N   UNL     1      34.950 -21.805 -19.254  0.00  0.00    -0.318 N 
ATOM     13  C   UNL     1      33.669 -22.038 -19.084  0.00  0.00    +0.148 C 
ATOM     14  C   UNL     1      33.743 -20.632 -20.790  0.00  0.00    +0.059 C 
ATOM     15  C   UNL     1      35.017 -20.929 -20.314  0.00  0.00    +0.059 C 
ATOM     16  C   UNL     1      33.508 -19.770 -21.862  0.00  0.00    +0.019 C 
ATOM     17  C   UNL     1      36.134 -20.342 -20.931  0.00  0.00    +0.016 C 
ATOM     18  C   UNL     1      34.631 -19.193 -22.465  0.00  0.00    +0.073 C 
ATOM     19  C   UNL     1      35.921 -19.473 -22.009  0.00  0.00    +0.005 C 
ATOM     20  H   UNL     1      31.918 -21.377 -20.046  0.00  0.00    +0.148 HD
ATOM     21  H   UNL     1      35.701 -22.175 -18.735  0.00  0.00    +0.148 HD
BRANCH  18  25
ATOM     22  F   UNL     1      33.406 -18.604 -24.432  0.00  0.00    -0.166 F 
ATOM     23  F   UNL     1      34.191 -16.973 -23.238  0.00  0.00    -0.166 F 
ATOM     24  F   UNL     1      35.542 -18.198 -24.421  0.00  0.00    -0.166 F 
ATOM     25  C   UNL     1      34.444 -18.260 -23.615  0.00  0.00    +0.419 C 
ENDBRANCH  18  25
ENDBRANCH   3  13
BRANCH   9  26
ATOM     26  O   UNL     1      34.090 -25.210 -12.449  0.00  0.00    -0.454 OA
BRANCH  26  30
ATOM     27  O   UNL     1      39.576 -26.344 -15.414  0.00  0.00    -0.275 OA
ATOM     28  N   UNL     1      38.685 -24.907 -13.861  0.00  0.00    -0.270 N 
ATOM     29  N   UNL     1      37.844 -23.449 -12.197  0.00  0.00    -0.229 NA
ATOM     30  C   UNL     1      35.333 -24.659 -12.365  0.00  0.00    +0.146 C 
ATOM     31  C   UNL     1      36.383 -25.114 -13.166  0.00  0.00    +0.045 C 
ATOM     32  C   UNL     1      36.173 -26.170 -14.207  0.00  0.00    +0.042 C 
ATOM     33  C   UNL     1      35.546 -23.615 -11.472  0.00  0.00    +0.058 C 
ATOM     34  C   UNL     1      37.619 -24.482 -13.045  0.00  0.00    +0.133 C 
ATOM     35  C   UNL     1      37.458 -26.941 -14.462  0.00  0.00    +0.090 C 
ATOM     36  C   UNL     1      38.656 -26.033 -14.659  0.00  0.00    +0.227 C 
ATOM     37  C   UNL     1      36.807 -23.048 -11.430  0.00  0.00    +0.103 C 
ATOM     38  H   UNL     1      39.508 -24.365 -13.862  0.00  0.00    +0.156 HD
ENDBRANCH  26  30
ENDBRANCH   9  26
TORSDOF 4
ENDMDL
MODEL 9
REMARK VINA RESULT:     -11.6      2.585      4.502
REMARK  Name = 89670174
REMARK  4 active torsions:
REMARK  status: ('A' for Active; 'I' for Inactive)
REMARK    1  A    between atoms: C_3  and  C_13
REMARK    2  A    between atoms: C_9  and  O_26
REMARK    3  A    between atoms: C_18  and  C_25
REMARK    4  A    between atoms: O_26  and  C_30
REMARK                            x       y       z     vdW  Elec       q    Type
REMARK                         _______ _______ _______ _____ _____    ______ ____
ROOT
ATOM      1  O   UNL     1      32.684 -22.137 -19.957  0.00  0.00    -0.479 OA
ATOM      2  C   UNL     1      35.037 -22.000 -19.305  0.00  0.00    +0.072 C 
ATOM      3  C   UNL     1      34.316 -22.161 -17.975  0.00  0.00    +0.085 C 
ATOM      4  C   UNL     1      33.760 -22.827 -19.215  0.00  0.00    +0.174 C 
ATOM      5  C   UNL     1      34.641 -20.921 -20.245  0.00  0.00    +0.018 C 
ATOM      6  C   UNL     1      33.289 -21.061 -20.587  0.00  0.00    +0.135 C 
ATOM      7  C   UNL     1      35.375 -19.877 -20.787  0.00  0.00    +0.036 C 
ATOM      8  C   UNL     1      32.639 -20.196 -21.445  0.00  0.00    +0.040 C 
ATOM      9  C   UNL     1      34.739 -18.989 -21.661  0.00  0.00    +0.145 C 
ATOM     10  C   UNL     1      33.381 -19.148 -21.988  0.00  0.00    +0.041 C 
ENDROOT
BRANCH   3  13
ATOM     11  N   UNL     1      36.234 -22.866 -16.458  0.00  0.00    -0.318 N 
ATOM     12  N   UNL     1      34.306 -23.950 -16.233  0.00  0.00    -0.318 N 
ATOM     13  C   UNL     1      34.941 -23.002 -16.884  0.00  0.00    +0.148 C 
ATOM     14  C   UNL     1      36.446 -23.789 -15.466  0.00  0.00    +0.059 C 
ATOM     15  C   UNL     1      35.229 -24.453 -15.343  0.00  0.00    +0.059 C 
ATOM     16  C   UNL     1      37.565 -24.091 -14.688  0.00  0.00    +0.019 C 
ATOM     17  C   UNL     1      35.101 -25.481 -14.395  0.00  0.00    +0.016 C 
ATOM     18  C   UNL     1      37.420 -25.117 -13.749  0.00  0.00    +0.073 C 
ATOM     19  C   UNL     1      36.211 -25.800 -13.603  0.00  0.00    +0.005 C 
ATOM     20  H   UNL     1      36.894 -22.223 -16.802  0.00  0.00    +0.148 HD
ATOM     21  H   UNL     1      33.372 -24.238 -16.354  0.00  0.00    +0.148 HD
BRANCH  18  25
ATOM     22  F   UNL     1      38.297 -26.467 -11.980  0.00  0.00    -0.166 F 
ATOM     23  F   UNL     1      39.659 -25.944 -13.584  0.00  0.00    -0.166 F 
ATOM     24  F   UNL     1      39.040 -24.431 -12.151  0.00  0.00    -0.166 F 
ATOM     25  C   UNL     1      38.581 -25.485 -12.885  0.00  0.00    +0.419 C 
ENDBRANCH  18  25
ENDBRANCH   3  13
BRANCH   9  26
ATOM     26  O   UNL     1      35.454 -17.940 -22.211  0.00  0.00    -0.454 OA
BRANCH  26  30
ATOM     27  O   UNL     1      32.981 -12.154 -22.972  0.00  0.00    -0.275 OA
ATOM     28  N   UNL     1      33.455 -14.035 -24.200  0.00  0.00    -0.270 N 
ATOM     29  N   UNL     1      33.848 -15.974 -25.498  0.00  0.00    -0.229 NA
ATOM     30  C   UNL     1      34.905 -17.287 -23.273  0.00  0.00    +0.146 C 
ATOM     31  C   UNL     1      34.435 -15.978 -23.153  0.00  0.00    +0.045 C 
ATOM     32  C   UNL     1      34.585 -15.205 -21.879  0.00  0.00    +0.042 C 
ATOM     33  C   UNL     1      34.829 -17.941 -24.497  0.00  0.00    +0.058 C 
ATOM     34  C   UNL     1      33.912 -15.364 -24.291  0.00  0.00    +0.133 C 
ATOM     35  C   UNL     1      33.492 -14.154 -21.753  0.00  0.00    +0.090 C 
ATOM     36  C   UNL     1      33.318 -13.337 -23.017  0.00  0.00    +0.227 C 
ATOM     37  C   UNL     1      34.300 -17.245 -25.569  0.00  0.00    +0.103 C 
ATOM     38  H   UNL     1      33.218 -13.573 -25.036  0.00  0.00    +0.156 HD
ENDBRANCH  26  30
ENDBRANCH   9  26
TORSDOF 4
ENDMDL
