MODEL 1
REMARK VINA RESULT:     -11.4      0.000      0.000
REMARK  Name = 23650961
REMARK  5 active torsions:
REMARK  status: ('A' for Active; 'I' for Inactive)
REMARK    1  A    between atoms: N_1  and  C_23
REMARK    2  A    between atoms: C_5  and  C_12
REMARK    3  A    between atoms: C_23  and  C_24
REMARK    4  A    between atoms: C_24  and  C_25
REMARK    5  A    between atoms: C_25  and  C_27
REMARK                            x       y       z     vdW  Elec       q    Type
REMARK                         _______ _______ _______ _____ _____    ______ ____
ROOT
ATOM      1  N   UNL     1      34.596 -17.464 -24.871  0.00  0.00    -0.268 N 
ATOM      2  N   UNL     1      33.777 -15.428 -25.704  0.00  0.00    -0.342 NA
ATOM      3  N   UNL     1      34.848 -15.542 -23.548  0.00  0.00    -0.170 NA
ATOM      4  C   UNL     1      34.401 -16.102 -24.702  0.00  0.00    +0.144 C 
ATOM      5  C   UNL     1      34.017 -13.438 -24.372  0.00  0.00    +0.061 C 
ATOM      6  C   UNL     1      33.602 -14.106 -25.506  0.00  0.00    +0.123 C 
ATOM      7  C   UNL     1      34.640 -14.215 -23.416  0.00  0.00    +0.113 C 
ATOM      8  C   UNL     1      32.915 -13.376 -26.615  0.00  0.00    +0.067 C 
ATOM      9  H   UNL     1      34.276 -17.878 -25.704  0.00  0.00    +0.159 HD
ENDROOT
BRANCH   5  12
ATOM     10  N   UNL     1      34.629 -11.091 -24.766  0.00  0.00    -0.314 N 
ATOM     11  N   UNL     1      32.896 -11.467 -23.425  0.00  0.00    -0.315 N 
ATOM     12  C   UNL     1      33.826 -12.026 -24.171  0.00  0.00    +0.171 C 
ATOM     13  C   UNL     1      34.189  -9.851 -24.379  0.00  0.00    +0.059 C 
ATOM     14  C   UNL     1      33.108 -10.112 -23.543  0.00  0.00    +0.055 C 
ATOM     15  C   UNL     1      32.414  -9.036 -22.963  0.00  0.00    -0.008 C 
ATOM     16  C   UNL     1      34.632  -8.562 -24.679  0.00  0.00    +0.011 C 
ATOM     17  C   UNL     1      33.931  -7.503 -24.093  0.00  0.00    -0.021 C 
ATOM     18  C   UNL     1      32.842  -7.733 -23.251  0.00  0.00    -0.007 C 
ATOM     19  C   UNL     1      31.244  -9.231 -22.055  0.00  0.00    +0.032 C 
ATOM     20  C   UNL     1      34.356  -6.099 -24.378  0.00  0.00    +0.031 C 
ATOM     21  H   UNL     1      35.387 -11.275 -25.366  0.00  0.00    +0.149 HD
ATOM     22  H   UNL     1      32.200 -11.920 -22.896  0.00  0.00    +0.149 HD
ENDBRANCH   5  12
BRANCH   1  23
ATOM     23  C   UNL     1      35.243 -18.307 -23.895  0.00  0.00    +0.098 C 
BRANCH  23  24
ATOM     24  C   UNL     1      34.210 -19.048 -23.050  0.00  0.00    +0.022 C 
BRANCH  24  25
ATOM     25  C   UNL     1      34.619 -19.144 -21.580  0.00  0.00    +0.002 C 
BRANCH  25  27
ATOM     26  N   UNL     1      33.708 -22.233 -18.701  0.00  0.00    +0.385 N 
ATOM     27  C   UNL     1      34.301 -20.524 -21.007  0.00  0.00    -0.004 C 
ATOM     28  C   UNL     1      32.932 -20.531 -20.320  0.00  0.00    -0.023 C 
ATOM     29  C   UNL     1      35.380 -20.971 -20.016  0.00  0.00    -0.023 C 
ATOM     30  C   UNL     1      32.650 -21.880 -19.656  0.00  0.00    -0.077 C 
ATOM     31  C   UNL     1      35.017 -22.306 -19.364  0.00  0.00    -0.077 C 
ATOM     32  C   UNL     1      33.399 -23.500 -18.038  0.00  0.00    -0.101 C 
ATOM     33  H   UNL     1      33.754 -21.497 -17.995  0.00  0.00    -0.080 HD
ENDBRANCH  25  27
ENDBRANCH  24  25
ENDBRANCH  23  24
ENDBRANCH   1  23
TORSDOF 5
ENDMDL
MODEL 2
REMARK VINA RESULT:     -11.1      0.596      1.658
REMARK  Name = 23650961
REMARK  5 active torsions:
REMARK  status: ('A' for Active; 'I' for Inactive)
REMARK    1  A    between atoms: N_1  and  C_23
REMARK    2  A    between atoms: C_5  and  C_12
REMARK    3  A    between atoms: C_23  and  C_24
REMARK    4  A    between atoms: C_24  and  C_25
REMARK    5  A    between atoms: C_25  and  C_27
REMARK                            x       y       z     vdW  Elec       q    Type
REMARK                         _______ _______ _______ _____ _____    ______ ____
ROOT
ATOM      1  N   UNL     1      34.703 -17.576 -24.864  0.00  0.00    -0.268 N 
ATOM      2  N   UNL     1      33.846 -15.537 -25.647  0.00  0.00    -0.342 NA
ATOM      3  N   UNL     1      34.787 -15.716 -23.436  0.00  0.00    -0.170 NA
ATOM      4  C   UNL     1      34.437 -16.234 -24.642  0.00  0.00    +0.144 C 
ATOM      5  C   UNL     1      33.915 -13.608 -24.208  0.00  0.00    +0.061 C 
ATOM      6  C   UNL     1      33.601 -14.234 -25.398  0.00  0.00    +0.123 C 
ATOM      7  C   UNL     1      34.513 -14.407 -23.253  0.00  0.00    +0.113 C 
ATOM      8  C   UNL     1      32.951 -13.478 -26.511  0.00  0.00    +0.067 C 
ATOM      9  H   UNL     1      34.454 -17.960 -25.735  0.00  0.00    +0.159 HD
ENDROOT
BRANCH   5  12
ATOM     10  N   UNL     1      32.544 -11.805 -23.257  0.00  0.00    -0.314 N 
ATOM     11  N   UNL     1      34.395 -11.202 -24.328  0.00  0.00    -0.315 N 
ATOM     12  C   UNL     1      33.649 -12.218 -23.951  0.00  0.00    +0.171 C 
ATOM     13  C   UNL     1      32.580 -10.437 -23.183  0.00  0.00    +0.059 C 
ATOM     14  C   UNL     1      33.745 -10.084 -23.858  0.00  0.00    +0.055 C 
ATOM     15  C   UNL     1      34.088  -8.726 -23.969  0.00  0.00    -0.008 C 
ATOM     16  C   UNL     1      31.719  -9.504 -22.601  0.00  0.00    +0.011 C 
ATOM     17  C   UNL     1      32.075  -8.157 -22.721  0.00  0.00    -0.021 C 
ATOM     18  C   UNL     1      33.238  -7.772 -23.392  0.00  0.00    -0.007 C 
ATOM     19  C   UNL     1      35.319  -8.264 -24.677  0.00  0.00    +0.032 C 
ATOM     20  C   UNL     1      31.196  -7.112 -22.117  0.00  0.00    +0.031 C 
ATOM     21  H   UNL     1      31.846 -12.387 -22.879  0.00  0.00    +0.149 HD
ATOM     22  H   UNL     1      35.238 -11.234 -24.837  0.00  0.00    +0.149 HD
ENDBRANCH   5  12
BRANCH   1  23
ATOM     23  C   UNL     1      35.325 -18.441 -23.890  0.00  0.00    +0.098 C 
BRANCH  23  24
ATOM     24  C   UNL     1      34.272 -19.154 -23.048  0.00  0.00    +0.022 C 
BRANCH  24  25
ATOM     25  C   UNL     1      34.659 -19.230 -21.570  0.00  0.00    +0.002 C 
BRANCH  25  27
ATOM     26  N   UNL     1      33.680 -22.257 -18.649  0.00  0.00    +0.385 N 
ATOM     27  C   UNL     1      34.315 -20.594 -20.978  0.00  0.00    -0.004 C 
ATOM     28  C   UNL     1      32.942 -20.568 -20.298  0.00  0.00    -0.023 C 
ATOM     29  C   UNL     1      35.380 -21.044 -19.974  0.00  0.00    -0.023 C 
ATOM     30  C   UNL     1      32.633 -21.901 -19.616  0.00  0.00    -0.077 C 
ATOM     31  C   UNL     1      34.991 -22.362 -19.302  0.00  0.00    -0.077 C 
ATOM     32  C   UNL     1      33.346 -23.508 -17.967  0.00  0.00    -0.101 C 
ATOM     33  H   UNL     1      33.733 -21.511 -17.955  0.00  0.00    -0.080 HD
ENDBRANCH  25  27
ENDBRANCH  24  25
ENDBRANCH  23  24
ENDBRANCH   1  23
TORSDOF 5
ENDMDL
MODEL 3
REMARK VINA RESULT:     -10.9      3.783     13.241
REMARK  Name = 23650961
REMARK  5 active torsions:
REMARK  status: ('A' for Active; 'I' for Inactive)
REMARK    1  A    between atoms: N_1  and  C_23
REMARK    2  A    between atoms: C_5  and  C_12
REMARK    3  A    between atoms: C_23  and  C_24
REMARK    4  A    between atoms: C_24  and  C_25
REMARK    5  A    between atoms: C_25  and  C_27
REMARK                            x       y       z     vdW  Elec       q    Type
REMARK                         _______ _______ _______ _____ _____    ______ ____
ROOT
ATOM      1  N   UNL     1      35.037 -20.615 -20.994  0.00  0.00    -0.268 N 
ATOM      2  N   UNL     1      34.266 -22.054 -19.308  0.00  0.00    -0.342 NA
ATOM      3  N   UNL     1      36.405 -20.962 -19.120  0.00  0.00    -0.170 NA
ATOM      4  C   UNL     1      35.243 -21.230 -19.768  0.00  0.00    +0.144 C 
ATOM      5  C   UNL     1      35.645 -22.433 -17.372  0.00  0.00    +0.061 C 
ATOM      6  C   UNL     1      34.498 -22.636 -18.114  0.00  0.00    +0.123 C 
ATOM      7  C   UNL     1      36.573 -21.578 -17.930  0.00  0.00    +0.113 C 
ATOM      8  C   UNL     1      33.417 -23.540 -17.618  0.00  0.00    +0.067 C 
ATOM      9  H   UNL     1      34.197 -20.803 -21.472  0.00  0.00    +0.159 HD
ENDROOT
BRANCH   5  12
ATOM     10  N   UNL     1      35.073 -22.841 -15.017  0.00  0.00    -0.314 N 
ATOM     11  N   UNL     1      36.864 -23.889 -15.813  0.00  0.00    -0.315 N 
ATOM     12  C   UNL     1      35.884 -23.059 -16.099  0.00  0.00    +0.171 C 
ATOM     13  C   UNL     1      35.564 -23.575 -13.969  0.00  0.00    +0.059 C 
ATOM     14  C   UNL     1      36.681 -24.221 -14.490  0.00  0.00    +0.055 C 
ATOM     15  C   UNL     1      37.431 -25.072 -13.660  0.00  0.00    -0.008 C 
ATOM     16  C   UNL     1      35.139 -23.727 -12.647  0.00  0.00    +0.011 C 
ATOM     17  C   UNL     1      35.897 -24.576 -11.835  0.00  0.00    -0.021 C 
ATOM     18  C   UNL     1      37.023 -25.238 -12.330  0.00  0.00    -0.007 C 
ATOM     19  C   UNL     1      38.643 -25.800 -14.142  0.00  0.00    +0.032 C 
ATOM     20  C   UNL     1      35.492 -24.780 -10.412  0.00  0.00    +0.031 C 
ATOM     21  H   UNL     1      34.280 -22.259 -14.996  0.00  0.00    +0.149 HD
ATOM     22  H   UNL     1      37.577 -24.205 -16.416  0.00  0.00    +0.149 HD
ENDBRANCH   5  12
BRANCH   1  23
ATOM     23  C   UNL     1      35.984 -19.716 -21.608  0.00  0.00    +0.098 C 
BRANCH  23  24
ATOM     24  C   UNL     1      35.335 -18.368 -21.909  0.00  0.00    +0.022 C 
BRANCH  24  25
ATOM     25  C   UNL     1      34.908 -18.239 -23.372  0.00  0.00    +0.002 C 
BRANCH  25  27
ATOM     26  N   UNL     1      33.481 -14.236 -24.143  0.00  0.00    +0.385 N 
ATOM     27  C   UNL     1      34.902 -16.779 -23.819  0.00  0.00    -0.004 C 
ATOM     28  C   UNL     1      34.610 -15.845 -22.641  0.00  0.00    -0.023 C 
ATOM     29  C   UNL     1      33.873 -16.548 -24.930  0.00  0.00    -0.023 C 
ATOM     30  C   UNL     1      34.502 -14.389 -23.098  0.00  0.00    -0.077 C 
ATOM     31  C   UNL     1      33.790 -15.069 -25.312  0.00  0.00    -0.077 C 
ATOM     32  C   UNL     1      33.353 -12.832 -24.534  0.00  0.00    -0.101 C 
ATOM     33  H   UNL     1      32.589 -14.551 -23.760  0.00  0.00    -0.080 HD
ENDBRANCH  25  27
ENDBRANCH  24  25
ENDBRANCH  23  24
ENDBRANCH   1  23
TORSDOF 5
ENDMDL
MODEL 4
REMARK VINA RESULT:     -10.8      1.182      1.707
REMARK  Name = 23650961
REMARK  5 active torsions:
REMARK  status: ('A' for Active; 'I' for Inactive)
REMARK    1  A    between atoms: N_1  and  C_23
REMARK    2  A    between atoms: C_5  and  C_12
REMARK    3  A    between atoms: C_23  and  C_24
REMARK    4  A    between atoms: C_24  and  C_25
REMARK    5  A    between atoms: C_25  and  C_27
REMARK                            x       y       z     vdW  Elec       q    Type
REMARK                         _______ _______ _______ _____ _____    ______ ____
ROOT
ATOM      1  N   UNL     1      35.449 -17.699 -23.973  0.00  0.00    -0.268 N 
ATOM      2  N   UNL     1      34.326 -15.844 -24.873  0.00  0.00    -0.342 NA
ATOM      3  N   UNL     1      34.937 -15.910 -22.543  0.00  0.00    -0.170 NA
ATOM      4  C   UNL     1      34.886 -16.444 -23.790  0.00  0.00    +0.144 C 
ATOM      5  C   UNL     1      33.785 -13.992 -23.433  0.00  0.00    +0.061 C 
ATOM      6  C   UNL     1      33.788 -14.626 -24.660  0.00  0.00    +0.123 C 
ATOM      7  C   UNL     1      34.379 -14.689 -22.400  0.00  0.00    +0.113 C 
ATOM      8  C   UNL     1      33.175 -13.976 -25.858  0.00  0.00    +0.067 C 
ATOM      9  H   UNL     1      35.417 -18.094 -24.873  0.00  0.00    +0.159 HD
ENDROOT
BRANCH   5  12
ATOM     10  N   UNL     1      33.528 -11.615 -23.997  0.00  0.00    -0.314 N 
ATOM     11  N   UNL     1      32.332 -12.377 -22.285  0.00  0.00    -0.315 N 
ATOM     12  C   UNL     1      33.207 -12.693 -23.216  0.00  0.00    +0.171 C 
ATOM     13  C   UNL     1      32.815 -10.537 -23.538  0.00  0.00    +0.059 C 
ATOM     14  C   UNL     1      32.076 -11.038 -22.471  0.00  0.00    +0.055 C 
ATOM     15  C   UNL     1      31.221 -10.175 -21.764  0.00  0.00    -0.008 C 
ATOM     16  C   UNL     1      32.755  -9.205 -23.954  0.00  0.00    +0.011 C 
ATOM     17  C   UNL     1      31.900  -8.360 -23.239  0.00  0.00    -0.021 C 
ATOM     18  C   UNL     1      31.146  -8.834 -22.164  0.00  0.00    -0.007 C 
ATOM     19  C   UNL     1      30.396 -10.634 -20.607  0.00  0.00    +0.032 C 
ATOM     20  C   UNL     1      31.790  -6.925 -23.637  0.00  0.00    +0.031 C 
ATOM     21  H   UNL     1      34.158 -11.613 -24.752  0.00  0.00    +0.149 HD
ATOM     22  H   UNL     1      31.944 -12.972 -21.603  0.00  0.00    +0.149 HD
ENDBRANCH   5  12
BRANCH   1  23
ATOM     23  C   UNL     1      36.078 -18.456 -22.918  0.00  0.00    +0.098 C 
BRANCH  23  24
ATOM     24  C   UNL     1      35.332 -19.764 -22.671  0.00  0.00    +0.022 C 
BRANCH  24  25
ATOM     25  C   UNL     1      33.977 -19.545 -21.997  0.00  0.00    +0.002 C 
BRANCH  25  27
ATOM     26  N   UNL     1      33.708 -22.672 -19.029  0.00  0.00    +0.385 N 
ATOM     27  C   UNL     1      33.922 -20.227 -20.632  0.00  0.00    -0.004 C 
ATOM     28  C   UNL     1      35.093 -21.201 -20.456  0.00  0.00    -0.023 C 
ATOM     29  C   UNL     1      32.597 -20.972 -20.440  0.00  0.00    -0.023 C 
ATOM     30  C   UNL     1      34.990 -21.962 -19.133  0.00  0.00    -0.077 C 
ATOM     31  C   UNL     1      32.577 -21.740 -19.118  0.00  0.00    -0.077 C 
ATOM     32  C   UNL     1      33.645 -23.436 -17.783  0.00  0.00    -0.101 C 
ATOM     33  H   UNL     1      33.643 -23.321 -19.814  0.00  0.00    -0.080 HD
ENDBRANCH  25  27
ENDBRANCH  24  25
ENDBRANCH  23  24
ENDBRANCH   1  23
TORSDOF 5
ENDMDL
MODEL 5
REMARK VINA RESULT:     -10.8      3.048     11.835
REMARK  Name = 23650961
REMARK  5 active torsions:
REMARK  status: ('A' for Active; 'I' for Inactive)
REMARK    1  A    between atoms: N_1  and  C_23
REMARK    2  A    between atoms: C_5  and  C_12
REMARK    3  A    between atoms: C_23  and  C_24
REMARK    4  A    between atoms: C_24  and  C_25
REMARK    5  A    between atoms: C_25  and  C_27
REMARK                            x       y       z     vdW  Elec       q    Type
REMARK                         _______ _______ _______ _____ _____    ______ ____
ROOT
ATOM      1  N   UNL     1      34.838 -19.330 -22.909  0.00  0.00    -0.268 N 
ATOM      2  N   UNL     1      35.471 -20.532 -20.996  0.00  0.00    -0.342 NA
ATOM      3  N   UNL     1      33.147 -20.249 -21.567  0.00  0.00    -0.170 NA
ATOM      4  C   UNL     1      34.474 -20.060 -21.789  0.00  0.00    +0.144 C 
ATOM      5  C   UNL     1      33.762 -21.488 -19.596  0.00  0.00    +0.061 C 
ATOM      6  C   UNL     1      35.082 -21.238 -19.914  0.00  0.00    +0.123 C 
ATOM      7  C   UNL     1      32.828 -20.963 -20.467  0.00  0.00    +0.113 C 
ATOM      8  C   UNL     1      36.188 -21.751 -19.050  0.00  0.00    +0.067 C 
ATOM      9  H   UNL     1      35.797 -19.188 -23.079  0.00  0.00    +0.159 HD
ENDROOT
BRANCH   5  12
ATOM     10  N   UNL     1      32.040 -22.470 -18.144  0.00  0.00    -0.314 N 
ATOM     11  N   UNL     1      34.158 -22.789 -17.549  0.00  0.00    -0.315 N 
ATOM     12  C   UNL     1      33.357 -22.241 -18.439  0.00  0.00    +0.171 C 
ATOM     13  C   UNL     1      31.989 -23.210 -16.991  0.00  0.00    +0.059 C 
ATOM     14  C   UNL     1      33.323 -23.397 -16.640  0.00  0.00    +0.055 C 
ATOM     15  C   UNL     1      33.631 -24.131 -15.482  0.00  0.00    -0.008 C 
ATOM     16  C   UNL     1      30.922 -23.719 -16.248  0.00  0.00    +0.011 C 
ATOM     17  C   UNL     1      31.246 -24.446 -15.098  0.00  0.00    -0.021 C 
ATOM     18  C   UNL     1      32.575 -24.650 -14.720  0.00  0.00    -0.007 C 
ATOM     19  C   UNL     1      35.035 -24.376 -15.035  0.00  0.00    +0.032 C 
ATOM     20  C   UNL     1      30.149 -25.017 -14.261  0.00  0.00    +0.031 C 
ATOM     21  H   UNL     1      31.267 -22.157 -18.666  0.00  0.00    +0.149 HD
ATOM     22  H   UNL     1      35.142 -22.768 -17.537  0.00  0.00    +0.149 HD
ENDBRANCH   5  12
BRANCH   1  23
ATOM     23  C   UNL     1      33.891 -18.767 -23.841  0.00  0.00    +0.098 C 
BRANCH  23  24
ATOM     24  C   UNL     1      34.451 -17.503 -24.486  0.00  0.00    +0.022 C 
BRANCH  24  25
ATOM     25  C   UNL     1      35.365 -16.721 -23.542  0.00  0.00    +0.002 C 
BRANCH  25  27
ATOM     26  N   UNL     1      32.530 -13.662 -22.418  0.00  0.00    +0.385 N 
ATOM     27  C   UNL     1      34.790 -15.340 -23.234  0.00  0.00    -0.004 C 
ATOM     28  C   UNL     1      34.312 -15.254 -21.781  0.00  0.00    -0.023 C 
ATOM     29  C   UNL     1      33.634 -15.002 -24.180  0.00  0.00    -0.023 C 
ATOM     30  C   UNL     1      33.644 -13.909 -21.493  0.00  0.00    -0.077 C 
ATOM     31  C   UNL     1      32.989 -13.664 -23.813  0.00  0.00    -0.077 C 
ATOM     32  C   UNL     1      31.869 -12.397 -22.098  0.00  0.00    -0.101 C 
ATOM     33  H   UNL     1      31.856 -14.420 -22.307  0.00  0.00    -0.080 HD
ENDBRANCH  25  27
ENDBRANCH  24  25
ENDBRANCH  23  24
ENDBRANCH   1  23
TORSDOF 5
ENDMDL
MODEL 6
REMARK VINA RESULT:     -10.6      1.471      2.712
REMARK  Name = 23650961
REMARK  5 active torsions:
REMARK  status: ('A' for Active; 'I' for Inactive)
REMARK    1  A    between atoms: N_1  and  C_23
REMARK    2  A    between atoms: C_5  and  C_12
REMARK    3  A    between atoms: C_23  and  C_24
REMARK    4  A    between atoms: C_24  and  C_25
REMARK    5  A    between atoms: C_25  and  C_27
REMARK                            x       y       z     vdW  Elec       q    Type
REMARK                         _______ _______ _______ _____ _____    ______ ____
ROOT
ATOM      1  N   UNL     1      35.261 -18.518 -22.819  0.00  0.00    -0.268 N 
ATOM      2  N   UNL     1      34.463 -16.805 -24.210  0.00  0.00    -0.342 NA
ATOM      3  N   UNL     1      34.975 -16.380 -21.895  0.00  0.00    -0.170 NA
ATOM      4  C   UNL     1      34.888 -17.192 -22.980  0.00  0.00    +0.144 C 
ATOM      5  C   UNL     1      34.157 -14.600 -23.294  0.00  0.00    +0.061 C 
ATOM      6  C   UNL     1      34.107 -15.509 -24.331  0.00  0.00    +0.123 C 
ATOM      7  C   UNL     1      34.603 -15.097 -22.086  0.00  0.00    +0.113 C 
ATOM      8  C   UNL     1      33.641 -15.095 -25.690  0.00  0.00    +0.067 C 
ATOM      9  H   UNL     1      35.202 -19.114 -23.600  0.00  0.00    +0.159 HD
ENDROOT
BRANCH   5  12
ATOM     10  N   UNL     1      32.772 -12.664 -22.683  0.00  0.00    -0.314 N 
ATOM     11  N   UNL     1      34.309 -12.345 -24.257  0.00  0.00    -0.315 N 
ATOM     12  C   UNL     1      33.774 -13.221 -23.433  0.00  0.00    +0.171 C 
ATOM     13  C   UNL     1      32.654 -11.348 -23.049  0.00  0.00    +0.059 C 
ATOM     14  C   UNL     1      33.624 -11.173 -24.032  0.00  0.00    +0.055 C 
ATOM     15  C   UNL     1      33.772  -9.911 -24.632  0.00  0.00    -0.008 C 
ATOM     16  C   UNL     1      31.807 -10.325 -22.617  0.00  0.00    +0.011 C 
ATOM     17  C   UNL     1      31.968  -9.076 -23.224  0.00  0.00    -0.021 C 
ATOM     18  C   UNL     1      32.932  -8.869 -24.213  0.00  0.00    -0.007 C 
ATOM     19  C   UNL     1      34.787  -9.640 -25.694  0.00  0.00    +0.032 C 
ATOM     20  C   UNL     1      31.093  -7.941 -22.804  0.00  0.00    +0.031 C 
ATOM     21  H   UNL     1      32.233 -13.127 -22.003  0.00  0.00    +0.149 HD
ATOM     22  H   UNL     1      35.042 -12.496 -24.898  0.00  0.00    +0.149 HD
ENDBRANCH   5  12
BRANCH   1  23
ATOM     23  C   UNL     1      35.732 -19.072 -21.573  0.00  0.00    +0.098 C 
BRANCH  23  24
ATOM     24  C   UNL     1      34.739 -20.092 -21.024  0.00  0.00    +0.022 C 
BRANCH  24  25
ATOM     25  C   UNL     1      35.428 -21.344 -20.479  0.00  0.00    +0.002 C 
BRANCH  25  27
ATOM     26  N   UNL     1      34.737 -23.512 -16.808  0.00  0.00    +0.385 N 
ATOM     27  C   UNL     1      34.989 -21.637 -19.046  0.00  0.00    -0.004 C 
ATOM     28  C   UNL     1      36.183 -22.046 -18.178  0.00  0.00    -0.023 C 
ATOM     29  C   UNL     1      33.922 -22.736 -19.011  0.00  0.00    -0.023 C 
ATOM     30  C   UNL     1      35.738 -22.438 -16.768  0.00  0.00    -0.077 C 
ATOM     31  C   UNL     1      33.551 -23.104 -17.573  0.00  0.00    -0.077 C 
ATOM     32  C   UNL     1      34.359 -23.912 -15.453  0.00  0.00    -0.101 C 
ATOM     33  H   UNL     1      35.155 -24.315 -17.281  0.00  0.00    -0.080 HD
ENDBRANCH  25  27
ENDBRANCH  24  25
ENDBRANCH  23  24
ENDBRANCH   1  23
TORSDOF 5
ENDMDL
MODEL 7
REMARK VINA RESULT:     -10.6      1.697      2.562
REMARK  Name = 23650961
REMARK  5 active torsions:
REMARK  status: ('A' for Active; 'I' for Inactive)
REMARK    1  A    between atoms: N_1  and  C_23
REMARK    2  A    between atoms: C_5  and  C_12
REMARK    3  A    between atoms: C_23  and  C_24
REMARK    4  A    between atoms: C_24  and  C_25
REMARK    5  A    between atoms: C_25  and  C_27
REMARK                            x       y       z     vdW  Elec       q    Type
REMARK                         _______ _______ _______ _____ _____    ______ ____
ROOT
ATOM      1  N   UNL     1      35.472 -18.714 -22.610  0.00  0.00    -0.268 N 
ATOM      2  N   UNL     1      34.596 -17.013 -23.970  0.00  0.00    -0.342 NA
ATOM      3  N   UNL     1      35.012 -16.633 -21.627  0.00  0.00    -0.170 NA
ATOM      4  C   UNL     1      35.012 -17.412 -22.740  0.00  0.00    +0.144 C 
ATOM      5  C   UNL     1      34.112 -14.867 -22.994  0.00  0.00    +0.061 C 
ATOM      6  C   UNL     1      34.155 -15.742 -24.061  0.00  0.00    +0.123 C 
ATOM      7  C   UNL     1      34.557 -15.373 -21.789  0.00  0.00    +0.113 C 
ATOM      8  C   UNL     1      33.700 -15.316 -25.419  0.00  0.00    +0.067 C 
ATOM      9  H   UNL     1      35.477 -19.286 -23.411  0.00  0.00    +0.159 HD
ENDROOT
BRANCH   5  12
ATOM     10  N   UNL     1      34.201 -12.612 -23.964  0.00  0.00    -0.314 N 
ATOM     11  N   UNL     1      32.647 -12.981 -22.419  0.00  0.00    -0.315 N 
ATOM     12  C   UNL     1      33.638 -13.513 -23.101  0.00  0.00    +0.171 C 
ATOM     13  C   UNL     1      33.530 -11.424 -23.828  0.00  0.00    +0.059 C 
ATOM     14  C   UNL     1      32.564 -11.679 -22.859  0.00  0.00    +0.055 C 
ATOM     15  C   UNL     1      31.688 -10.650 -22.476  0.00  0.00    -0.008 C 
ATOM     16  C   UNL     1      33.679 -10.184 -24.453  0.00  0.00    +0.011 C 
ATOM     17  C   UNL     1      32.799  -9.171 -24.060  0.00  0.00    -0.021 C 
ATOM     18  C   UNL     1      31.820  -9.397 -23.090  0.00  0.00    -0.007 C 
ATOM     19  C   UNL     1      30.626 -10.842 -21.443  0.00  0.00    +0.032 C 
ATOM     20  C   UNL     1      32.908  -7.822 -24.692  0.00  0.00    +0.031 C 
ATOM     21  H   UNL     1      34.953 -12.785 -24.573  0.00  0.00    +0.149 HD
ATOM     22  H   UNL     1      32.084 -13.419 -21.739  0.00  0.00    +0.149 HD
ENDBRANCH   5  12
BRANCH   1  23
ATOM     23  C   UNL     1      35.944 -19.276 -21.368  0.00  0.00    +0.098 C 
BRANCH  23  24
ATOM     24  C   UNL     1      35.007 -20.378 -20.881  0.00  0.00    +0.022 C 
BRANCH  24  25
ATOM     25  C   UNL     1      35.758 -21.536 -20.224  0.00  0.00    +0.002 C 
BRANCH  25  27
ATOM     26  N   UNL     1      35.073 -23.430 -16.403  0.00  0.00    +0.385 N 
ATOM     27  C   UNL     1      35.327 -21.721 -18.771  0.00  0.00    -0.004 C 
ATOM     28  C   UNL     1      36.524 -22.080 -17.884  0.00  0.00    -0.023 C 
ATOM     29  C   UNL     1      34.250 -22.803 -18.649  0.00  0.00    -0.023 C 
ATOM     30  C   UNL     1      36.086 -22.366 -16.447  0.00  0.00    -0.077 C 
ATOM     31  C   UNL     1      33.886 -23.064 -17.187  0.00  0.00    -0.077 C 
ATOM     32  C   UNL     1      34.701 -23.727 -15.019  0.00  0.00    -0.101 C 
ATOM     33  H   UNL     1      35.479 -24.268 -16.819  0.00  0.00    -0.080 HD
ENDBRANCH  25  27
ENDBRANCH  24  25
ENDBRANCH  23  24
ENDBRANCH   1  23
TORSDOF 5
ENDMDL
MODEL 8
REMARK VINA RESULT:     -10.2      2.333     12.027
REMARK  Name = 23650961
REMARK  5 active torsions:
REMARK  status: ('A' for Active; 'I' for Inactive)
REMARK    1  A    between atoms: N_1  and  C_23
REMARK    2  A    between atoms: C_5  and  C_12
REMARK    3  A    between atoms: C_23  and  C_24
REMARK    4  A    between atoms: C_24  and  C_25
REMARK    5  A    between atoms: C_25  and  C_27
REMARK                            x       y       z     vdW  Elec       q    Type
REMARK                         _______ _______ _______ _____ _____    ______ ____
ROOT
ATOM      1  N   UNL     1      35.173 -19.472 -22.671  0.00  0.00    -0.268 N 
ATOM      2  N   UNL     1      35.461 -20.724 -20.708  0.00  0.00    -0.342 NA
ATOM      3  N   UNL     1      33.257 -20.203 -21.530  0.00  0.00    -0.170 NA
ATOM      4  C   UNL     1      34.612 -20.155 -21.603  0.00  0.00    +0.144 C 
ATOM      5  C   UNL     1      33.517 -21.490 -19.512  0.00  0.00    +0.061 C 
ATOM      6  C   UNL     1      34.883 -21.380 -19.681  0.00  0.00    +0.123 C 
ATOM      7  C   UNL     1      32.746 -20.875 -20.477  0.00  0.00    +0.113 C 
ATOM      8  C   UNL     1      35.827 -22.002 -18.704  0.00  0.00    +0.067 C 
ATOM      9  H   UNL     1      36.154 -19.432 -22.733  0.00  0.00    +0.159 HD
ENDROOT
BRANCH   5  12
ATOM     10  N   UNL     1      33.653 -22.860 -17.478  0.00  0.00    -0.314 N 
ATOM     11  N   UNL     1      31.621 -22.278 -18.163  0.00  0.00    -0.315 N 
ATOM     12  C   UNL     1      32.910 -22.190 -18.412  0.00  0.00    +0.171 C 
ATOM     13  C   UNL     1      32.787 -23.416 -16.571  0.00  0.00    +0.059 C 
ATOM     14  C   UNL     1      31.525 -23.038 -17.020  0.00  0.00    +0.055 C 
ATOM     15  C   UNL     1      30.390 -23.450 -16.301  0.00  0.00    -0.008 C 
ATOM     16  C   UNL     1      32.994 -24.193 -15.429  0.00  0.00    +0.011 C 
ATOM     17  C   UNL     1      31.853 -24.595 -14.727  0.00  0.00    -0.021 C 
ATOM     18  C   UNL     1      30.574 -24.232 -15.152  0.00  0.00    -0.007 C 
ATOM     19  C   UNL     1      29.002 -23.088 -16.716  0.00  0.00    +0.032 C 
ATOM     20  C   UNL     1      32.009 -25.427 -13.496  0.00  0.00    +0.031 C 
ATOM     21  H   UNL     1      34.634 -22.932 -17.460  0.00  0.00    +0.149 HD
ATOM     22  H   UNL     1      30.882 -21.885 -18.684  0.00  0.00    +0.149 HD
ENDBRANCH   5  12
BRANCH   1  23
ATOM     23  C   UNL     1      34.398 -18.818 -23.699  0.00  0.00    +0.098 C 
BRANCH  23  24
ATOM     24  C   UNL     1      34.843 -17.368 -23.871  0.00  0.00    +0.022 C 
BRANCH  24  25
ATOM     25  C   UNL     1      34.179 -16.692 -25.072  0.00  0.00    +0.002 C 
BRANCH  25  27
ATOM     26  N   UNL     1      34.158 -12.419 -24.442  0.00  0.00    +0.385 N 
ATOM     27  C   UNL     1      33.674 -15.297 -24.711  0.00  0.00    -0.004 C 
ATOM     28  C   UNL     1      33.742 -14.358 -25.920  0.00  0.00    -0.023 C 
ATOM     29  C   UNL     1      34.476 -14.704 -23.549  0.00  0.00    -0.023 C 
ATOM     30  C   UNL     1      33.333 -12.934 -25.543  0.00  0.00    -0.077 C 
ATOM     31  C   UNL     1      34.041 -13.268 -23.249  0.00  0.00    -0.077 C 
ATOM     32  C   UNL     1      33.790 -11.039 -24.126  0.00  0.00    -0.101 C 
ATOM     33  H   UNL     1      35.133 -12.436 -24.746  0.00  0.00    -0.080 HD
ENDBRANCH  25  27
ENDBRANCH  24  25
ENDBRANCH  23  24
ENDBRANCH   1  23
TORSDOF 5
ENDMDL
MODEL 9
REMARK VINA RESULT:     -10.1      1.914      3.823
REMARK  Name = 23650961
REMARK  5 active torsions:
REMARK  status: ('A' for Active; 'I' for Inactive)
REMARK    1  A    between atoms: N_1  and  C_23
REMARK    2  A    between atoms: C_5  and  C_12
REMARK    3  A    between atoms: C_23  and  C_24
REMARK    4  A    between atoms: C_24  and  C_25
REMARK    5  A    between atoms: C_25  and  C_27
REMARK                            x       y       z     vdW  Elec       q    Type
REMARK                         _______ _______ _______ _____ _____    ______ ____
ROOT
ATOM      1  N   UNL     1      33.389 -14.498 -23.351  0.00  0.00    -0.268 N 
ATOM      2  N   UNL     1      32.505 -12.443 -22.642  0.00  0.00    -0.342 NA
ATOM      3  N   UNL     1      33.915 -12.577 -24.591  0.00  0.00    -0.170 NA
ATOM      4  C   UNL     1      33.266 -13.130 -23.534  0.00  0.00    +0.144 C 
ATOM      5  C   UNL     1      33.025 -10.452 -23.891  0.00  0.00    +0.061 C 
ATOM      6  C   UNL     1      32.407 -11.114 -22.849  0.00  0.00    +0.123 C 
ATOM      7  C   UNL     1      33.775 -11.243 -24.738  0.00  0.00    +0.113 C 
ATOM      8  C   UNL     1      31.567 -10.371 -21.861  0.00  0.00    +0.067 C 
ATOM      9  H   UNL     1      32.922 -14.908 -22.588  0.00  0.00    +0.159 HD
ENDROOT
BRANCH   5  12
ATOM     10  N   UNL     1      31.793  -8.331 -23.753  0.00  0.00    -0.314 N 
ATOM     11  N   UNL     1      33.833  -8.254 -24.632  0.00  0.00    -0.315 N 
ATOM     12  C   UNL     1      32.915  -9.034 -24.102  0.00  0.00    +0.171 C 
ATOM     13  C   UNL     1      32.002  -7.016 -24.080  0.00  0.00    +0.059 C 
ATOM     14  C   UNL     1      33.281  -6.993 -24.627  0.00  0.00    +0.055 C 
ATOM     15  C   UNL     1      33.814  -5.772 -25.074  0.00  0.00    -0.008 C 
ATOM     16  C   UNL     1      31.204  -5.877 -23.948  0.00  0.00    +0.011 C 
ATOM     17  C   UNL     1      31.749  -4.671 -24.398  0.00  0.00    -0.021 C 
ATOM     18  C   UNL     1      33.030  -4.616 -24.951  0.00  0.00    -0.007 C 
ATOM     19  C   UNL     1      35.178  -5.662 -25.673  0.00  0.00    +0.032 C 
ATOM     20  C   UNL     1      30.945  -3.417 -24.283  0.00  0.00    +0.031 C 
ATOM     21  H   UNL     1      30.982  -8.703 -23.341  0.00  0.00    +0.149 HD
ATOM     22  H   UNL     1      34.723  -8.516 -24.963  0.00  0.00    +0.149 HD
ENDBRANCH   5  12
BRANCH   1  23
ATOM     23  C   UNL     1      34.163 -15.356 -24.216  0.00  0.00    +0.098 C 
BRANCH  23  24
ATOM     24  C   UNL     1      35.163 -16.178 -23.409  0.00  0.00    +0.022 C 
BRANCH  24  25
ATOM     25  C   UNL     1      34.886 -17.680 -23.492  0.00  0.00    +0.002 C 
BRANCH  25  27
ATOM     26  N   UNL     1      35.926 -20.678 -20.562  0.00  0.00    +0.385 N 
ATOM     27  C   UNL     1      35.083 -18.354 -22.136  0.00  0.00    -0.004 C 
ATOM     28  C   UNL     1      36.558 -18.696 -21.901  0.00  0.00    -0.023 C 
ATOM     29  C   UNL     1      34.233 -19.623 -22.024  0.00  0.00    -0.023 C 
ATOM     30  C   UNL     1      36.749 -19.461 -20.590  0.00  0.00    -0.077 C 
ATOM     31  C   UNL     1      34.501 -20.357 -20.709  0.00  0.00    -0.077 C 
ATOM     32  C   UNL     1      36.158 -21.425 -19.326  0.00  0.00    -0.101 C 
ATOM     33  H   UNL     1      36.201 -21.262 -21.353  0.00  0.00    -0.080 HD
ENDBRANCH  25  27
ENDBRANCH  24  25
ENDBRANCH  23  24
ENDBRANCH   1  23
TORSDOF 5
ENDMDL
