MODEL 1
REMARK VINA RESULT:     -12.0      0.000      0.000
REMARK  Name = 11476460
REMARK  8 active torsions:
REMARK  status: ('A' for Active; 'I' for Inactive)
REMARK    1  A    between atoms: C_2  and  N_10
REMARK    2  A    between atoms: C_5  and  C_23
REMARK    3  A    between atoms: C_11  and  C_14
REMARK    4  A    between atoms: C_14  and  O_15
REMARK    5  A    between atoms: O_15  and  P_16
REMARK    6  A    between atoms: P_16  and  O_18
REMARK    7  A    between atoms: P_16  and  O_20
REMARK    8  A    between atoms: C_27  and  C_32
REMARK                            x       y       z     vdW  Elec       q    Type
REMARK                         _______ _______ _______ _____ _____    ______ ____
ROOT
ATOM      1  F   UNL     1      33.105 -22.790 -18.424  0.00  0.00    -0.204 F 
ATOM      2  C   UNL     1      35.857 -23.490 -16.147  0.00  0.00    +0.059 C 
ATOM      3  C   UNL     1      34.589 -23.514 -16.736  0.00  0.00    +0.045 C 
ATOM      4  C   UNL     1      36.863 -22.699 -16.711  0.00  0.00    +0.015 C 
ATOM      5  C   UNL     1      35.335 -21.966 -18.434  0.00  0.00    +0.029 C 
ATOM      6  C   UNL     1      34.328 -22.754 -17.876  0.00  0.00    +0.141 C 
ATOM      7  C   UNL     1      36.602 -21.938 -17.851  0.00  0.00    +0.004 C 
ENDROOT
BRANCH   2  10
ATOM      8  O   UNL     1      36.443 -26.006 -13.581  0.00  0.00    -0.434 OA
ATOM      9  O   UNL     1      35.954 -26.503 -15.739  0.00  0.00    -0.226 OA
ATOM     10  N   UNL     1      36.122 -24.266 -14.984  0.00  0.00    -0.221 N 
ATOM     11  C   UNL     1      36.833 -24.832 -12.855  0.00  0.00    +0.221 C 
ATOM     12  C   UNL     1      36.292 -23.684 -13.680  0.00  0.00    +0.148 C 
ATOM     13  C   UNL     1      36.157 -25.655 -14.882  0.00  0.00    +0.409 C 
BRANCH  11  14
ATOM     14  C   UNL     1      38.350 -24.815 -12.726  0.00  0.00    +0.199 C 
BRANCH  14  15
ATOM     15  O   UNL     1      38.871 -25.971 -13.356  0.00  0.00    -0.269 OA
BRANCH  15  16
ATOM     16  P   UNL     1      39.989 -25.784 -14.513  0.00  0.00    +0.473 P 
ATOM     17  O   UNL     1      40.724 -24.476 -14.478  0.00  0.00    -0.227 OA
BRANCH  16  18
ATOM     18  O   UNL     1      39.181 -26.088 -15.880  0.00  0.00    -0.303 OA
ATOM     19  H   UNL     1      39.252 -27.032 -16.094  0.00  0.00    +0.222 HD
ENDBRANCH  16  18
BRANCH  16  20
ATOM     20  O   UNL     1      40.919 -27.095 -14.332  0.00  0.00    -0.303 OA
ATOM     21  H   UNL     1      40.798 -27.456 -13.440  0.00  0.00    +0.222 HD
ENDBRANCH  16  20
ENDBRANCH  15  16
ENDBRANCH  14  15
ENDBRANCH  11  14
ENDBRANCH   2  10
BRANCH   5  23
ATOM     22  N   UNL     1      35.924 -19.830 -21.431  0.00  0.00    -0.234 NA
ATOM     23  C   UNL     1      35.070 -21.174 -19.616  0.00  0.00    +0.021 C 
ATOM     24  C   UNL     1      33.772 -20.985 -20.072  0.00  0.00    +0.004 C 
ATOM     25  C   UNL     1      36.102 -20.583 -20.322  0.00  0.00    +0.100 C 
ATOM     26  C   UNL     1      33.548 -20.218 -21.209  0.00  0.00    +0.029 C 
ATOM     27  C   UNL     1      34.648 -19.667 -21.847  0.00  0.00    +0.146 C 
BRANCH  27  32
ATOM     28  N   UNL     1      34.672 -17.546 -23.050  0.00  0.00    -0.105 NA
ATOM     29  N   UNL     1      34.384 -17.311 -24.338  0.00  0.00    -0.113 N 
ATOM     30  N   UNL     1      34.094 -19.396 -24.220  0.00  0.00    -0.085 NA
ATOM     31  N   UNL     1      34.037 -18.378 -25.069  0.00  0.00    -0.018 NA
ATOM     32  C   UNL     1      34.476 -18.865 -23.025  0.00  0.00    +0.092 C 
ATOM     33  C   UNL     1      34.444 -15.988 -24.904  0.00  0.00    +0.163 C 
ENDBRANCH  27  32
ENDBRANCH   5  23
TORSDOF 8
ENDMDL
MODEL 2
REMARK VINA RESULT:     -10.8      7.229     11.133
REMARK  Name = 11476460
REMARK  8 active torsions:
REMARK  status: ('A' for Active; 'I' for Inactive)
REMARK    1  A    between atoms: C_2  and  N_10
REMARK    2  A    between atoms: C_5  and  C_23
REMARK    3  A    between atoms: C_11  and  C_14
REMARK    4  A    between atoms: C_14  and  O_15
REMARK    5  A    between atoms: O_15  and  P_16
REMARK    6  A    between atoms: P_16  and  O_18
REMARK    7  A    between atoms: P_16  and  O_20
REMARK    8  A    between atoms: C_27  and  C_32
REMARK                            x       y       z     vdW  Elec       q    Type
REMARK                         _______ _______ _______ _____ _____    ______ ____
ROOT
ATOM      1  F   UNL     1      32.989 -21.143 -19.994  0.00  0.00    -0.204 F 
ATOM      2  C   UNL     1      35.032 -19.172 -22.272  0.00  0.00    +0.059 C 
ATOM      3  C   UNL     1      33.918 -19.775 -21.679  0.00  0.00    +0.045 C 
ATOM      4  C   UNL     1      36.301 -19.374 -21.718  0.00  0.00    +0.015 C 
ATOM      5  C   UNL     1      35.338 -20.770 -19.997  0.00  0.00    +0.029 C 
ATOM      6  C   UNL     1      34.071 -20.573 -20.545  0.00  0.00    +0.141 C 
ATOM      7  C   UNL     1      36.453 -20.171 -20.584  0.00  0.00    +0.004 C 
ENDROOT
BRANCH   2  10
ATOM      8  O   UNL     1      34.378 -17.650 -25.514  0.00  0.00    -0.434 OA
ATOM      9  O   UNL     1      33.914 -19.816 -25.026  0.00  0.00    -0.226 OA
ATOM     10  N   UNL     1      34.877 -18.358 -23.429  0.00  0.00    -0.221 N 
ATOM     11  C   UNL     1      34.730 -16.476 -24.769  0.00  0.00    +0.221 C 
ATOM     12  C   UNL     1      35.376 -17.012 -23.509  0.00  0.00    +0.148 C 
ATOM     13  C   UNL     1      34.342 -18.730 -24.661  0.00  0.00    +0.409 C 
BRANCH  11  14
ATOM     14  C   UNL     1      33.467 -15.670 -24.499  0.00  0.00    +0.199 C 
BRANCH  14  15
ATOM     15  O   UNL     1      33.715 -14.315 -24.829  0.00  0.00    -0.269 OA
BRANCH  15  16
ATOM     16  P   UNL     1      33.669 -13.210 -23.646  0.00  0.00    +0.473 P 
ATOM     17  O   UNL     1      32.318 -13.000 -23.027  0.00  0.00    -0.227 OA
BRANCH  16  18
ATOM     18  O   UNL     1      34.332 -11.898 -24.319  0.00  0.00    -0.303 OA
ATOM     19  H   UNL     1      33.673 -11.451 -24.874  0.00  0.00    +0.222 HD
ENDBRANCH  16  18
BRANCH  16  20
ATOM     20  O   UNL     1      34.815 -13.724 -22.626  0.00  0.00    -0.303 OA
ATOM     21  H   UNL     1      35.442 -14.289 -23.104  0.00  0.00    +0.222 HD
ENDBRANCH  16  20
ENDBRANCH  15  16
ENDBRANCH  14  15
ENDBRANCH  11  14
ENDBRANCH   2  10
BRANCH   5  23
ATOM     22  N   UNL     1      34.607 -23.295 -17.354  0.00  0.00    -0.234 NA
ATOM     23  C   UNL     1      35.501 -21.598 -18.821  0.00  0.00    +0.021 C 
ATOM     24  C   UNL     1      36.647 -21.512 -18.042  0.00  0.00    +0.004 C 
ATOM     25  C   UNL     1      34.520 -22.495 -18.440  0.00  0.00    +0.100 C 
ATOM     26  C   UNL     1      36.775 -22.319 -16.916  0.00  0.00    +0.029 C 
ATOM     27  C   UNL     1      35.736 -23.186 -16.618  0.00  0.00    +0.146 C 
BRANCH  27  32
ATOM     28  N   UNL     1      35.511 -23.638 -14.233  0.00  0.00    -0.105 NA
ATOM     29  N   UNL     1      35.746 -24.780 -13.572  0.00  0.00    -0.113 N 
ATOM     30  N   UNL     1      36.207 -25.342 -15.551  0.00  0.00    -0.085 NA
ATOM     31  N   UNL     1      36.161 -25.817 -14.313  0.00  0.00    -0.018 NA
ATOM     32  C   UNL     1      35.813 -24.041 -15.468  0.00  0.00    +0.092 C 
ATOM     33  C   UNL     1      35.565 -24.888 -12.147  0.00  0.00    +0.163 C 
ENDBRANCH  27  32
ENDBRANCH   5  23
TORSDOF 8
ENDMDL
MODEL 3
REMARK VINA RESULT:     -10.3      1.508      2.111
REMARK  Name = 11476460
REMARK  8 active torsions:
REMARK  status: ('A' for Active; 'I' for Inactive)
REMARK    1  A    between atoms: C_2  and  N_10
REMARK    2  A    between atoms: C_5  and  C_23
REMARK    3  A    between atoms: C_11  and  C_14
REMARK    4  A    between atoms: C_14  and  O_15
REMARK    5  A    between atoms: O_15  and  P_16
REMARK    6  A    between atoms: P_16  and  O_18
REMARK    7  A    between atoms: P_16  and  O_20
REMARK    8  A    between atoms: C_27  and  C_32
REMARK                            x       y       z     vdW  Elec       q    Type
REMARK                         _______ _______ _______ _____ _____    ______ ____
ROOT
ATOM      1  F   UNL     1      36.868 -21.232 -18.192  0.00  0.00    -0.204 F 
ATOM      2  C   UNL     1      34.894 -23.585 -16.240  0.00  0.00    +0.059 C 
ATOM      3  C   UNL     1      35.956 -22.778 -16.658  0.00  0.00    +0.045 C 
ATOM      4  C   UNL     1      33.710 -23.605 -16.984  0.00  0.00    +0.015 C 
ATOM      5  C   UNL     1      34.654 -22.022 -18.547  0.00  0.00    +0.029 C 
ATOM      6  C   UNL     1      35.837 -21.998 -17.809  0.00  0.00    +0.141 C 
ATOM      7  C   UNL     1      33.590 -22.826 -18.135  0.00  0.00    +0.004 C 
ENDROOT
BRANCH   2  10
ATOM      8  O   UNL     1      35.640 -25.986 -13.606  0.00  0.00    -0.434 OA
ATOM      9  O   UNL     1      36.565 -26.063 -15.676  0.00  0.00    -0.226 OA
ATOM     10  N   UNL     1      35.016 -24.381 -15.066  0.00  0.00    -0.221 N 
ATOM     11  C   UNL     1      34.883 -25.032 -12.849  0.00  0.00    +0.221 C 
ATOM     12  C   UNL     1      34.205 -24.175 -13.897  0.00  0.00    +0.148 C 
ATOM     13  C   UNL     1      35.818 -25.505 -14.884  0.00  0.00    +0.409 C 
BRANCH  11  14
ATOM     14  C   UNL     1      35.835 -24.247 -11.956  0.00  0.00    +0.199 C 
BRANCH  14  15
ATOM     15  O   UNL     1      37.107 -24.868 -11.993  0.00  0.00    -0.269 OA
BRANCH  15  16
ATOM     16  P   UNL     1      38.322 -24.097 -12.734  0.00  0.00    +0.473 P 
ATOM     17  O   UNL     1      39.234 -24.976 -13.540  0.00  0.00    -0.227 OA
BRANCH  16  18
ATOM     18  O   UNL     1      39.036 -23.270 -11.542  0.00  0.00    -0.303 OA
ATOM     19  H   UNL     1      38.472 -23.290 -10.752  0.00  0.00    +0.222 HD
ENDBRANCH  16  18
BRANCH  16  20
ATOM     20  O   UNL     1      37.559 -22.947 -13.578  0.00  0.00    -0.303 OA
ATOM     21  H   UNL     1      38.187 -22.521 -14.182  0.00  0.00    +0.222 HD
ENDBRANCH  16  20
ENDBRANCH  15  16
ENDBRANCH  14  15
ENDBRANCH  11  14
ENDBRANCH   2  10
BRANCH   5  23
ATOM     22  N   UNL     1      35.594 -20.017 -21.545  0.00  0.00    -0.234 NA
ATOM     23  C   UNL     1      34.525 -21.216 -19.742  0.00  0.00    +0.021 C 
ATOM     24  C   UNL     1      33.275 -20.863 -20.234  0.00  0.00    +0.004 C 
ATOM     25  C   UNL     1      35.643 -20.773 -20.426  0.00  0.00    +0.100 C 
ATOM     26  C   UNL     1      33.183 -20.086 -21.384  0.00  0.00    +0.029 C 
ATOM     27  C   UNL     1      34.362 -19.693 -21.996  0.00  0.00    +0.146 C 
BRANCH  27  32
ATOM     28  N   UNL     1      34.623 -17.588 -23.200  0.00  0.00    -0.105 NA
ATOM     29  N   UNL     1      34.438 -17.341 -24.504  0.00  0.00    -0.113 N 
ATOM     30  N   UNL     1      33.984 -19.398 -24.400  0.00  0.00    -0.085 NA
ATOM     31  N   UNL     1      34.058 -18.385 -25.255  0.00  0.00    -0.018 NA
ATOM     32  C   UNL     1      34.327 -18.889 -23.185  0.00  0.00    +0.092 C 
ATOM     33  C   UNL     1      34.634 -16.031 -25.069  0.00  0.00    +0.163 C 
ENDBRANCH  27  32
ENDBRANCH   5  23
TORSDOF 8
ENDMDL
MODEL 4
REMARK VINA RESULT:      -9.5      5.960      9.167
REMARK  Name = 11476460
REMARK  8 active torsions:
REMARK  status: ('A' for Active; 'I' for Inactive)
REMARK    1  A    between atoms: C_2  and  N_10
REMARK    2  A    between atoms: C_5  and  C_23
REMARK    3  A    between atoms: C_11  and  C_14
REMARK    4  A    between atoms: C_14  and  O_15
REMARK    5  A    between atoms: O_15  and  P_16
REMARK    6  A    between atoms: P_16  and  O_18
REMARK    7  A    between atoms: P_16  and  O_20
REMARK    8  A    between atoms: C_27  and  C_32
REMARK                            x       y       z     vdW  Elec       q    Type
REMARK                         _______ _______ _______ _____ _____    ______ ____
ROOT
ATOM      1  F   UNL     1      34.469 -15.336 -25.115  0.00  0.00    -0.204 F 
ATOM      2  C   UNL     1      34.942 -17.274 -22.071  0.00  0.00    +0.059 C 
ATOM      3  C   UNL     1      34.884 -16.932 -23.425  0.00  0.00    +0.045 C 
ATOM      4  C   UNL     1      34.633 -16.311 -21.104  0.00  0.00    +0.015 C 
ATOM      5  C   UNL     1      34.212 -14.686 -22.842  0.00  0.00    +0.029 C 
ATOM      6  C   UNL     1      34.520 -15.642 -23.810  0.00  0.00    +0.141 C 
ATOM      7  C   UNL     1      34.268 -15.021 -21.489  0.00  0.00    +0.004 C 
ENDROOT
BRANCH   2  10
ATOM      8  O   UNL     1      36.448 -20.343 -20.819  0.00  0.00    -0.434 OA
ATOM      9  O   UNL     1      37.411 -18.299 -20.620  0.00  0.00    -0.226 OA
ATOM     10  N   UNL     1      35.313 -18.590 -21.678  0.00  0.00    -0.221 N 
ATOM     11  C   UNL     1      35.152 -20.844 -21.174  0.00  0.00    +0.221 C 
ATOM     12  C   UNL     1      34.555 -19.756 -22.042  0.00  0.00    +0.148 C 
ATOM     13  C   UNL     1      36.468 -18.979 -21.002  0.00  0.00    +0.409 C 
BRANCH  11  14
ATOM     14  C   UNL     1      34.357 -21.098 -19.900  0.00  0.00    +0.199 C 
BRANCH  14  15
ATOM     15  O   UNL     1      34.804 -22.311 -19.322  0.00  0.00    -0.269 OA
BRANCH  15  16
ATOM     16  P   UNL     1      33.726 -23.243 -18.554  0.00  0.00    +0.473 P 
ATOM     17  O   UNL     1      34.080 -23.587 -17.136  0.00  0.00    -0.227 OA
BRANCH  16  18
ATOM     18  O   UNL     1      33.535 -24.507 -19.545  0.00  0.00    -0.303 OA
ATOM     19  H   UNL     1      32.838 -24.308 -20.191  0.00  0.00    +0.222 HD
ENDBRANCH  16  18
BRANCH  16  20
ATOM     20  O   UNL     1      32.344 -22.420 -18.731  0.00  0.00    -0.303 OA
ATOM     21  H   UNL     1      32.393 -21.879 -19.534  0.00  0.00    +0.222 HD
ENDBRANCH  16  20
ENDBRANCH  15  16
ENDBRANCH  14  15
ENDBRANCH  11  14
ENDBRANCH   2  10
BRANCH   5  23
ATOM     22  N   UNL     1      32.471 -11.390 -22.845  0.00  0.00    -0.234 NA
ATOM     23  C   UNL     1      33.833 -13.346 -23.236  0.00  0.00    +0.021 C 
ATOM     24  C   UNL     1      34.419 -12.732 -24.335  0.00  0.00    +0.004 C 
ATOM     25  C   UNL     1      32.873 -12.642 -22.531  0.00  0.00    +0.100 C 
ATOM     26  C   UNL     1      34.032 -11.445 -24.690  0.00  0.00    +0.029 C 
ATOM     27  C   UNL     1      33.063 -10.823 -23.920  0.00  0.00    +0.146 C 
BRANCH  27  32
ATOM     28  N   UNL     1      32.024  -8.687 -23.366  0.00  0.00    -0.105 NA
ATOM     29  N   UNL     1      31.836  -7.619 -24.153  0.00  0.00    -0.113 N 
ATOM     30  N   UNL     1      32.790  -8.952 -25.480  0.00  0.00    -0.085 NA
ATOM     31  N   UNL     1      32.274  -7.731 -25.415  0.00  0.00    -0.018 NA
ATOM     32  C   UNL     1      32.625  -9.495 -24.242  0.00  0.00    +0.092 C 
ATOM     33  C   UNL     1      31.199  -6.420 -23.673  0.00  0.00    +0.163 C 
ENDBRANCH  27  32
ENDBRANCH   5  23
TORSDOF 8
ENDMDL
MODEL 5
REMARK VINA RESULT:      -9.2     13.588     17.391
REMARK  Name = 11476460
REMARK  8 active torsions:
REMARK  status: ('A' for Active; 'I' for Inactive)
REMARK    1  A    between atoms: C_2  and  N_10
REMARK    2  A    between atoms: C_5  and  C_23
REMARK    3  A    between atoms: C_11  and  C_14
REMARK    4  A    between atoms: C_14  and  O_15
REMARK    5  A    between atoms: O_15  and  P_16
REMARK    6  A    between atoms: P_16  and  O_18
REMARK    7  A    between atoms: P_16  and  O_20
REMARK    8  A    between atoms: C_27  and  C_32
REMARK                            x       y       z     vdW  Elec       q    Type
REMARK                         _______ _______ _______ _____ _____    ______ ____
ROOT
ATOM      1  F   UNL     1      35.362 -10.841 -25.967  0.00  0.00    -0.204 F 
ATOM      2  C   UNL     1      33.411  -8.226 -24.353  0.00  0.00    +0.059 C 
ATOM      3  C   UNL     1      34.347  -8.861 -25.176  0.00  0.00    +0.045 C 
ATOM      4  C   UNL     1      32.585  -8.996 -23.528  0.00  0.00    +0.015 C 
ATOM      5  C   UNL     1      33.631 -11.014 -24.346  0.00  0.00    +0.029 C 
ATOM      6  C   UNL     1      34.457 -10.252 -25.172  0.00  0.00    +0.141 C 
ATOM      7  C   UNL     1      32.695 -10.386 -23.524  0.00  0.00    +0.004 C 
ENDROOT
BRANCH   2  10
ATOM      8  O   UNL     1      33.659  -4.619 -24.777  0.00  0.00    -0.434 OA
ATOM      9  O   UNL     1      35.058  -6.100 -25.774  0.00  0.00    -0.226 OA
ATOM     10  N   UNL     1      33.299  -6.808 -24.357  0.00  0.00    -0.221 N 
ATOM     11  C   UNL     1      32.409  -4.689 -24.077  0.00  0.00    +0.221 C 
ATOM     12  C   UNL     1      32.370  -6.096 -23.521  0.00  0.00    +0.148 C 
ATOM     13  C   UNL     1      34.094  -5.896 -25.048  0.00  0.00    +0.409 C 
BRANCH  11  14
ATOM     14  C   UNL     1      31.280  -4.400 -25.058  0.00  0.00    +0.199 C 
BRANCH  14  15
ATOM     15  O   UNL     1      31.328  -3.030 -25.413  0.00  0.00    -0.269 OA
BRANCH  15  16
ATOM     16  P   UNL     1      31.923  -2.629 -26.865  0.00  0.00    +0.473 P 
ATOM     17  O   UNL     1      31.016  -1.786 -27.712  0.00  0.00    -0.227 OA
BRANCH  16  18
ATOM     18  O   UNL     1      32.349  -4.049 -27.511  0.00  0.00    -0.303 OA
ATOM     19  H   UNL     1      32.278  -4.745 -26.838  0.00  0.00    +0.222 HD
ENDBRANCH  16  18
BRANCH  16  20
ATOM     20  O   UNL     1      33.344  -1.948 -26.498  0.00  0.00    -0.303 OA
ATOM     21  H   UNL     1      34.065  -2.505 -26.830  0.00  0.00    +0.222 HD
ENDBRANCH  16  20
ENDBRANCH  15  16
ENDBRANCH  14  15
ENDBRANCH  11  14
ENDBRANCH   2  10
BRANCH   5  23
ATOM     22  N   UNL     1      33.474 -14.552 -25.509  0.00  0.00    -0.234 NA
ATOM     23  C   UNL     1      33.742 -12.458 -24.338  0.00  0.00    +0.021 C 
ATOM     24  C   UNL     1      34.196 -13.132 -23.212  0.00  0.00    +0.004 C 
ATOM     25  C   UNL     1      33.396 -13.204 -25.450  0.00  0.00    +0.100 C 
ATOM     26  C   UNL     1      34.290 -14.519 -23.233  0.00  0.00    +0.029 C 
ATOM     27  C   UNL     1      33.920 -15.177 -24.396  0.00  0.00    +0.146 C 
BRANCH  27  32
ATOM     28  N   UNL     1      34.660 -17.356 -23.591  0.00  0.00    -0.105 NA
ATOM     29  N   UNL     1      34.417 -18.567 -24.112  0.00  0.00    -0.113 N 
ATOM     30  N   UNL     1      33.389 -17.318 -25.465  0.00  0.00    -0.085 NA
ATOM     31  N   UNL     1      33.668 -18.593 -25.223  0.00  0.00    -0.018 NA
ATOM     32  C   UNL     1      33.996 -16.607 -24.473  0.00  0.00    +0.092 C 
ATOM     33  C   UNL     1      34.931 -19.772 -23.514  0.00  0.00    +0.163 C 
ENDBRANCH  27  32
ENDBRANCH   5  23
TORSDOF 8
ENDMDL
MODEL 6
REMARK VINA RESULT:      -9.1     13.439     17.270
REMARK  Name = 11476460
REMARK  8 active torsions:
REMARK  status: ('A' for Active; 'I' for Inactive)
REMARK    1  A    between atoms: C_2  and  N_10
REMARK    2  A    between atoms: C_5  and  C_23
REMARK    3  A    between atoms: C_11  and  C_14
REMARK    4  A    between atoms: C_14  and  O_15
REMARK    5  A    between atoms: O_15  and  P_16
REMARK    6  A    between atoms: P_16  and  O_18
REMARK    7  A    between atoms: P_16  and  O_20
REMARK    8  A    between atoms: C_27  and  C_32
REMARK                            x       y       z     vdW  Elec       q    Type
REMARK                         _______ _______ _______ _____ _____    ______ ____
ROOT
ATOM      1  F   UNL     1      32.143 -11.214 -22.543  0.00  0.00    -0.204 F 
ATOM      2  C   UNL     1      33.433  -8.367 -24.406  0.00  0.00    +0.059 C 
ATOM      3  C   UNL     1      32.730  -9.120 -23.461  0.00  0.00    +0.045 C 
ATOM      4  C   UNL     1      34.236  -9.020 -25.348  0.00  0.00    +0.015 C 
ATOM      5  C   UNL     1      33.629 -11.157 -24.398  0.00  0.00    +0.029 C 
ATOM      6  C   UNL     1      32.827 -10.511 -23.457  0.00  0.00    +0.141 C 
ATOM      7  C   UNL     1      34.332 -10.411 -25.344  0.00  0.00    +0.004 C 
ENDROOT
BRANCH   2  10
ATOM      8  O   UNL     1      33.750  -4.759 -24.782  0.00  0.00    -0.434 OA
ATOM      9  O   UNL     1      35.221  -6.248 -25.656  0.00  0.00    -0.226 OA
ATOM     10  N   UNL     1      33.334  -6.947 -24.411  0.00  0.00    -0.221 N 
ATOM     11  C   UNL     1      32.441  -4.822 -24.200  0.00  0.00    +0.221 C 
ATOM     12  C   UNL     1      32.338  -6.232 -23.659  0.00  0.00    +0.148 C 
ATOM     13  C   UNL     1      34.198  -6.039 -25.020  0.00  0.00    +0.409 C 
BRANCH  11  14
ATOM     14  C   UNL     1      31.409  -4.517 -25.278  0.00  0.00    +0.199 C 
BRANCH  14  15
ATOM     15  O   UNL     1      30.302  -3.870 -24.676  0.00  0.00    -0.269 OA
BRANCH  15  16
ATOM     16  P   UNL     1      30.350  -2.262 -24.498  0.00  0.00    +0.473 P 
ATOM     17  O   UNL     1      30.836  -1.786 -23.160  0.00  0.00    -0.227 OA
BRANCH  16  18
ATOM     18  O   UNL     1      28.859  -1.785 -24.902  0.00  0.00    -0.303 OA
ATOM     19  H   UNL     1      28.238  -2.520 -24.769  0.00  0.00    +0.222 HD
ENDBRANCH  16  18
BRANCH  16  20
ATOM     20  O   UNL     1      31.246  -1.786 -25.759  0.00  0.00    -0.303 OA
ATOM     21  H   UNL     1      30.663  -1.552 -26.498  0.00  0.00    +0.222 HD
ENDBRANCH  16  20
ENDBRANCH  15  16
ENDBRANCH  14  15
ENDBRANCH  11  14
ENDBRANCH   2  10
BRANCH   5  23
ATOM     22  N   UNL     1      33.438 -14.687 -25.578  0.00  0.00    -0.234 NA
ATOM     23  C   UNL     1      33.732 -12.600 -24.399  0.00  0.00    +0.021 C 
ATOM     24  C   UNL     1      34.195 -13.284 -23.283  0.00  0.00    +0.004 C 
ATOM     25  C   UNL     1      33.369 -13.339 -25.511  0.00  0.00    +0.100 C 
ATOM     26  C   UNL     1      34.282 -14.671 -23.312  0.00  0.00    +0.029 C 
ATOM     27  C   UNL     1      33.894 -15.320 -24.474  0.00  0.00    +0.146 C 
BRANCH  27  32
ATOM     28  N   UNL     1      34.737 -17.498 -23.773  0.00  0.00    -0.105 NA
ATOM     29  N   UNL     1      34.429 -18.710 -24.256  0.00  0.00    -0.113 N 
ATOM     30  N   UNL     1      33.230 -17.463 -25.462  0.00  0.00    -0.085 NA
ATOM     31  N   UNL     1      33.540 -18.737 -25.259  0.00  0.00    -0.018 NA
ATOM     32  C   UNL     1      33.961 -16.751 -24.560  0.00  0.00    +0.092 C 
ATOM     33  C   UNL     1      35.019 -19.914 -23.731  0.00  0.00    +0.163 C 
ENDBRANCH  27  32
ENDBRANCH   5  23
TORSDOF 8
ENDMDL
MODEL 7
REMARK VINA RESULT:      -9.1      6.199      9.526
REMARK  Name = 11476460
REMARK  8 active torsions:
REMARK  status: ('A' for Active; 'I' for Inactive)
REMARK    1  A    between atoms: C_2  and  N_10
REMARK    2  A    between atoms: C_5  and  C_23
REMARK    3  A    between atoms: C_11  and  C_14
REMARK    4  A    between atoms: C_14  and  O_15
REMARK    5  A    between atoms: O_15  and  P_16
REMARK    6  A    between atoms: P_16  and  O_18
REMARK    7  A    between atoms: P_16  and  O_20
REMARK    8  A    between atoms: C_27  and  C_32
REMARK                            x       y       z     vdW  Elec       q    Type
REMARK                         _______ _______ _______ _____ _____    ______ ____
ROOT
ATOM      1  F   UNL     1      33.956 -13.892 -20.632  0.00  0.00    -0.204 F 
ATOM      2  C   UNL     1      34.797 -16.967 -22.388  0.00  0.00    +0.059 C 
ATOM      3  C   UNL     1      34.559 -16.058 -21.352  0.00  0.00    +0.045 C 
ATOM      4  C   UNL     1      34.649 -16.552 -23.716  0.00  0.00    +0.015 C 
ATOM      5  C   UNL     1      34.032 -14.340 -22.967  0.00  0.00    +0.029 C 
ATOM      6  C   UNL     1      34.178 -14.748 -21.641  0.00  0.00    +0.141 C 
ATOM      7  C   UNL     1      34.268 -15.242 -24.004  0.00  0.00    +0.004 C 
ENDROOT
BRANCH   2  10
ATOM      8  O   UNL     1      36.407 -20.119 -21.533  0.00  0.00    -0.434 OA
ATOM      9  O   UNL     1      37.490 -18.126 -21.579  0.00  0.00    -0.226 OA
ATOM     10  N   UNL     1      35.187 -18.304 -22.095  0.00  0.00    -0.221 N 
ATOM     11  C   UNL     1      35.040 -20.551 -21.561  0.00  0.00    +0.221 C 
ATOM     12  C   UNL     1      34.305 -19.427 -22.260  0.00  0.00    +0.148 C 
ATOM     13  C   UNL     1      36.450 -18.755 -21.719  0.00  0.00    +0.409 C 
BRANCH  11  14
ATOM     14  C   UNL     1      34.567 -20.779 -20.132  0.00  0.00    +0.199 C 
BRANCH  14  15
ATOM     15  O   UNL     1      34.916 -22.095 -19.743  0.00  0.00    -0.269 OA
BRANCH  15  16
ATOM     16  P   UNL     1      33.838 -22.964 -18.904  0.00  0.00    +0.473 P 
ATOM     17  O   UNL     1      34.174 -23.164 -17.455  0.00  0.00    -0.227 OA
BRANCH  16  18
ATOM     18  O   UNL     1      33.680 -24.321 -19.770  0.00  0.00    -0.303 OA
ATOM     19  H   UNL     1      32.914 -24.240 -20.361  0.00  0.00    +0.222 HD
ENDBRANCH  16  18
BRANCH  16  20
ATOM     20  O   UNL     1      32.449 -22.183 -19.181  0.00  0.00    -0.303 OA
ATOM     21  H   UNL     1      32.356 -22.019 -20.132  0.00  0.00    +0.222 HD
ENDBRANCH  16  20
ENDBRANCH  15  16
ENDBRANCH  14  15
ENDBRANCH  11  14
ENDBRANCH   2  10
BRANCH   5  23
ATOM     22  N   UNL     1      32.214 -11.090 -22.789  0.00  0.00    -0.234 NA
ATOM     23  C   UNL     1      33.637 -12.981 -23.271  0.00  0.00    +0.021 C 
ATOM     24  C   UNL     1      34.255 -12.269 -24.291  0.00  0.00    +0.004 C 
ATOM     25  C   UNL     1      32.632 -12.354 -22.556  0.00  0.00    +0.100 C 
ATOM     26  C   UNL     1      33.854 -10.966 -24.561  0.00  0.00    +0.029 C 
ATOM     27  C   UNL     1      32.838 -10.427 -23.788  0.00  0.00    +0.146 C 
BRANCH  27  32
ATOM     28  N   UNL     1      32.710  -8.380 -25.107  0.00  0.00    -0.105 NA
ATOM     29  N   UNL     1      32.046  -7.248 -24.833  0.00  0.00    -0.113 N 
ATOM     30  N   UNL     1      31.572  -8.427 -23.150  0.00  0.00    -0.085 NA
ATOM     31  N   UNL     1      31.357  -7.231 -23.683  0.00  0.00    -0.018 NA
ATOM     32  C   UNL     1      32.382  -9.087 -24.024  0.00  0.00    +0.092 C 
ATOM     33  C   UNL     1      32.070  -6.115 -25.722  0.00  0.00    +0.163 C 
ENDBRANCH  27  32
ENDBRANCH   5  23
TORSDOF 8
ENDMDL
MODEL 8
REMARK VINA RESULT:      -9.0      9.993     13.873
REMARK  Name = 11476460
REMARK  8 active torsions:
REMARK  status: ('A' for Active; 'I' for Inactive)
REMARK    1  A    between atoms: C_2  and  N_10
REMARK    2  A    between atoms: C_5  and  C_23
REMARK    3  A    between atoms: C_11  and  C_14
REMARK    4  A    between atoms: C_14  and  O_15
REMARK    5  A    between atoms: O_15  and  P_16
REMARK    6  A    between atoms: P_16  and  O_18
REMARK    7  A    between atoms: P_16  and  O_20
REMARK    8  A    between atoms: C_27  and  C_32
REMARK                            x       y       z     vdW  Elec       q    Type
REMARK                         _______ _______ _______ _____ _____    ______ ____
ROOT
ATOM      1  F   UNL     1      34.552 -14.145 -21.612  0.00  0.00    -0.204 F 
ATOM      2  C   UNL     1      34.030 -12.925 -25.001  0.00  0.00    +0.059 C 
ATOM      3  C   UNL     1      34.212 -12.941 -23.615  0.00  0.00    +0.045 C 
ATOM      4  C   UNL     1      34.018 -14.131 -25.709  0.00  0.00    +0.015 C 
ATOM      5  C   UNL     1      34.367 -15.352 -23.653  0.00  0.00    +0.029 C 
ATOM      6  C   UNL     1      34.380 -14.152 -22.942  0.00  0.00    +0.141 C 
ATOM      7  C   UNL     1      34.186 -15.342 -25.036  0.00  0.00    +0.004 C 
ENDROOT
BRANCH   2  10
ATOM      8  O   UNL     1      33.256 -10.138 -27.213  0.00  0.00    -0.434 OA
ATOM      9  O   UNL     1      32.621 -12.278 -27.618  0.00  0.00    -0.226 OA
ATOM     10  N   UNL     1      33.859 -11.690 -25.688  0.00  0.00    -0.221 N 
ATOM     11  C   UNL     1      33.787  -9.413 -26.096  0.00  0.00    +0.221 C 
ATOM     12  C   UNL     1      34.481 -10.467 -25.260  0.00  0.00    +0.148 C 
ATOM     13  C   UNL     1      33.186 -11.474 -26.888  0.00  0.00    +0.409 C 
BRANCH  11  14
ATOM     14  C   UNL     1      32.639  -8.729 -25.365  0.00  0.00    +0.199 C 
BRANCH  14  15
ATOM     15  O   UNL     1      33.097  -8.314 -24.090  0.00  0.00    -0.269 OA
BRANCH  15  16
ATOM     16  P   UNL     1      32.149  -8.583 -22.804  0.00  0.00    +0.473 P 
ATOM     17  O   UNL     1      32.627  -7.963 -21.524  0.00  0.00    -0.227 OA
BRANCH  16  18
ATOM     18  O   UNL     1      31.987 -10.191 -22.775  0.00  0.00    -0.303 OA
ATOM     19  H   UNL     1      31.141 -10.439 -23.182  0.00  0.00    +0.222 HD
ENDBRANCH  16  18
BRANCH  16  20
ATOM     20  O   UNL     1      30.700  -8.073 -23.311  0.00  0.00    -0.303 OA
ATOM     21  H   UNL     1      30.785  -7.688 -24.197  0.00  0.00    +0.222 HD
ENDBRANCH  16  20
ENDBRANCH  15  16
ENDBRANCH  14  15
ENDBRANCH  11  14
ENDBRANCH   2  10
BRANCH   5  23
ATOM     22  N   UNL     1      35.066 -17.782 -20.915  0.00  0.00    -0.234 NA
ATOM     23  C   UNL     1      34.540 -16.611 -22.960  0.00  0.00    +0.021 C 
ATOM     24  C   UNL     1      34.363 -17.819 -23.620  0.00  0.00    +0.004 C 
ATOM     25  C   UNL     1      34.888 -16.644 -21.621  0.00  0.00    +0.100 C 
ATOM     26  C   UNL     1      34.537 -19.012 -22.927  0.00  0.00    +0.029 C 
ATOM     27  C   UNL     1      34.886 -18.940 -21.588  0.00  0.00    +0.146 C 
BRANCH  27  32
ATOM     28  N   UNL     1      34.082 -20.942 -20.452  0.00  0.00    -0.105 NA
ATOM     29  N   UNL     1      34.788 -21.871 -19.792  0.00  0.00    -0.113 N 
ATOM     30  N   UNL     1      36.312 -20.555 -20.419  0.00  0.00    -0.085 NA
ATOM     31  N   UNL     1      36.114 -21.683 -19.747  0.00  0.00    -0.018 NA
ATOM     32  C   UNL     1      35.080 -20.140 -20.825  0.00  0.00    +0.092 C 
ATOM     33  C   UNL     1      34.160 -23.007 -19.168  0.00  0.00    +0.163 C 
ENDBRANCH  27  32
ENDBRANCH   5  23
TORSDOF 8
ENDMDL
