MODEL 1
REMARK VINA RESULT:     -12.3      0.000      0.000
REMARK  Name = 23629645
REMARK  6 active torsions:
REMARK  status: ('A' for Active; 'I' for Inactive)
REMARK    1  A    between atoms: N_1  and  C_6
REMARK    2  A    between atoms: N_1  and  C_21
REMARK    3  A    between atoms: C_3  and  C_16
REMARK    4  A    between atoms: C_11  and  C_18
REMARK    5  A    between atoms: C_18  and  O_19
REMARK    6  A    between atoms: C_21  and  C_28
REMARK                            x       y       z     vdW  Elec       q    Type
REMARK                         _______ _______ _______ _____ _____    ______ ____
ROOT
ATOM      1  N   UNL     1      35.485 -19.295 -22.263  0.00  0.00    -0.300 N 
ATOM      2  C   UNL     1      36.675 -18.506 -22.019  0.00  0.00    +0.113 C 
ENDROOT
BRANCH   1   6
ATOM      3  C   UNL     1      33.948 -21.804 -19.272  0.00  0.00    +0.054 C 
ATOM      4  C   UNL     1      33.084 -21.011 -20.023  0.00  0.00    +0.006 C 
ATOM      5  C   UNL     1      35.320 -21.768 -19.509  0.00  0.00    +0.006 C 
ATOM      6  C   UNL     1      34.968 -20.139 -21.257  0.00  0.00    +0.048 C 
ATOM      7  C   UNL     1      33.595 -20.177 -21.018  0.00  0.00    +0.015 C 
ATOM      8  C   UNL     1      35.831 -20.934 -20.503  0.00  0.00    +0.015 C 
BRANCH   3  16
ATOM      9  O   UNL     1      32.207 -22.926 -18.287  0.00  0.00    -0.270 OA
ATOM     10  N   UNL     1      34.288 -23.154 -17.246  0.00  0.00    -0.276 N 
ATOM     11  C   UNL     1      35.545 -23.064 -14.633  0.00  0.00    +0.102 C 
ATOM     12  C   UNL     1      34.077 -23.466 -14.819  0.00  0.00    +0.033 C 
ATOM     13  C   UNL     1      36.077 -22.247 -15.817  0.00  0.00    +0.033 C 
ATOM     14  C   UNL     1      33.796 -24.050 -16.203  0.00  0.00    +0.094 C 
ATOM     15  C   UNL     1      35.724 -22.863 -17.170  0.00  0.00    +0.094 C 
ATOM     16  C   UNL     1      33.411 -22.681 -18.224  0.00  0.00    +0.249 C 
BRANCH  11  18
ATOM     17  O   UNL     1      35.936 -25.384 -14.113  0.00  0.00    -0.250 OA
ATOM     18  C   UNL     1      36.388 -24.283 -14.394  0.00  0.00    +0.317 C 
BRANCH  18  19
ATOM     19  O   UNL     1      37.705 -23.961 -14.539  0.00  0.00    -0.444 OA
ATOM     20  C   UNL     1      38.596 -25.071 -14.697  0.00  0.00    +0.256 C 
ENDBRANCH  18  19
ENDBRANCH  11  18
ENDBRANCH   3  16
ENDBRANCH   1   6
BRANCH   1  21
ATOM     21  C   UNL     1      34.839 -19.217 -23.559  0.00  0.00    +0.148 C 
BRANCH  21  28
ATOM     22  N   UNL     1      34.537 -16.883 -22.977  0.00  0.00    -0.392 NA
ATOM     23  N   UNL     1      33.997 -16.213 -25.609  0.00  0.00    -0.200 NA
ATOM     24  N   UNL     1      33.719 -13.996 -25.002  0.00  0.00    -0.271 NA
ATOM     25  N   UNL     1      33.970 -13.300 -22.721  0.00  0.00    -0.310 NA
ATOM     26  N   UNL     1      34.510 -14.897 -21.065  0.00  0.00    -0.329 N 
ATOM     27  N   UNL     1      33.437 -11.747 -24.391  0.00  0.00    -0.283 N 
ATOM     28  C   UNL     1      34.535 -17.795 -23.950  0.00  0.00    +0.133 C 
ATOM     29  C   UNL     1      34.271 -17.481 -25.245  0.00  0.00    +0.193 C 
ATOM     30  C   UNL     1      34.263 -15.615 -23.342  0.00  0.00    +0.248 C 
ATOM     31  C   UNL     1      33.989 -15.263 -24.665  0.00  0.00    +0.131 C 
ATOM     32  C   UNL     1      34.238 -14.584 -22.423  0.00  0.00    +0.231 C 
ATOM     33  C   UNL     1      33.723 -13.078 -24.017  0.00  0.00    +0.207 C 
ATOM     34  H   UNL     1      34.500 -14.185 -20.385  0.00  0.00    +0.145 HD
ATOM     35  H   UNL     1      34.710 -15.824 -20.805  0.00  0.00    +0.145 HD
ATOM     36  H   UNL     1      33.248 -11.531 -25.333  0.00  0.00    +0.156 HD
ATOM     37  H   UNL     1      33.426 -11.036 -23.710  0.00  0.00    +0.156 HD
ENDBRANCH  21  28
ENDBRANCH   1  21
TORSDOF 6
ENDMDL
MODEL 2
REMARK VINA RESULT:     -11.8      1.222      2.361
REMARK  Name = 23629645
REMARK  6 active torsions:
REMARK  status: ('A' for Active; 'I' for Inactive)
REMARK    1  A    between atoms: N_1  and  C_6
REMARK    2  A    between atoms: N_1  and  C_21
REMARK    3  A    between atoms: C_3  and  C_16
REMARK    4  A    between atoms: C_11  and  C_18
REMARK    5  A    between atoms: C_18  and  O_19
REMARK    6  A    between atoms: C_21  and  C_28
REMARK                            x       y       z     vdW  Elec       q    Type
REMARK                         _______ _______ _______ _____ _____    ______ ____
ROOT
ATOM      1  N   UNL     1      34.831 -18.832 -22.903  0.00  0.00    -0.300 N 
ATOM      2  C   UNL     1      34.284 -19.060 -24.225  0.00  0.00    +0.113 C 
ENDROOT
BRANCH   1   6
ATOM      3  C   UNL     1      33.904 -21.431 -19.742  0.00  0.00    +0.054 C 
ATOM      4  C   UNL     1      35.228 -21.270 -20.141  0.00  0.00    +0.006 C 
ATOM      5  C   UNL     1      32.885 -20.734 -20.388  0.00  0.00    +0.006 C 
ATOM      6  C   UNL     1      34.519 -19.706 -21.840  0.00  0.00    +0.048 C 
ATOM      7  C   UNL     1      35.537 -20.406 -21.192  0.00  0.00    +0.015 C 
ATOM      8  C   UNL     1      33.193 -19.870 -21.439  0.00  0.00    +0.015 C 
BRANCH   3  16
ATOM      9  O   UNL     1      32.401 -22.683 -18.543  0.00  0.00    -0.270 OA
ATOM     10  N   UNL     1      34.611 -22.736 -17.783  0.00  0.00    -0.276 N 
ATOM     11  C   UNL     1      36.186 -22.528 -15.355  0.00  0.00    +0.102 C 
ATOM     12  C   UNL     1      34.743 -23.047 -15.350  0.00  0.00    +0.033 C 
ATOM     13  C   UNL     1      36.492 -21.678 -16.595  0.00  0.00    +0.033 C 
ATOM     14  C   UNL     1      34.332 -23.661 -16.688  0.00  0.00    +0.094 C 
ATOM     15  C   UNL     1      36.017 -22.329 -17.893  0.00  0.00    +0.094 C 
ATOM     16  C   UNL     1      33.579 -22.341 -18.637  0.00  0.00    +0.249 C 
BRANCH  11  18
ATOM     17  O   UNL     1      38.282 -23.667 -15.693  0.00  0.00    -0.250 OA
ATOM     18  C   UNL     1      37.148 -23.673 -15.232  0.00  0.00    +0.317 C 
BRANCH  18  19
ATOM     19  O   UNL     1      36.560 -24.690 -14.541  0.00  0.00    -0.444 OA
ATOM     20  C   UNL     1      36.942 -26.009 -14.945  0.00  0.00    +0.256 C 
ENDBRANCH  18  19
ENDBRANCH  11  18
ENDBRANCH   3  16
ENDBRANCH   1   6
BRANCH   1  21
ATOM     21  C   UNL     1      35.693 -17.688 -22.683  0.00  0.00    +0.148 C 
BRANCH  21  28
ATOM     22  N   UNL     1      34.457 -15.716 -23.365  0.00  0.00    -0.392 NA
ATOM     23  N   UNL     1      33.976 -15.009 -20.732  0.00  0.00    -0.200 NA
ATOM     24  N   UNL     1      32.804 -13.138 -21.434  0.00  0.00    -0.271 NA
ATOM     25  N   UNL     1      32.532 -12.658 -23.768  0.00  0.00    -0.310 NA
ATOM     26  N   UNL     1      33.470 -14.111 -25.377  0.00  0.00    -0.329 N 
ATOM     27  N   UNL     1      31.616 -11.242 -22.142  0.00  0.00    -0.283 N 
ATOM     28  C   UNL     1      34.906 -16.449 -22.345  0.00  0.00    +0.133 C 
ATOM     29  C   UNL     1      34.678 -16.114 -21.048  0.00  0.00    +0.193 C 
ATOM     30  C   UNL     1      33.755 -14.611 -23.047  0.00  0.00    +0.248 C 
ATOM     31  C   UNL     1      33.505 -14.242 -21.724  0.00  0.00    +0.131 C 
ATOM     32  C   UNL     1      33.239 -13.774 -24.018  0.00  0.00    +0.231 C 
ATOM     33  C   UNL     1      32.353 -12.402 -22.467  0.00  0.00    +0.207 C 
ATOM     34  H   UNL     1      33.116 -13.536 -26.093  0.00  0.00    +0.145 HD
ATOM     35  H   UNL     1      33.983 -14.920 -25.603  0.00  0.00    +0.145 HD
ATOM     36  H   UNL     1      31.456 -11.009 -21.199  0.00  0.00    +0.156 HD
ATOM     37  H   UNL     1      31.263 -10.667 -22.859  0.00  0.00    +0.156 HD
ENDBRANCH  21  28
ENDBRANCH   1  21
TORSDOF 6
ENDMDL
MODEL 3
REMARK VINA RESULT:     -11.5      5.187     11.563
REMARK  Name = 23629645
REMARK  6 active torsions:
REMARK  status: ('A' for Active; 'I' for Inactive)
REMARK    1  A    between atoms: N_1  and  C_6
REMARK    2  A    between atoms: N_1  and  C_21
REMARK    3  A    between atoms: C_3  and  C_16
REMARK    4  A    between atoms: C_11  and  C_18
REMARK    5  A    between atoms: C_18  and  O_19
REMARK    6  A    between atoms: C_21  and  C_28
REMARK                            x       y       z     vdW  Elec       q    Type
REMARK                         _______ _______ _______ _____ _____    ______ ____
ROOT
ATOM      1  N   UNL     1      35.023 -17.464 -23.487  0.00  0.00    -0.300 N 
ATOM      2  C   UNL     1      34.551 -18.397 -24.490  0.00  0.00    +0.113 C 
ENDROOT
BRANCH   1   6
ATOM      3  C   UNL     1      33.214 -13.702 -23.063  0.00  0.00    +0.054 C 
ATOM      4  C   UNL     1      33.154 -14.367 -24.285  0.00  0.00    +0.006 C 
ATOM      5  C   UNL     1      33.873 -14.280 -21.981  0.00  0.00    +0.006 C 
ATOM      6  C   UNL     1      34.415 -16.199 -23.344  0.00  0.00    +0.048 C 
ATOM      7  C   UNL     1      33.754 -15.617 -24.426  0.00  0.00    +0.015 C 
ATOM      8  C   UNL     1      34.475 -15.531 -22.121  0.00  0.00    +0.015 C 
BRANCH   3  16
ATOM      9  O   UNL     1      31.494 -12.367 -22.343  0.00  0.00    -0.270 OA
ATOM     10  N   UNL     1      33.247 -11.272 -23.435  0.00  0.00    -0.276 N 
ATOM     11  C   UNL     1      33.761  -9.289 -25.488  0.00  0.00    +0.102 C 
ATOM     12  C   UNL     1      32.479  -9.280 -24.649  0.00  0.00    +0.033 C 
ATOM     13  C   UNL     1      34.433 -10.668 -25.507  0.00  0.00    +0.033 C 
ATOM     14  C   UNL     1      32.663  -9.943 -23.284  0.00  0.00    +0.094 C 
ATOM     15  C   UNL     1      34.546 -11.292 -24.117  0.00  0.00    +0.094 C 
ATOM     16  C   UNL     1      32.582 -12.385 -22.915  0.00  0.00    +0.249 C 
BRANCH  11  18
ATOM     17  O   UNL     1      35.659  -8.454 -24.261  0.00  0.00    -0.250 OA
ATOM     18  C   UNL     1      34.708  -8.233 -24.998  0.00  0.00    +0.317 C 
BRANCH  18  19
ATOM     19  O   UNL     1      34.337  -7.020 -25.499  0.00  0.00    -0.444 OA
ATOM     20  C   UNL     1      34.132  -5.990 -24.527  0.00  0.00    +0.256 C 
ENDBRANCH  18  19
ENDBRANCH  11  18
ENDBRANCH   3  16
ENDBRANCH   1   6
BRANCH   1  21
ATOM     21  C   UNL     1      36.138 -17.841 -22.641  0.00  0.00    +0.148 C 
BRANCH  21  28
ATOM     22  N   UNL     1      34.493 -19.304 -21.625  0.00  0.00    -0.392 NA
ATOM     23  N   UNL     1      36.445 -20.626 -20.174  0.00  0.00    -0.200 NA
ATOM     24  N   UNL     1      34.836 -21.998 -19.232  0.00  0.00    -0.271 NA
ATOM     25  N   UNL     1      32.520 -21.755 -19.803  0.00  0.00    -0.310 NA
ATOM     26  N   UNL     1      31.866 -20.093 -21.350  0.00  0.00    -0.329 N 
ATOM     27  N   UNL     1      33.207 -23.392 -18.275  0.00  0.00    -0.283 N 
ATOM     28  C   UNL     1      35.782 -18.973 -21.713  0.00  0.00    +0.133 C 
ATOM     29  C   UNL     1      36.750 -19.612 -21.007  0.00  0.00    +0.193 C 
ATOM     30  C   UNL     1      34.189 -20.319 -20.792  0.00  0.00    +0.248 C 
ATOM     31  C   UNL     1      35.163 -20.994 -20.053  0.00  0.00    +0.131 C 
ATOM     32  C   UNL     1      32.889 -20.752 -20.619  0.00  0.00    +0.231 C 
ATOM     33  C   UNL     1      33.534 -22.330 -19.146  0.00  0.00    +0.207 C 
ATOM     34  H   UNL     1      30.929 -20.377 -21.250  0.00  0.00    +0.145 HD
ATOM     35  H   UNL     1      32.094 -19.353 -21.958  0.00  0.00    +0.145 HD
ATOM     36  H   UNL     1      33.917 -23.848 -17.768  0.00  0.00    +0.156 HD
ATOM     37  H   UNL     1      32.270 -23.674 -18.175  0.00  0.00    +0.156 HD
ENDBRANCH  21  28
ENDBRANCH   1  21
TORSDOF 6
ENDMDL
MODEL 4
REMARK VINA RESULT:     -10.9      5.129     10.438
REMARK  Name = 23629645
REMARK  6 active torsions:
REMARK  status: ('A' for Active; 'I' for Inactive)
REMARK    1  A    between atoms: N_1  and  C_6
REMARK    2  A    between atoms: N_1  and  C_21
REMARK    3  A    between atoms: C_3  and  C_16
REMARK    4  A    between atoms: C_11  and  C_18
REMARK    5  A    between atoms: C_18  and  O_19
REMARK    6  A    between atoms: C_21  and  C_28
REMARK                            x       y       z     vdW  Elec       q    Type
REMARK                         _______ _______ _______ _____ _____    ______ ____
ROOT
ATOM      1  N   UNL     1      34.942 -18.455 -23.623  0.00  0.00    -0.300 N 
ATOM      2  C   UNL     1      34.557 -19.384 -24.665  0.00  0.00    +0.113 C 
ENDROOT
BRANCH   1   6
ATOM      3  C   UNL     1      33.938 -14.392 -23.920  0.00  0.00    +0.054 C 
ATOM      4  C   UNL     1      33.605 -15.265 -24.952  0.00  0.00    +0.006 C 
ATOM      5  C   UNL     1      34.603 -14.860 -22.790  0.00  0.00    +0.006 C 
ATOM      6  C   UNL     1      34.604 -17.088 -23.723  0.00  0.00    +0.048 C 
ATOM      7  C   UNL     1      33.938 -16.616 -24.853  0.00  0.00    +0.015 C 
ATOM      8  C   UNL     1      34.937 -16.210 -22.691  0.00  0.00    +0.015 C 
BRANCH   3  16
ATOM      9  O   UNL     1      34.149 -12.337 -24.917  0.00  0.00    -0.270 OA
ATOM     10  N   UNL     1      32.667 -12.448 -23.112  0.00  0.00    -0.276 N 
ATOM     11  C   UNL     1      31.946 -11.053 -20.674  0.00  0.00    +0.102 C 
ATOM     12  C   UNL     1      32.551 -10.326 -21.880  0.00  0.00    +0.033 C 
ATOM     13  C   UNL     1      32.253 -12.555 -20.686  0.00  0.00    +0.033 C 
ATOM     14  C   UNL     1      32.274 -11.045 -23.201  0.00  0.00    +0.094 C 
ATOM     15  C   UNL     1      31.997 -13.202 -22.047  0.00  0.00    +0.094 C 
ATOM     16  C   UNL     1      33.587 -12.969 -24.024  0.00  0.00    +0.249 C 
BRANCH  11  18
ATOM     17  O   UNL     1      29.676 -11.142 -21.478  0.00  0.00    -0.250 OA
ATOM     18  C   UNL     1      30.467 -10.803 -20.608  0.00  0.00    +0.317 C 
BRANCH  18  19
ATOM     19  O   UNL     1      30.165 -10.154 -19.448  0.00  0.00    -0.444 OA
ATOM     20  C   UNL     1      31.236 -10.051 -18.504  0.00  0.00    +0.256 C 
ENDBRANCH  18  19
ENDBRANCH  11  18
ENDBRANCH   3  16
ENDBRANCH   1   6
BRANCH   1  21
ATOM     21  C   UNL     1      35.692 -18.943 -22.482  0.00  0.00    +0.148 C 
BRANCH  21  28
ATOM     22  N   UNL     1      35.470 -20.500 -20.636  0.00  0.00    -0.392 NA
ATOM     23  N   UNL     1      32.716 -20.553 -20.906  0.00  0.00    -0.200 NA
ATOM     24  N   UNL     1      32.558 -22.040 -19.137  0.00  0.00    -0.271 NA
ATOM     25  N   UNL     1      34.519 -22.799 -17.985  0.00  0.00    -0.310 NA
ATOM     26  N   UNL     1      36.646 -22.022 -18.661  0.00  0.00    -0.329 N 
ATOM     27  N   UNL     1      32.394 -23.546 -17.343  0.00  0.00    -0.283 N 
ATOM     28  C   UNL     1      34.840 -19.786 -21.570  0.00  0.00    +0.133 C 
ATOM     29  C   UNL     1      33.489 -19.804 -21.714  0.00  0.00    +0.193 C 
ATOM     30  C   UNL     1      34.696 -21.249 -19.828  0.00  0.00    +0.248 C 
ATOM     31  C   UNL     1      33.306 -21.286 -19.952  0.00  0.00    +0.131 C 
ATOM     32  C   UNL     1      35.235 -22.029 -18.823  0.00  0.00    +0.231 C 
ATOM     33  C   UNL     1      33.199 -22.757 -18.195  0.00  0.00    +0.207 C 
ATOM     34  H   UNL     1      37.062 -22.566 -17.954  0.00  0.00    +0.145 HD
ATOM     35  H   UNL     1      37.206 -21.471 -19.253  0.00  0.00    +0.145 HD
ATOM     36  H   UNL     1      31.416 -23.550 -17.457  0.00  0.00    +0.156 HD
ATOM     37  H   UNL     1      32.811 -24.091 -16.638  0.00  0.00    +0.156 HD
ENDBRANCH  21  28
ENDBRANCH   1  21
TORSDOF 6
ENDMDL
MODEL 5
REMARK VINA RESULT:     -10.9      4.547      8.632
REMARK  Name = 23629645
REMARK  6 active torsions:
REMARK  status: ('A' for Active; 'I' for Inactive)
REMARK    1  A    between atoms: N_1  and  C_6
REMARK    2  A    between atoms: N_1  and  C_21
REMARK    3  A    between atoms: C_3  and  C_16
REMARK    4  A    between atoms: C_11  and  C_18
REMARK    5  A    between atoms: C_18  and  O_19
REMARK    6  A    between atoms: C_21  and  C_28
REMARK                            x       y       z     vdW  Elec       q    Type
REMARK                         _______ _______ _______ _____ _____    ______ ____
ROOT
ATOM      1  N   UNL     1      33.834 -11.247 -24.868  0.00  0.00    -0.300 N 
ATOM      2  C   UNL     1      33.757 -10.537 -26.128  0.00  0.00    +0.113 C 
ENDROOT
BRANCH   1   6
ATOM      3  C   UNL     1      33.814 -15.442 -24.787  0.00  0.00    +0.054 C 
ATOM      4  C   UNL     1      34.151 -14.728 -23.640  0.00  0.00    +0.006 C 
ATOM      5  C   UNL     1      33.485 -14.770 -25.961  0.00  0.00    +0.006 C 
ATOM      6  C   UNL     1      33.827 -12.658 -24.840  0.00  0.00    +0.048 C 
ATOM      7  C   UNL     1      34.157 -13.333 -23.666  0.00  0.00    +0.015 C 
ATOM      8  C   UNL     1      33.491 -13.375 -25.989  0.00  0.00    +0.015 C 
BRANCH   3  16
ATOM      9  O   UNL     1      33.098 -17.466 -25.594  0.00  0.00    -0.270 OA
ATOM     10  N   UNL     1      34.589 -17.554 -23.797  0.00  0.00    -0.276 N 
ATOM     11  C   UNL     1      34.989 -18.857 -21.236  0.00  0.00    +0.102 C 
ATOM     12  C   UNL     1      34.208 -19.521 -22.376  0.00  0.00    +0.033 C 
ATOM     13  C   UNL     1      35.054 -17.333 -21.388  0.00  0.00    +0.033 C 
ATOM     14  C   UNL     1      34.630 -19.013 -23.755  0.00  0.00    +0.094 C 
ATOM     15  C   UNL     1      35.438 -16.892 -22.799  0.00  0.00    +0.094 C 
ATOM     16  C   UNL     1      33.809 -16.910 -24.759  0.00  0.00    +0.249 C 
BRANCH  11  18
ATOM     17  O   UNL     1      37.397 -18.796 -21.176  0.00  0.00    -0.250 OA
ATOM     18  C   UNL     1      36.364 -19.450 -21.137  0.00  0.00    +0.317 C 
BRANCH  18  19
ATOM     19  O   UNL     1      36.268 -20.804 -21.002  0.00  0.00    -0.444 OA
ATOM     20  C   UNL     1      36.067 -21.275 -19.666  0.00  0.00    +0.256 C 
ENDBRANCH  18  19
ENDBRANCH  11  18
ENDBRANCH   3  16
ENDBRANCH   1   6
BRANCH   1  21
ATOM     21  C   UNL     1      33.904 -10.490 -23.633  0.00  0.00    +0.148 C 
BRANCH  21  28
ATOM     22  N   UNL     1      33.594  -8.139 -24.142  0.00  0.00    -0.392 NA
ATOM     23  N   UNL     1      30.960  -8.220 -23.294  0.00  0.00    -0.200 NA
ATOM     24  N   UNL     1      30.715  -5.973 -23.796  0.00  0.00    -0.271 NA
ATOM     25  N   UNL     1      32.539  -4.704 -24.696  0.00  0.00    -0.310 NA
ATOM     26  N   UNL     1      34.619  -5.758 -25.079  0.00  0.00    -0.329 N 
ATOM     27  N   UNL     1      30.462  -3.695 -24.304  0.00  0.00    -0.283 N 
ATOM     28  C   UNL     1      33.037  -9.259 -23.679  0.00  0.00    +0.133 C 
ATOM     29  C   UNL     1      31.747  -9.313 -23.258  0.00  0.00    +0.193 C 
ATOM     30  C   UNL     1      32.806  -7.047 -24.177  0.00  0.00    +0.248 C 
ATOM     31  C   UNL     1      31.477  -7.073 -23.751  0.00  0.00    +0.131 C 
ATOM     32  C   UNL     1      33.272  -5.830 -24.637  0.00  0.00    +0.231 C 
ATOM     33  C   UNL     1      31.281  -4.845 -24.264  0.00  0.00    +0.207 C 
ATOM     34  H   UNL     1      34.982  -4.906 -25.413  0.00  0.00    +0.145 HD
ATOM     35  H   UNL     1      35.189  -6.560 -25.052  0.00  0.00    +0.145 HD
ATOM     36  H   UNL     1      29.528  -3.746 -23.997  0.00  0.00    +0.156 HD
ATOM     37  H   UNL     1      30.826  -2.844 -24.637  0.00  0.00    +0.156 HD
ENDBRANCH  21  28
ENDBRANCH   1  21
TORSDOF 6
ENDMDL
MODEL 6
REMARK VINA RESULT:     -10.9      1.772      3.214
REMARK  Name = 23629645
REMARK  6 active torsions:
REMARK  status: ('A' for Active; 'I' for Inactive)
REMARK    1  A    between atoms: N_1  and  C_6
REMARK    2  A    between atoms: N_1  and  C_21
REMARK    3  A    between atoms: C_3  and  C_16
REMARK    4  A    between atoms: C_11  and  C_18
REMARK    5  A    between atoms: C_18  and  O_19
REMARK    6  A    between atoms: C_21  and  C_28
REMARK                            x       y       z     vdW  Elec       q    Type
REMARK                         _______ _______ _______ _____ _____    ______ ____
ROOT
ATOM      1  N   UNL     1      33.895 -20.994 -20.325  0.00  0.00    -0.300 N 
ATOM      2  C   UNL     1      32.636 -20.501 -20.845  0.00  0.00    +0.113 C 
ENDROOT
BRANCH   1   6
ATOM      3  C   UNL     1      33.986 -23.311 -16.828  0.00  0.00    +0.054 C 
ATOM      4  C   UNL     1      32.782 -23.120 -17.502  0.00  0.00    +0.006 C 
ATOM      5  C   UNL     1      35.159 -22.736 -17.308  0.00  0.00    +0.006 C 
ATOM      6  C   UNL     1      33.925 -21.773 -19.149  0.00  0.00    +0.048 C 
ATOM      7  C   UNL     1      32.752 -22.350 -18.664  0.00  0.00    +0.015 C 
ATOM      8  C   UNL     1      35.130 -21.966 -18.471  0.00  0.00    +0.015 C 
BRANCH   3  16
ATOM      9  O   UNL     1      32.926 -24.444 -15.139  0.00  0.00    -0.270 OA
ATOM     10  N   UNL     1      35.263 -24.449 -15.062  0.00  0.00    -0.276 N 
ATOM     11  C   UNL     1      37.478 -24.046 -13.233  0.00  0.00    +0.102 C 
ATOM     12  C   UNL     1      36.111 -24.552 -12.759  0.00  0.00    +0.033 C 
ATOM     13  C   UNL     1      37.391 -23.308 -14.575  0.00  0.00    +0.033 C 
ATOM     14  C   UNL     1      35.335 -25.275 -13.860  0.00  0.00    +0.094 C 
ATOM     15  C   UNL     1      36.566 -24.064 -15.616  0.00  0.00    +0.094 C 
ATOM     16  C   UNL     1      34.018 -24.121 -15.603  0.00  0.00    +0.249 C 
BRANCH  11  18
ATOM     17  O   UNL     1      38.276 -26.273 -12.777  0.00  0.00    -0.250 OA
ATOM     18  C   UNL     1      38.455 -25.184 -13.304  0.00  0.00    +0.317 C 
BRANCH  18  19
ATOM     19  O   UNL     1      39.542 -24.807 -14.035  0.00  0.00    -0.444 OA
ATOM     20  C   UNL     1      40.092 -25.817 -14.887  0.00  0.00    +0.256 C 
ENDBRANCH  18  19
ENDBRANCH  11  18
ENDBRANCH   3  16
ENDBRANCH   1   6
BRANCH   1  21
ATOM     21  C   UNL     1      35.124 -20.665 -21.019  0.00  0.00    +0.148 C 
BRANCH  21  28
ATOM     22  N   UNL     1      34.326 -19.382 -22.915  0.00  0.00    -0.392 NA
ATOM     23  N   UNL     1      35.509 -17.072 -21.953  0.00  0.00    -0.200 NA
ATOM     24  N   UNL     1      34.723 -15.891 -23.784  0.00  0.00    -0.271 NA
ATOM     25  N   UNL     1      33.421 -16.972 -25.483  0.00  0.00    -0.310 NA
ATOM     26  N   UNL     1      32.930 -19.275 -25.290  0.00  0.00    -0.329 N 
ATOM     27  N   UNL     1      33.927 -14.691 -25.638  0.00  0.00    -0.283 N 
ATOM     28  C   UNL     1      35.014 -19.366 -21.772  0.00  0.00    +0.133 C 
ATOM     29  C   UNL     1      35.600 -18.240 -21.289  0.00  0.00    +0.193 C 
ATOM     30  C   UNL     1      34.235 -18.213 -23.578  0.00  0.00    +0.248 C 
ATOM     31  C   UNL     1      34.827 -17.040 -23.106  0.00  0.00    +0.131 C 
ATOM     32  C   UNL     1      33.547 -18.107 -24.772  0.00  0.00    +0.231 C 
ATOM     33  C   UNL     1      34.027 -15.912 -24.936  0.00  0.00    +0.207 C 
ATOM     34  H   UNL     1      32.432 -19.234 -26.138  0.00  0.00    +0.145 HD
ATOM     35  H   UNL     1      32.999 -20.126 -24.800  0.00  0.00    +0.145 HD
ATOM     36  H   UNL     1      34.356 -13.881 -25.278  0.00  0.00    +0.156 HD
ATOM     37  H   UNL     1      33.431 -14.650 -26.486  0.00  0.00    +0.156 HD
ENDBRANCH  21  28
ENDBRANCH   1  21
TORSDOF 6
ENDMDL
MODEL 7
REMARK VINA RESULT:     -10.9      4.134     10.487
REMARK  Name = 23629645
REMARK  6 active torsions:
REMARK  status: ('A' for Active; 'I' for Inactive)
REMARK    1  A    between atoms: N_1  and  C_6
REMARK    2  A    between atoms: N_1  and  C_21
REMARK    3  A    between atoms: C_3  and  C_16
REMARK    4  A    between atoms: C_11  and  C_18
REMARK    5  A    between atoms: C_18  and  O_19
REMARK    6  A    between atoms: C_21  and  C_28
REMARK                            x       y       z     vdW  Elec       q    Type
REMARK                         _______ _______ _______ _____ _____    ______ ____
ROOT
ATOM      1  N   UNL     1      36.072 -20.652 -20.263  0.00  0.00    -0.300 N 
ATOM      2  C   UNL     1      36.906 -20.215 -19.162  0.00  0.00    +0.113 C 
ENDROOT
BRANCH   1   6
ATOM      3  C   UNL     1      34.889 -17.941 -23.239  0.00  0.00    +0.054 C 
ATOM      4  C   UNL     1      34.039 -18.980 -22.871  0.00  0.00    +0.006 C 
ATOM      5  C   UNL     1      36.131 -17.797 -22.625  0.00  0.00    +0.006 C 
ATOM      6  C   UNL     1      35.674 -19.740 -21.264  0.00  0.00    +0.048 C 
ATOM      7  C   UNL     1      34.432 -19.882 -21.881  0.00  0.00    +0.015 C 
ATOM      8  C   UNL     1      36.524 -18.698 -21.636  0.00  0.00    +0.015 C 
BRANCH   3  16
ATOM      9  O   UNL     1      34.644 -17.357 -25.444  0.00  0.00    -0.270 OA
ATOM     10  N   UNL     1      33.942 -15.766 -23.882  0.00  0.00    -0.276 N 
ATOM     11  C   UNL     1      34.127 -12.934 -23.282  0.00  0.00    +0.102 C 
ATOM     12  C   UNL     1      34.216 -13.471 -24.715  0.00  0.00    +0.033 C 
ATOM     13  C   UNL     1      34.460 -14.006 -22.238  0.00  0.00    +0.033 C 
ATOM     14  C   UNL     1      33.495 -14.808 -24.890  0.00  0.00    +0.094 C 
ATOM     15  C   UNL     1      33.740 -15.329 -22.496  0.00  0.00    +0.094 C 
ATOM     16  C   UNL     1      34.476 -16.993 -24.282  0.00  0.00    +0.249 C 
BRANCH  11  18
ATOM     17  O   UNL     1      31.824 -12.965 -22.576  0.00  0.00    -0.250 OA
ATOM     18  C   UNL     1      32.770 -12.341 -23.036  0.00  0.00    +0.317 C 
BRANCH  18  19
ATOM     19  O   UNL     1      32.773 -11.027 -23.401  0.00  0.00    -0.444 OA
ATOM     20  C   UNL     1      31.940 -10.169 -22.615  0.00  0.00    +0.256 C 
ENDBRANCH  18  19
ENDBRANCH  11  18
ENDBRANCH   3  16
ENDBRANCH   1   6
BRANCH   1  21
ATOM     21  C   UNL     1      35.641 -22.035 -20.318  0.00  0.00    +0.148 C 
BRANCH  21  28
ATOM     22  N   UNL     1      34.925 -22.841 -18.146  0.00  0.00    -0.392 NA
ATOM     23  N   UNL     1      32.272 -22.314 -18.736  0.00  0.00    -0.200 NA
ATOM     24  N   UNL     1      31.639 -23.095 -16.649  0.00  0.00    -0.271 NA
ATOM     25  N   UNL     1      33.269 -23.905 -15.089  0.00  0.00    -0.310 NA
ATOM     26  N   UNL     1      35.556 -23.909 -15.684  0.00  0.00    -0.329 N 
ATOM     27  N   UNL     1      30.994 -23.884 -14.535  0.00  0.00    -0.283 N 
ATOM     28  C   UNL     1      34.553 -22.324 -19.318  0.00  0.00    +0.133 C 
ATOM     29  C   UNL     1      33.255 -22.061 -19.621  0.00  0.00    +0.193 C 
ATOM     30  C   UNL     1      33.941 -23.093 -17.261  0.00  0.00    +0.248 C 
ATOM     31  C   UNL     1      32.598 -22.834 -17.545  0.00  0.00    +0.131 C 
ATOM     32  C   UNL     1      34.204 -23.628 -16.015  0.00  0.00    +0.231 C 
ATOM     33  C   UNL     1      32.019 -23.616 -15.468  0.00  0.00    +0.207 C 
ATOM     34  H   UNL     1      35.778 -24.290 -14.804  0.00  0.00    +0.145 HD
ATOM     35  H   UNL     1      36.271 -23.721 -16.334  0.00  0.00    +0.145 HD
ATOM     36  H   UNL     1      30.057 -23.689 -14.765  0.00  0.00    +0.156 HD
ATOM     37  H   UNL     1      31.216 -24.266 -13.656  0.00  0.00    +0.156 HD
ENDBRANCH  21  28
ENDBRANCH   1  21
TORSDOF 6
ENDMDL
MODEL 8
REMARK VINA RESULT:     -10.6      1.644      2.822
REMARK  Name = 23629645
REMARK  6 active torsions:
REMARK  status: ('A' for Active; 'I' for Inactive)
REMARK    1  A    between atoms: N_1  and  C_6
REMARK    2  A    between atoms: N_1  and  C_21
REMARK    3  A    between atoms: C_3  and  C_16
REMARK    4  A    between atoms: C_11  and  C_18
REMARK    5  A    between atoms: C_18  and  O_19
REMARK    6  A    between atoms: C_21  and  C_28
REMARK                            x       y       z     vdW  Elec       q    Type
REMARK                         _______ _______ _______ _____ _____    ______ ____
ROOT
ATOM      1  N   UNL     1      35.133 -19.868 -21.376  0.00  0.00    -0.300 N 
ATOM      2  C   UNL     1      33.739 -19.887 -21.767  0.00  0.00    +0.113 C 
ENDROOT
BRANCH   1   6
ATOM      3  C   UNL     1      36.401 -21.900 -17.931  0.00  0.00    +0.054 C 
ATOM      4  C   UNL     1      35.244 -22.308 -18.590  0.00  0.00    +0.006 C 
ATOM      5  C   UNL     1      37.138 -20.820 -18.408  0.00  0.00    +0.006 C 
ATOM      6  C   UNL     1      35.560 -20.551 -20.217  0.00  0.00    +0.048 C 
ATOM      7  C   UNL     1      34.823 -21.633 -19.735  0.00  0.00    +0.015 C 
ATOM      8  C   UNL     1      36.717 -20.144 -19.554  0.00  0.00    +0.015 C 
BRANCH   3  16
ATOM      9  O   UNL     1      38.048 -22.843 -16.643  0.00  0.00    -0.270 OA
ATOM     10  N   UNL     1      35.880 -22.972 -15.781  0.00  0.00    -0.276 N 
ATOM     11  C   UNL     1      34.027 -24.840 -14.557  0.00  0.00    +0.102 C 
ATOM     12  C   UNL     1      35.547 -24.988 -14.417  0.00  0.00    +0.033 C 
ATOM     13  C   UNL     1      33.636 -23.991 -15.772  0.00  0.00    +0.033 C 
ATOM     14  C   UNL     1      36.285 -23.657 -14.556  0.00  0.00    +0.094 C 
ATOM     15  C   UNL     1      34.442 -22.696 -15.876  0.00  0.00    +0.094 C 
ATOM     16  C   UNL     1      36.844 -22.611 -16.724  0.00  0.00    +0.249 C 
BRANCH  11  18
ATOM     17  O   UNL     1      34.097 -24.028 -12.289  0.00  0.00    -0.250 OA
ATOM     18  C   UNL     1      33.444 -24.277 -13.293  0.00  0.00    +0.317 C 
BRANCH  18  19
ATOM     19  O   UNL     1      32.102 -24.096 -13.452  0.00  0.00    -0.444 OA
ATOM     20  C   UNL     1      31.351 -25.281 -13.736  0.00  0.00    +0.256 C 
ENDBRANCH  18  19
ENDBRANCH  11  18
ENDBRANCH   3  16
ENDBRANCH   1   6
BRANCH   1  21
ATOM     21  C   UNL     1      36.084 -19.126 -22.181  0.00  0.00    +0.148 C 
BRANCH  21  28
ATOM     22  N   UNL     1      35.139 -16.945 -22.659  0.00  0.00    -0.392 NA
ATOM     23  N   UNL     1      34.453 -17.716 -25.228  0.00  0.00    -0.200 NA
ATOM     24  N   UNL     1      33.563 -15.617 -25.635  0.00  0.00    -0.271 NA
ATOM     25  N   UNL     1      33.595 -13.916 -23.946  0.00  0.00    -0.310 NA
ATOM     26  N   UNL     1      34.546 -14.382 -21.835  0.00  0.00    -0.329 N 
ATOM     27  N   UNL     1      32.662 -13.490 -26.052  0.00  0.00    -0.283 N 
ATOM     28  C   UNL     1      35.398 -18.170 -23.120  0.00  0.00    +0.133 C 
ATOM     29  C   UNL     1      35.067 -18.562 -24.378  0.00  0.00    +0.193 C 
ATOM     30  C   UNL     1      34.525 -16.100 -23.511  0.00  0.00    +0.248 C 
ATOM     31  C   UNL     1      34.173 -16.475 -24.809  0.00  0.00    +0.131 C 
ATOM     32  C   UNL     1      34.207 -14.806 -23.146  0.00  0.00    +0.231 C 
ATOM     33  C   UNL     1      33.305 -14.382 -25.166  0.00  0.00    +0.207 C 
ATOM     34  H   UNL     1      34.333 -13.466 -21.543  0.00  0.00    +0.145 HD
ATOM     35  H   UNL     1      34.995 -15.004 -21.217  0.00  0.00    +0.145 HD
ATOM     36  H   UNL     1      32.426 -13.785 -26.961  0.00  0.00    +0.156 HD
ATOM     37  H   UNL     1      32.448 -12.575 -25.760  0.00  0.00    +0.156 HD
ENDBRANCH  21  28
ENDBRANCH   1  21
TORSDOF 6
ENDMDL
MODEL 9
REMARK VINA RESULT:     -10.2      5.279     11.607
REMARK  Name = 23629645
REMARK  6 active torsions:
REMARK  status: ('A' for Active; 'I' for Inactive)
REMARK    1  A    between atoms: N_1  and  C_6
REMARK    2  A    between atoms: N_1  and  C_21
REMARK    3  A    between atoms: C_3  and  C_16
REMARK    4  A    between atoms: C_11  and  C_18
REMARK    5  A    between atoms: C_18  and  O_19
REMARK    6  A    between atoms: C_21  and  C_28
REMARK                            x       y       z     vdW  Elec       q    Type
REMARK                         _______ _______ _______ _____ _____    ______ ____
ROOT
ATOM      1  N   UNL     1      34.983 -17.595 -22.279  0.00  0.00    -0.300 N 
ATOM      2  C   UNL     1      35.275 -17.231 -20.907  0.00  0.00    +0.113 C 
ENDROOT
BRANCH   1   6
ATOM      3  C   UNL     1      34.026 -14.644 -25.103  0.00  0.00    +0.054 C 
ATOM      4  C   UNL     1      34.272 -14.283 -23.781  0.00  0.00    +0.006 C 
ATOM      5  C   UNL     1      34.096 -15.978 -25.493  0.00  0.00    +0.006 C 
ATOM      6  C   UNL     1      34.662 -16.602 -23.229  0.00  0.00    +0.048 C 
ATOM      7  C   UNL     1      34.591 -15.264 -22.842  0.00  0.00    +0.015 C 
ATOM      8  C   UNL     1      34.414 -16.960 -24.554  0.00  0.00    +0.015 C 
BRANCH   3  16
ATOM      9  O   UNL     1      33.606 -13.985 -27.260  0.00  0.00    -0.270 OA
ATOM     10  N   UNL     1      33.504 -12.302 -25.641  0.00  0.00    -0.276 N 
ATOM     11  C   UNL     1      34.398  -9.592 -25.119  0.00  0.00    +0.102 C 
ATOM     12  C   UNL     1      34.161 -10.113 -26.541  0.00  0.00    +0.033 C 
ATOM     13  C   UNL     1      34.629 -10.728 -24.116  0.00  0.00    +0.033 C 
ATOM     14  C   UNL     1      33.143 -11.253 -26.590  0.00  0.00    +0.094 C 
ATOM     15  C   UNL     1      33.605 -11.854 -24.247  0.00  0.00    +0.094 C 
ATOM     16  C   UNL     1      33.690 -13.611 -26.092  0.00  0.00    +0.249 C 
BRANCH  11  18
ATOM     17  O   UNL     1      32.575  -8.055 -25.463  0.00  0.00    -0.250 OA
ATOM     18  C   UNL     1      33.257  -8.716 -24.692  0.00  0.00    +0.317 C 
BRANCH  18  19
ATOM     19  O   UNL     1      33.115  -8.781 -23.337  0.00  0.00    -0.444 OA
ATOM     20  C   UNL     1      31.774  -8.651 -22.853  0.00  0.00    +0.256 C 
ENDBRANCH  18  19
ENDBRANCH  11  18
ENDBRANCH   3  16
ENDBRANCH   1   6
BRANCH   1  21
ATOM     21  C   UNL     1      35.013 -18.993 -22.661  0.00  0.00    +0.148 C 
BRANCH  21  28
ATOM     22  N   UNL     1      35.097 -20.525 -20.783  0.00  0.00    -0.392 NA
ATOM     23  N   UNL     1      32.338 -20.743 -20.734  0.00  0.00    -0.200 NA
ATOM     24  N   UNL     1      32.472 -22.203 -18.940  0.00  0.00    -0.271 NA
ATOM     25  N   UNL     1      34.593 -22.825 -18.012  0.00  0.00    -0.310 NA
ATOM     26  N   UNL     1      36.579 -21.938 -18.937  0.00  0.00    -0.329 N 
ATOM     27  N   UNL     1      32.604 -23.681 -17.122  0.00  0.00    -0.283 N 
ATOM     28  C   UNL     1      34.323 -19.867 -21.647  0.00  0.00    +0.133 C 
ATOM     29  C   UNL     1      32.968 -19.965 -21.635  0.00  0.00    +0.193 C 
ATOM     30  C   UNL     1      34.466 -21.302 -19.882  0.00  0.00    +0.248 C 
ATOM     31  C   UNL     1      33.075 -21.423 -19.846  0.00  0.00    +0.131 C 
ATOM     32  C   UNL     1      35.162 -22.030 -18.936  0.00  0.00    +0.231 C 
ATOM     33  C   UNL     1      33.257 -22.864 -18.070  0.00  0.00    +0.207 C 
ATOM     34  H   UNL     1      37.105 -22.444 -18.277  0.00  0.00    +0.145 HD
ATOM     35  H   UNL     1      37.034 -21.368 -19.597  0.00  0.00    +0.145 HD
ATOM     36  H   UNL     1      31.621 -23.745 -17.122  0.00  0.00    +0.156 HD
ATOM     37  H   UNL     1      33.130 -24.188 -16.463  0.00  0.00    +0.156 HD
ENDBRANCH  21  28
ENDBRANCH   1  21
TORSDOF 6
ENDMDL
