MODEL 1
REMARK VINA RESULT:     -12.1      0.000      0.000
REMARK  Name = 24963046
REMARK  6 active torsions:
REMARK  status: ('A' for Active; 'I' for Inactive)
REMARK    1  A    between atoms: N_1  and  C_27
REMARK    2  A    between atoms: C_4  and  C_16
REMARK    3  A    between atoms: C_13  and  C_22
REMARK    4  A    between atoms: N_21  and  C_24
REMARK    5  A    between atoms: C_27  and  C_28
REMARK    6  A    between atoms: C_28  and  N_30
REMARK                            x       y       z     vdW  Elec       q    Type
REMARK                         _______ _______ _______ _____ _____    ______ ____
ROOT
ATOM      1  N   UNL     1      33.694 -12.736 -24.889  0.00  0.00    -0.270 N 
ATOM      2  N   UNL     1      34.093 -15.013 -24.642  0.00  0.00    -0.338 NA
ATOM      3  N   UNL     1      34.147 -13.518 -22.752  0.00  0.00    -0.170 NA
ATOM      4  C   UNL     1      34.988 -18.249 -22.172  0.00  0.00    -0.000 C 
ATOM      5  C   UNL     1      34.869 -16.973 -21.627  0.00  0.00    +0.004 C 
ATOM      6  C   UNL     1      34.568 -15.879 -22.457  0.00  0.00    +0.050 C 
ATOM      7  C   UNL     1      33.992 -13.802 -24.056  0.00  0.00    +0.145 C 
ATOM      8  C   UNL     1      34.805 -18.430 -23.539  0.00  0.00    +0.003 C 
ATOM      9  C   UNL     1      34.382 -16.051 -23.839  0.00  0.00    +0.146 C 
ATOM     10  C   UNL     1      34.505 -17.338 -24.357  0.00  0.00    +0.033 C 
ATOM     11  C   UNL     1      34.436 -14.581 -21.976  0.00  0.00    +0.114 C 
ATOM     12  H   UNL     1      33.613 -11.841 -24.486  0.00  0.00    +0.159 HD
ENDROOT
BRANCH   4  16
ATOM     13  C   UNL     1      34.532 -21.243 -19.995  0.00  0.00    +0.053 C 
ATOM     14  C   UNL     1      34.256 -20.151 -20.816  0.00  0.00    +0.004 C 
ATOM     15  C   UNL     1      35.852 -21.562 -19.680  0.00  0.00    +0.004 C 
ATOM     16  C   UNL     1      35.300 -19.376 -21.322  0.00  0.00    -0.004 C 
ATOM     17  C   UNL     1      36.621 -19.696 -21.006  0.00  0.00    -0.022 C 
ATOM     18  C   UNL     1      36.897 -20.789 -20.185  0.00  0.00    -0.004 C 
ATOM     19  C   UNL     1      37.767 -18.890 -21.530  0.00  0.00    +0.031 C 
BRANCH  13  22
ATOM     20  O   UNL     1      32.353 -22.111 -20.062  0.00  0.00    -0.270 OA
ATOM     21  N   UNL     1      33.679 -22.729 -18.265  0.00  0.00    -0.302 N 
ATOM     22  C   UNL     1      33.444 -22.051 -19.467  0.00  0.00    +0.246 C 
ATOM     23  H   UNL     1      34.565 -22.640 -17.843  0.00  0.00    +0.150 HD
BRANCH  21  24
ATOM     24  C   UNL     1      32.692 -23.547 -17.614  0.00  0.00    +0.072 C 
ATOM     25  C   UNL     1      32.558 -23.561 -16.119  0.00  0.00    +0.021 C 
ATOM     26  C   UNL     1      31.486 -22.938 -16.964  0.00  0.00    +0.021 C 
ENDBRANCH  21  24
ENDBRANCH  13  22
ENDBRANCH   4  16
BRANCH   1  27
ATOM     27  C   UNL     1      33.493 -12.863 -26.312  0.00  0.00    +0.075 C 
BRANCH  27  28
ATOM     28  C   UNL     1      33.745 -11.521 -26.987  0.00  0.00    -0.055 C 
BRANCH  28  30
ATOM     29  O   UNL     1      34.378  -7.774 -25.206  0.00  0.00    -0.358 OA
ATOM     30  N   UNL     1      33.881 -10.466 -25.985  0.00  0.00    +0.391 N 
ATOM     31  C   UNL     1      32.886  -9.406 -26.206  0.00  0.00    -0.045 C 
ATOM     32  C   UNL     1      35.236  -9.897 -26.006  0.00  0.00    -0.045 C 
ATOM     33  C   UNL     1      33.055  -8.312 -25.156  0.00  0.00    +0.119 C 
ATOM     34  C   UNL     1      35.349  -8.792 -24.960  0.00  0.00    +0.119 C 
ATOM     35  H   UNL     1      33.715 -10.882 -25.069  0.00  0.00    -0.079 HD
ENDBRANCH  28  30
ENDBRANCH  27  28
ENDBRANCH   1  27
TORSDOF 6
ENDMDL
MODEL 2
REMARK VINA RESULT:     -11.5      3.267     12.228
REMARK  Name = 24963046
REMARK  6 active torsions:
REMARK  status: ('A' for Active; 'I' for Inactive)
REMARK    1  A    between atoms: N_1  and  C_27
REMARK    2  A    between atoms: C_4  and  C_16
REMARK    3  A    between atoms: C_13  and  C_22
REMARK    4  A    between atoms: N_21  and  C_24
REMARK    5  A    between atoms: C_27  and  C_28
REMARK    6  A    between atoms: C_28  and  N_30
REMARK                            x       y       z     vdW  Elec       q    Type
REMARK                         _______ _______ _______ _____ _____    ______ ____
ROOT
ATOM      1  N   UNL     1      33.543 -23.882 -17.017  0.00  0.00    -0.270 N 
ATOM      2  N   UNL     1      34.727 -22.482 -18.446  0.00  0.00    -0.338 NA
ATOM      3  N   UNL     1      32.318 -22.566 -18.483  0.00  0.00    -0.170 NA
ATOM      4  C   UNL     1      34.724 -19.629 -21.485  0.00  0.00    -0.000 C 
ATOM      5  C   UNL     1      33.518 -20.135 -21.009  0.00  0.00    +0.004 C 
ATOM      6  C   UNL     1      33.515 -21.098 -19.984  0.00  0.00    +0.050 C 
ATOM      7  C   UNL     1      33.526 -22.934 -18.028  0.00  0.00    +0.145 C 
ATOM      8  C   UNL     1      35.920 -20.081 -20.940  0.00  0.00    +0.003 C 
ATOM      9  C   UNL     1      34.717 -21.562 -19.426  0.00  0.00    +0.146 C 
ATOM     10  C   UNL     1      35.909 -21.038 -19.921  0.00  0.00    +0.033 C 
ATOM     11  C   UNL     1      32.345 -21.643 -19.464  0.00  0.00    +0.114 C 
ATOM     12  H   UNL     1      32.681 -24.229 -16.692  0.00  0.00    +0.159 HD
ENDROOT
BRANCH   4  16
ATOM     13  C   UNL     1      34.642 -16.319 -23.203  0.00  0.00    +0.053 C 
ATOM     14  C   UNL     1      34.636 -17.290 -22.202  0.00  0.00    +0.004 C 
ATOM     15  C   UNL     1      34.744 -16.696 -24.541  0.00  0.00    +0.004 C 
ATOM     16  C   UNL     1      34.731 -18.640 -22.540  0.00  0.00    -0.004 C 
ATOM     17  C   UNL     1      34.834 -19.018 -23.879  0.00  0.00    -0.022 C 
ATOM     18  C   UNL     1      34.840 -18.046 -24.880  0.00  0.00    -0.004 C 
ATOM     19  C   UNL     1      34.939 -20.455 -24.280  0.00  0.00    +0.031 C 
BRANCH  13  22
ATOM     20  O   UNL     1      34.597 -14.549 -21.662  0.00  0.00    -0.270 OA
ATOM     21  N   UNL     1      34.362 -14.003 -23.901  0.00  0.00    -0.302 N 
ATOM     22  C   UNL     1      34.542 -14.911 -22.851  0.00  0.00    +0.246 C 
ATOM     23  H   UNL     1      34.326 -14.353 -24.822  0.00  0.00    +0.150 HD
BRANCH  21  24
ATOM     24  C   UNL     1      34.227 -12.586 -23.706  0.00  0.00    +0.072 C 
ATOM     25  C   UNL     1      33.793 -11.685 -24.824  0.00  0.00    +0.021 C 
ATOM     26  C   UNL     1      32.877 -11.934 -23.662  0.00  0.00    +0.021 C 
ENDBRANCH  21  24
ENDBRANCH  13  22
ENDBRANCH   4  16
BRANCH   1  27
ATOM     27  C   UNL     1      34.752 -24.389 -16.413  0.00  0.00    +0.075 C 
BRANCH  27  28
ATOM     28  C   UNL     1      34.591 -24.426 -14.898  0.00  0.00    -0.055 C 
BRANCH  28  30
ATOM     29  O   UNL     1      38.002 -26.560 -13.705  0.00  0.00    -0.358 OA
ATOM     30  N   UNL     1      35.452 -25.456 -14.321  0.00  0.00    +0.391 N 
ATOM     31  C   UNL     1      36.296 -24.893 -13.257  0.00  0.00    -0.045 C 
ATOM     32  C   UNL     1      36.291 -26.075 -15.356  0.00  0.00    -0.045 C 
ATOM     33  C   UNL     1      37.194 -25.983 -12.678  0.00  0.00    +0.119 C 
ATOM     34  C   UNL     1      37.188 -27.138 -14.727  0.00  0.00    +0.119 C 
ATOM     35  H   UNL     1      34.851 -26.173 -13.914  0.00  0.00    -0.079 HD
ENDBRANCH  28  30
ENDBRANCH  27  28
ENDBRANCH   1  27
TORSDOF 6
ENDMDL
MODEL 3
REMARK VINA RESULT:     -10.8      3.580      6.781
REMARK  Name = 24963046
REMARK  6 active torsions:
REMARK  status: ('A' for Active; 'I' for Inactive)
REMARK    1  A    between atoms: N_1  and  C_27
REMARK    2  A    between atoms: C_4  and  C_16
REMARK    3  A    between atoms: C_13  and  C_22
REMARK    4  A    between atoms: N_21  and  C_24
REMARK    5  A    between atoms: C_27  and  C_28
REMARK    6  A    between atoms: C_28  and  N_30
REMARK                            x       y       z     vdW  Elec       q    Type
REMARK                         _______ _______ _______ _____ _____    ______ ____
ROOT
ATOM      1  N   UNL     1      35.475 -19.037 -22.787  0.00  0.00    -0.270 N 
ATOM      2  N   UNL     1      34.205 -20.311 -21.315  0.00  0.00    -0.338 NA
ATOM      3  N   UNL     1      36.563 -19.962 -20.959  0.00  0.00    -0.170 NA
ATOM      4  C   UNL     1      33.974 -22.626 -17.857  0.00  0.00    -0.000 C 
ATOM      5  C   UNL     1      35.193 -22.074 -18.241  0.00  0.00    +0.004 C 
ATOM      6  C   UNL     1      35.274 -21.293 -19.407  0.00  0.00    +0.050 C 
ATOM      7  C   UNL     1      35.413 -19.804 -21.635  0.00  0.00    +0.145 C 
ATOM      8  C   UNL     1      32.843 -22.398 -18.633  0.00  0.00    +0.003 C 
ATOM      9  C   UNL     1      34.138 -21.056 -20.199  0.00  0.00    +0.146 C 
ATOM     10  C   UNL     1      32.932 -21.620 -19.790  0.00  0.00    +0.033 C 
ATOM     11  C   UNL     1      36.461 -20.714 -19.845  0.00  0.00    +0.114 C 
ATOM     12  H   UNL     1      36.345 -18.654 -23.044  0.00  0.00    +0.159 HD
ENDROOT
BRANCH   4  16
ATOM     13  C   UNL     1      34.987 -24.774 -14.980  0.00  0.00    +0.053 C 
ATOM     14  C   UNL     1      35.049 -23.994 -16.135  0.00  0.00    +0.004 C 
ATOM     15  C   UNL     1      33.763 -24.990 -14.348  0.00  0.00    +0.004 C 
ATOM     16  C   UNL     1      33.885 -23.431 -16.659  0.00  0.00    -0.004 C 
ATOM     17  C   UNL     1      32.660 -23.648 -16.027  0.00  0.00    -0.022 C 
ATOM     18  C   UNL     1      32.599 -24.427 -14.871  0.00  0.00    -0.004 C 
ATOM     19  C   UNL     1      31.392 -23.060 -16.558  0.00  0.00    +0.031 C 
BRANCH  13  22
ATOM     20  O   UNL     1      36.248 -25.726 -13.244  0.00  0.00    -0.270 OA
ATOM     21  N   UNL     1      37.298 -25.475 -15.295  0.00  0.00    -0.302 N 
ATOM     22  C   UNL     1      36.200 -25.362 -14.433  0.00  0.00    +0.246 C 
ATOM     23  H   UNL     1      37.196 -25.168 -16.225  0.00  0.00    +0.150 HD
BRANCH  21  24
ATOM     24  C   UNL     1      38.567 -26.015 -14.891  0.00  0.00    +0.072 C 
ATOM     25  C   UNL     1      39.854 -25.352 -15.283  0.00  0.00    +0.021 C 
ATOM     26  C   UNL     1      39.405 -25.333 -13.851  0.00  0.00    +0.021 C 
ENDBRANCH  21  24
ENDBRANCH  13  22
ENDBRANCH   4  16
BRANCH   1  27
ATOM     27  C   UNL     1      34.336 -18.766 -23.632  0.00  0.00    +0.075 C 
BRANCH  27  28
ATOM     28  C   UNL     1      34.668 -17.629 -24.590  0.00  0.00    -0.055 C 
BRANCH  28  30
ATOM     29  O   UNL     1      34.060 -13.559 -23.764  0.00  0.00    -0.358 OA
ATOM     30  N   UNL     1      34.061 -16.382 -24.128  0.00  0.00    +0.391 N 
ATOM     31  C   UNL     1      33.839 -15.463 -25.254  0.00  0.00    -0.045 C 
ATOM     32  C   UNL     1      34.901 -15.739 -23.109  0.00  0.00    -0.045 C 
ATOM     33  C   UNL     1      33.218 -14.165 -24.746  0.00  0.00    +0.119 C 
ATOM     34  C   UNL     1      34.253 -14.435 -22.652  0.00  0.00    +0.119 C 
ATOM     35  H   UNL     1      33.158 -16.610 -23.712  0.00  0.00    -0.079 HD
ENDBRANCH  28  30
ENDBRANCH  27  28
ENDBRANCH   1  27
TORSDOF 6
ENDMDL
MODEL 4
REMARK VINA RESULT:     -10.3      2.343     11.064
REMARK  Name = 24963046
REMARK  6 active torsions:
REMARK  status: ('A' for Active; 'I' for Inactive)
REMARK    1  A    between atoms: N_1  and  C_27
REMARK    2  A    between atoms: C_4  and  C_16
REMARK    3  A    between atoms: C_13  and  C_22
REMARK    4  A    between atoms: N_21  and  C_24
REMARK    5  A    between atoms: C_27  and  C_28
REMARK    6  A    between atoms: C_28  and  N_30
REMARK                            x       y       z     vdW  Elec       q    Type
REMARK                         _______ _______ _______ _____ _____    ______ ____
ROOT
ATOM      1  N   UNL     1      34.689 -19.427 -23.256  0.00  0.00    -0.270 N 
ATOM      2  N   UNL     1      34.602 -17.128 -22.926  0.00  0.00    -0.338 NA
ATOM      3  N   UNL     1      34.118 -18.106 -25.075  0.00  0.00    -0.170 NA
ATOM      4  C   UNL     1      33.921 -13.310 -24.454  0.00  0.00    -0.000 C 
ATOM      5  C   UNL     1      33.788 -14.422 -25.281  0.00  0.00    +0.004 C 
ATOM      6  C   UNL     1      34.018 -15.711 -24.770  0.00  0.00    +0.050 C 
ATOM      7  C   UNL     1      34.459 -18.165 -23.777  0.00  0.00    +0.145 C 
ATOM      8  C   UNL     1      34.279 -13.486 -23.121  0.00  0.00    +0.003 C 
ATOM      9  C   UNL     1      34.381 -15.900 -23.426  0.00  0.00    +0.146 C 
ATOM     10  C   UNL     1      34.505 -14.771 -22.621  0.00  0.00    +0.033 C 
ATOM     11  C   UNL     1      33.903 -16.861 -25.543  0.00  0.00    +0.114 C 
ATOM     12  H   UNL     1      34.591 -20.202 -23.855  0.00  0.00    +0.159 HD
ENDROOT
BRANCH   4  16
ATOM     13  C   UNL     1      33.113  -9.670 -24.575  0.00  0.00    +0.053 C 
ATOM     14  C   UNL     1      33.343 -10.959 -24.093  0.00  0.00    +0.004 C 
ATOM     15  C   UNL     1      33.227  -9.405 -25.938  0.00  0.00    +0.004 C 
ATOM     16  C   UNL     1      33.687 -11.983 -24.976  0.00  0.00    -0.004 C 
ATOM     17  C   UNL     1      33.801 -11.716 -26.341  0.00  0.00    -0.022 C 
ATOM     18  C   UNL     1      33.572 -10.427 -26.822  0.00  0.00    -0.004 C 
ATOM     19  C   UNL     1      34.168 -12.787 -27.318  0.00  0.00    +0.031 C 
BRANCH  13  22
ATOM     20  O   UNL     1      32.990  -7.415 -23.938  0.00  0.00    -0.270 OA
ATOM     21  N   UNL     1      32.158  -8.978 -22.444  0.00  0.00    -0.302 N 
ATOM     22  C   UNL     1      32.754  -8.603 -23.654  0.00  0.00    +0.246 C 
ATOM     23  H   UNL     1      31.997  -9.936 -22.279  0.00  0.00    +0.150 HD
BRANCH  21  24
ATOM     24  C   UNL     1      31.769  -8.037 -21.430  0.00  0.00    +0.072 C 
ATOM     25  C   UNL     1      31.725  -8.429 -19.982  0.00  0.00    +0.021 C 
ATOM     26  C   UNL     1      32.773  -7.471 -20.471  0.00  0.00    +0.021 C 
ENDBRANCH  21  24
ENDBRANCH  13  22
ENDBRANCH   4  16
BRANCH   1  27
ATOM     27  C   UNL     1      35.063 -19.672 -21.883  0.00  0.00    +0.075 C 
BRANCH  27  28
ATOM     28  C   UNL     1      33.846 -20.140 -21.096  0.00  0.00    -0.055 C 
BRANCH  28  30
ATOM     29  O   UNL     1      35.260 -22.961 -18.328  0.00  0.00    -0.358 OA
ATOM     30  N   UNL     1      34.261 -20.768 -19.843  0.00  0.00    +0.391 N 
ATOM     31  C   UNL     1      35.677 -21.159 -19.900  0.00  0.00    -0.045 C 
ATOM     32  C   UNL     1      33.426 -21.939 -19.544  0.00  0.00    -0.045 C 
ATOM     33  C   UNL     1      36.084 -21.822 -18.588  0.00  0.00    +0.119 C 
ATOM     34  C   UNL     1      33.886 -22.583 -18.239  0.00  0.00    +0.119 C 
ATOM     35  H   UNL     1      34.143 -20.082 -19.097  0.00  0.00    -0.079 HD
ENDBRANCH  28  30
ENDBRANCH  27  28
ENDBRANCH   1  27
TORSDOF 6
ENDMDL
MODEL 5
REMARK VINA RESULT:     -10.3      3.514      6.299
REMARK  Name = 24963046
REMARK  6 active torsions:
REMARK  status: ('A' for Active; 'I' for Inactive)
REMARK    1  A    between atoms: N_1  and  C_27
REMARK    2  A    between atoms: C_4  and  C_16
REMARK    3  A    between atoms: C_13  and  C_22
REMARK    4  A    between atoms: N_21  and  C_24
REMARK    5  A    between atoms: C_27  and  C_28
REMARK    6  A    between atoms: C_28  and  N_30
REMARK                            x       y       z     vdW  Elec       q    Type
REMARK                         _______ _______ _______ _____ _____    ______ ____
ROOT
ATOM      1  N   UNL     1      34.165 -19.215 -22.996  0.00  0.00    -0.270 N 
ATOM      2  N   UNL     1      35.256 -20.216 -21.204  0.00  0.00    -0.338 NA
ATOM      3  N   UNL     1      32.856 -20.293 -21.414  0.00  0.00    -0.170 NA
ATOM      4  C   UNL     1      35.067 -22.397 -17.657  0.00  0.00    -0.000 C 
ATOM      5  C   UNL     1      33.895 -22.081 -18.339  0.00  0.00    +0.004 C 
ATOM      6  C   UNL     1      33.955 -21.345 -19.536  0.00  0.00    +0.050 C 
ATOM      7  C   UNL     1      34.087 -19.941 -21.819  0.00  0.00    +0.145 C 
ATOM      8  C   UNL     1      36.292 -21.981 -18.168  0.00  0.00    +0.003 C 
ATOM      9  C   UNL     1      35.187 -20.920 -20.061  0.00  0.00    +0.146 C 
ATOM     10  C   UNL     1      36.342 -21.250 -19.358  0.00  0.00    +0.033 C 
ATOM     11  C   UNL     1      32.823 -20.997 -20.266  0.00  0.00    +0.114 C 
ATOM     12  H   UNL     1      33.327 -19.001 -23.466  0.00  0.00    +0.159 HD
ENDROOT
BRANCH   4  16
ATOM     13  C   UNL     1      33.687 -24.267 -14.739  0.00  0.00    +0.053 C 
ATOM     14  C   UNL     1      33.766 -23.538 -15.925  0.00  0.00    +0.004 C 
ATOM     15  C   UNL     1      34.851 -24.612 -14.054  0.00  0.00    +0.004 C 
ATOM     16  C   UNL     1      35.010 -23.152 -16.425  0.00  0.00    -0.004 C 
ATOM     17  C   UNL     1      36.174 -23.497 -15.739  0.00  0.00    -0.022 C 
ATOM     18  C   UNL     1      36.095 -24.228 -14.553  0.00  0.00    -0.004 C 
ATOM     19  C   UNL     1      37.526 -23.102 -16.244  0.00  0.00    +0.031 C 
BRANCH  13  22
ATOM     20  O   UNL     1      32.308 -25.351 -13.179  0.00  0.00    -0.270 OA
ATOM     21  N   UNL     1      31.260 -24.274 -14.944  0.00  0.00    -0.302 N 
ATOM     22  C   UNL     1      32.390 -24.670 -14.217  0.00  0.00    +0.246 C 
ATOM     23  H   UNL     1      31.393 -23.736 -15.758  0.00  0.00    +0.150 HD
BRANCH  21  24
ATOM     24  C   UNL     1      29.917 -24.615 -14.562  0.00  0.00    +0.072 C 
ATOM     25  C   UNL     1      28.787 -24.535 -15.545  0.00  0.00    +0.021 C 
ATOM     26  C   UNL     1      29.265 -25.871 -15.057  0.00  0.00    +0.021 C 
ENDBRANCH  21  24
ENDBRANCH  13  22
ENDBRANCH   4  16
BRANCH   1  27
ATOM     27  C   UNL     1      35.406 -18.757 -23.575  0.00  0.00    +0.075 C 
BRANCH  27  28
ATOM     28  C   UNL     1      35.686 -17.330 -23.121  0.00  0.00    -0.055 C 
BRANCH  28  30
ATOM     29  O   UNL     1      33.542 -14.006 -24.527  0.00  0.00    -0.358 OA
ATOM     30  N   UNL     1      34.584 -16.449 -23.502  0.00  0.00    +0.391 N 
ATOM     31  C   UNL     1      34.643 -16.131 -24.936  0.00  0.00    -0.045 C 
ATOM     32  C   UNL     1      34.605 -15.213 -22.709  0.00  0.00    -0.045 C 
ATOM     33  C   UNL     1      33.491 -15.202 -25.307  0.00  0.00    +0.119 C 
ATOM     34  C   UNL     1      33.452 -14.307 -23.133  0.00  0.00    +0.119 C 
ATOM     35  H   UNL     1      33.711 -16.943 -23.314  0.00  0.00    -0.079 HD
ENDBRANCH  28  30
ENDBRANCH  27  28
ENDBRANCH   1  27
TORSDOF 6
ENDMDL
MODEL 6
REMARK VINA RESULT:     -10.3      2.341     11.474
REMARK  Name = 24963046
REMARK  6 active torsions:
REMARK  status: ('A' for Active; 'I' for Inactive)
REMARK    1  A    between atoms: N_1  and  C_27
REMARK    2  A    between atoms: C_4  and  C_16
REMARK    3  A    between atoms: C_13  and  C_22
REMARK    4  A    between atoms: N_21  and  C_24
REMARK    5  A    between atoms: C_27  and  C_28
REMARK    6  A    between atoms: C_28  and  N_30
REMARK                            x       y       z     vdW  Elec       q    Type
REMARK                         _______ _______ _______ _____ _____    ______ ____
ROOT
ATOM      1  N   UNL     1      34.681 -23.659 -16.937  0.00  0.00    -0.270 N 
ATOM      2  N   UNL     1      33.767 -22.317 -18.599  0.00  0.00    -0.338 NA
ATOM      3  N   UNL     1      36.137 -22.329 -18.158  0.00  0.00    -0.170 NA
ATOM      4  C   UNL     1      34.296 -19.508 -21.634  0.00  0.00    -0.000 C 
ATOM      5  C   UNL     1      35.397 -19.972 -20.919  0.00  0.00    +0.004 C 
ATOM      6  C   UNL     1      35.222 -20.918 -19.895  0.00  0.00    +0.050 C 
ATOM      7  C   UNL     1      34.872 -22.726 -17.943  0.00  0.00    +0.145 C 
ATOM      8  C   UNL     1      33.028 -19.989 -21.328  0.00  0.00    +0.003 C 
ATOM      9  C   UNL     1      33.946 -21.411 -19.576  0.00  0.00    +0.146 C 
ATOM     10  C   UNL     1      32.863 -20.931 -20.308  0.00  0.00    +0.033 C 
ATOM     11  C   UNL     1      36.280 -21.421 -19.144  0.00  0.00    +0.114 C 
ATOM     12  H   UNL     1      35.471 -23.977 -16.442  0.00  0.00    +0.159 HD
ENDROOT
BRANCH   4  16
ATOM     13  C   UNL     1      34.593 -16.219 -23.368  0.00  0.00    +0.053 C 
ATOM     14  C   UNL     1      34.427 -17.177 -22.368  0.00  0.00    +0.004 C 
ATOM     15  C   UNL     1      34.804 -16.617 -24.687  0.00  0.00    +0.004 C 
ATOM     16  C   UNL     1      34.471 -18.533 -22.688  0.00  0.00    -0.004 C 
ATOM     17  C   UNL     1      34.682 -18.932 -24.008  0.00  0.00    -0.022 C 
ATOM     18  C   UNL     1      34.850 -17.974 -25.008  0.00  0.00    -0.004 C 
ATOM     19  C   UNL     1      34.737 -20.378 -24.389  0.00  0.00    +0.031 C 
BRANCH  13  22
ATOM     20  O   UNL     1      34.676 -14.424 -21.858  0.00  0.00    -0.270 OA
ATOM     21  N   UNL     1      34.333 -13.908 -24.090  0.00  0.00    -0.302 N 
ATOM     22  C   UNL     1      34.547 -14.803 -23.036  0.00  0.00    +0.246 C 
ATOM     23  H   UNL     1      34.238 -14.272 -25.001  0.00  0.00    +0.150 HD
BRANCH  21  24
ATOM     24  C   UNL     1      34.243 -12.485 -23.912  0.00  0.00    +0.072 C 
ATOM     25  C   UNL     1      33.885 -11.579 -25.053  0.00  0.00    +0.021 C 
ATOM     26  C   UNL     1      32.918 -11.783 -23.924  0.00  0.00    +0.021 C 
ENDBRANCH  21  24
ENDBRANCH  13  22
ENDBRANCH   4  16
BRANCH   1  27
ATOM     27  C   UNL     1      33.390 -24.194 -16.574  0.00  0.00    +0.075 C 
BRANCH  27  28
ATOM     28  C   UNL     1      32.878 -23.493 -15.322  0.00  0.00    -0.055 C 
BRANCH  28  30
ATOM     29  O   UNL     1      28.889 -24.480 -16.176  0.00  0.00    -0.358 OA
ATOM     30  N   UNL     1      31.418 -23.527 -15.282  0.00  0.00    +0.391 N 
ATOM     31  C   UNL     1      30.937 -24.871 -14.933  0.00  0.00    -0.045 C 
ATOM     32  C   UNL     1      30.850 -23.107 -16.571  0.00  0.00    -0.045 C 
ATOM     33  C   UNL     1      29.411 -24.885 -14.909  0.00  0.00    +0.119 C 
ATOM     34  C   UNL     1      29.326 -23.161 -16.507  0.00  0.00    +0.119 C 
ATOM     35  H   UNL     1      31.110 -22.874 -14.561  0.00  0.00    -0.079 HD
ENDBRANCH  28  30
ENDBRANCH  27  28
ENDBRANCH   1  27
TORSDOF 6
ENDMDL
MODEL 7
REMARK VINA RESULT:     -10.2      2.946      4.896
REMARK  Name = 24963046
REMARK  6 active torsions:
REMARK  status: ('A' for Active; 'I' for Inactive)
REMARK    1  A    between atoms: N_1  and  C_27
REMARK    2  A    between atoms: C_4  and  C_16
REMARK    3  A    between atoms: C_13  and  C_22
REMARK    4  A    between atoms: N_21  and  C_24
REMARK    5  A    between atoms: C_27  and  C_28
REMARK    6  A    between atoms: C_28  and  N_30
REMARK                            x       y       z     vdW  Elec       q    Type
REMARK                         _______ _______ _______ _____ _____    ______ ____
ROOT
ATOM      1  N   UNL     1      35.420 -17.591 -24.280  0.00  0.00    -0.270 N 
ATOM      2  N   UNL     1      34.111 -18.860 -22.838  0.00  0.00    -0.338 NA
ATOM      3  N   UNL     1      36.498 -18.693 -22.546  0.00  0.00    -0.170 NA
ATOM      4  C   UNL     1      33.829 -21.353 -19.509  0.00  0.00    -0.000 C 
ATOM      5  C   UNL     1      35.070 -20.863 -19.905  0.00  0.00    +0.004 C 
ATOM      6  C   UNL     1      35.169 -20.023 -21.027  0.00  0.00    +0.050 C 
ATOM      7  C   UNL     1      35.342 -18.419 -23.172  0.00  0.00    +0.145 C 
ATOM      8  C   UNL     1      32.692 -21.004 -20.231  0.00  0.00    +0.003 C 
ATOM      9  C   UNL     1      34.028 -19.664 -21.764  0.00  0.00    +0.146 C 
ATOM     10  C   UNL     1      32.799 -20.167 -21.345  0.00  0.00    +0.033 C 
ATOM     11  C   UNL     1      36.379 -19.500 -21.474  0.00  0.00    +0.114 C 
ATOM     12  H   UNL     1      36.306 -17.254 -24.545  0.00  0.00    +0.159 HD
ENDROOT
BRANCH   4  16
ATOM     13  C   UNL     1      32.332 -23.470 -16.827  0.00  0.00    +0.053 C 
ATOM     14  C   UNL     1      32.459 -22.634 -17.936  0.00  0.00    +0.004 C 
ATOM     15  C   UNL     1      33.468 -23.891 -16.137  0.00  0.00    +0.004 C 
ATOM     16  C   UNL     1      33.722 -22.219 -18.356  0.00  0.00    -0.004 C 
ATOM     17  C   UNL     1      34.859 -22.641 -17.666  0.00  0.00    -0.022 C 
ATOM     18  C   UNL     1      34.732 -23.477 -16.557  0.00  0.00    -0.004 C 
ATOM     19  C   UNL     1      36.231 -22.218 -18.087  0.00  0.00    +0.031 C 
BRANCH  13  22
ATOM     20  O   UNL     1      30.893 -24.741 -15.477  0.00  0.00    -0.270 OA
ATOM     21  N   UNL     1      29.910 -23.351 -17.049  0.00  0.00    -0.302 N 
ATOM     22  C   UNL     1      31.014 -23.903 -16.388  0.00  0.00    +0.246 C 
ATOM     23  H   UNL     1      30.073 -22.692 -17.763  0.00  0.00    +0.150 HD
BRANCH  21  24
ATOM     24  C   UNL     1      28.550 -23.698 -16.739  0.00  0.00    +0.072 C 
ATOM     25  C   UNL     1      27.713 -22.836 -15.841  0.00  0.00    +0.021 C 
ATOM     26  C   UNL     1      27.402 -22.919 -17.307  0.00  0.00    +0.021 C 
ENDBRANCH  21  24
ENDBRANCH  13  22
ENDBRANCH   4  16
BRANCH   1  27
ATOM     27  C   UNL     1      34.277 -17.195 -25.067  0.00  0.00    +0.075 C 
BRANCH  27  28
ATOM     28  C   UNL     1      34.207 -15.675 -25.139  0.00  0.00    -0.055 C 
BRANCH  28  30
ATOM     29  O   UNL     1      33.265 -13.162 -21.911  0.00  0.00    -0.358 OA
ATOM     30  N   UNL     1      33.571 -15.138 -23.937  0.00  0.00    +0.391 N 
ATOM     31  C   UNL     1      32.937 -13.841 -24.218  0.00  0.00    -0.045 C 
ATOM     32  C   UNL     1      34.547 -14.997 -22.848  0.00  0.00    -0.045 C 
ATOM     33  C   UNL     1      32.291 -13.296 -22.948  0.00  0.00    +0.119 C 
ATOM     34  C   UNL     1      33.862 -14.425 -21.610  0.00  0.00    +0.119 C 
ATOM     35  H   UNL     1      32.848 -15.797 -23.646  0.00  0.00    -0.079 HD
ENDBRANCH  28  30
ENDBRANCH  27  28
ENDBRANCH   1  27
TORSDOF 6
ENDMDL
MODEL 8
REMARK VINA RESULT:     -10.0      2.450     11.641
REMARK  Name = 24963046
REMARK  6 active torsions:
REMARK  status: ('A' for Active; 'I' for Inactive)
REMARK    1  A    between atoms: N_1  and  C_27
REMARK    2  A    between atoms: C_4  and  C_16
REMARK    3  A    between atoms: C_13  and  C_22
REMARK    4  A    between atoms: N_21  and  C_24
REMARK    5  A    between atoms: C_27  and  C_28
REMARK    6  A    between atoms: C_28  and  N_30
REMARK                            x       y       z     vdW  Elec       q    Type
REMARK                         _______ _______ _______ _____ _____    ______ ____
ROOT
ATOM      1  N   UNL     1      35.402 -18.436 -23.865  0.00  0.00    -0.270 N 
ATOM      2  N   UNL     1      34.749 -16.500 -22.756  0.00  0.00    -0.338 NA
ATOM      3  N   UNL     1      34.526 -16.712 -25.147  0.00  0.00    -0.170 NA
ATOM      4  C   UNL     1      33.149 -12.654 -22.898  0.00  0.00    -0.000 C 
ATOM      5  C   UNL     1      33.297 -13.386 -24.072  0.00  0.00    +0.004 C 
ATOM      6  C   UNL     1      33.837 -14.683 -24.028  0.00  0.00    +0.050 C 
ATOM      7  C   UNL     1      34.869 -17.159 -23.927  0.00  0.00    +0.145 C 
ATOM      8  C   UNL     1      33.537 -13.215 -21.686  0.00  0.00    +0.003 C 
ATOM      9  C   UNL     1      34.233 -15.260 -22.810  0.00  0.00    +0.146 C 
ATOM     10  C   UNL     1      34.072 -14.506 -21.651  0.00  0.00    +0.033 C 
ATOM     11  C   UNL     1      34.011 -15.467 -25.164  0.00  0.00    +0.114 C 
ATOM     12  H   UNL     1      35.499 -18.940 -24.706  0.00  0.00    +0.159 HD
ENDROOT
BRANCH   4  16
ATOM     13  C   UNL     1      32.589  -9.108 -23.913  0.00  0.00    +0.053 C 
ATOM     14  C   UNL     1      33.108 -10.401 -23.855  0.00  0.00    +0.004 C 
ATOM     15  C   UNL     1      31.558  -8.732 -23.053  0.00  0.00    +0.004 C 
ATOM     16  C   UNL     1      32.596 -11.318 -22.938  0.00  0.00    -0.004 C 
ATOM     17  C   UNL     1      31.563 -10.941 -22.078  0.00  0.00    -0.022 C 
ATOM     18  C   UNL     1      31.044  -9.648 -22.136  0.00  0.00    -0.004 C 
ATOM     19  C   UNL     1      30.988 -11.897 -21.082  0.00  0.00    +0.031 C 
BRANCH  13  22
ATOM     20  O   UNL     1      34.001  -8.490 -25.682  0.00  0.00    -0.270 OA
ATOM     21  N   UNL     1      32.620  -6.846 -24.813  0.00  0.00    -0.302 N 
ATOM     22  C   UNL     1      33.123  -8.151 -24.869  0.00  0.00    +0.246 C 
ATOM     23  H   UNL     1      31.925  -6.641 -24.145  0.00  0.00    +0.150 HD
BRANCH  21  24
ATOM     24  C   UNL     1      33.066  -5.789 -25.679  0.00  0.00    +0.072 C 
ATOM     25  C   UNL     1      33.160  -4.373 -25.193  0.00  0.00    +0.021 C 
ATOM     26  C   UNL     1      34.409  -5.149 -25.494  0.00  0.00    +0.021 C 
ENDBRANCH  21  24
ENDBRANCH  13  22
ENDBRANCH   4  16
BRANCH   1  27
ATOM     27  C   UNL     1      35.822 -19.070 -22.638  0.00  0.00    +0.075 C 
BRANCH  27  28
ATOM     28  C   UNL     1      34.598 -19.489 -21.833  0.00  0.00    -0.055 C 
BRANCH  28  30
ATOM     29  O   UNL     1      35.278 -22.052 -18.580  0.00  0.00    -0.358 OA
ATOM     30  N   UNL     1      34.892 -20.685 -21.046  0.00  0.00    +0.391 N 
ATOM     31  C   UNL     1      33.761 -21.024 -20.171  0.00  0.00    -0.045 C 
ATOM     32  C   UNL     1      36.110 -20.497 -20.246  0.00  0.00    -0.045 C 
ATOM     33  C   UNL     1      34.095 -22.267 -19.352  0.00  0.00    +0.119 C 
ATOM     34  C   UNL     1      36.389 -21.754 -19.426  0.00  0.00    +0.119 C 
ATOM     35  H   UNL     1      35.043 -21.457 -21.697  0.00  0.00    -0.079 HD
ENDBRANCH  28  30
ENDBRANCH  27  28
ENDBRANCH   1  27
TORSDOF 6
ENDMDL
MODEL 9
REMARK VINA RESULT:      -9.9      2.840      4.389
REMARK  Name = 24963046
REMARK  6 active torsions:
REMARK  status: ('A' for Active; 'I' for Inactive)
REMARK    1  A    between atoms: N_1  and  C_27
REMARK    2  A    between atoms: C_4  and  C_16
REMARK    3  A    between atoms: C_13  and  C_22
REMARK    4  A    between atoms: N_21  and  C_24
REMARK    5  A    between atoms: C_27  and  C_28
REMARK    6  A    between atoms: C_28  and  N_30
REMARK                            x       y       z     vdW  Elec       q    Type
REMARK                         _______ _______ _______ _____ _____    ______ ____
ROOT
ATOM      1  N   UNL     1      33.409 -10.055 -25.050  0.00  0.00    -0.270 N 
ATOM      2  N   UNL     1      33.857 -11.872 -23.672  0.00  0.00    -0.338 NA
ATOM      3  N   UNL     1      33.567 -12.142 -26.050  0.00  0.00    -0.170 NA
ATOM      4  C   UNL     1      34.497 -15.967 -23.235  0.00  0.00    -0.000 C 
ATOM      5  C   UNL     1      34.248 -15.436 -24.497  0.00  0.00    +0.004 C 
ATOM      6  C   UNL     1      34.031 -14.055 -24.648  0.00  0.00    +0.050 C 
ATOM      7  C   UNL     1      33.620 -11.417 -24.920  0.00  0.00    +0.145 C 
ATOM      8  C   UNL     1      34.530 -15.124 -22.130  0.00  0.00    +0.003 C 
ATOM      9  C   UNL     1      34.062 -13.194 -23.539  0.00  0.00    +0.146 C 
ATOM     10  C   UNL     1      34.314 -13.752 -22.289  0.00  0.00    +0.033 C 
ATOM     11  C   UNL     1      33.778 -13.462 -25.881  0.00  0.00    +0.114 C 
ATOM     12  H   UNL     1      33.235  -9.695 -25.951  0.00  0.00    +0.159 HD
ENDROOT
BRANCH   4  16
ATOM     13  C   UNL     1      35.696 -19.201 -21.812  0.00  0.00    +0.053 C 
ATOM     14  C   UNL     1      35.469 -17.836 -21.987  0.00  0.00    +0.004 C 
ATOM     15  C   UNL     1      35.173 -20.117 -22.723  0.00  0.00    +0.004 C 
ATOM     16  C   UNL     1      34.719 -17.387 -23.074  0.00  0.00    -0.004 C 
ATOM     17  C   UNL     1      34.195 -18.305 -23.986  0.00  0.00    -0.022 C 
ATOM     18  C   UNL     1      34.422 -19.670 -23.810  0.00  0.00    -0.004 C 
ATOM     19  C   UNL     1      33.386 -17.862 -25.163  0.00  0.00    +0.031 C 
BRANCH  13  22
ATOM     20  O   UNL     1      37.434 -18.999 -20.248  0.00  0.00    -0.270 OA
ATOM     21  N   UNL     1      36.118 -20.902 -20.122  0.00  0.00    -0.302 N 
ATOM     22  C   UNL     1      36.478 -19.669 -20.679  0.00  0.00    +0.246 C 
ATOM     23  H   UNL     1      35.351 -21.384 -20.510  0.00  0.00    +0.150 HD
BRANCH  21  24
ATOM     24  C   UNL     1      36.810 -21.501 -19.014  0.00  0.00    +0.072 C 
ATOM     25  C   UNL     1      36.835 -20.844 -17.666  0.00  0.00    +0.021 C 
ATOM     26  C   UNL     1      36.060 -22.113 -17.869  0.00  0.00    +0.021 C 
ENDBRANCH  21  24
ENDBRANCH  13  22
ENDBRANCH   4  16
BRANCH   1  27
ATOM     27  C   UNL     1      33.431  -9.130 -23.942  0.00  0.00    +0.075 C 
BRANCH  27  28
ATOM     28  C   UNL     1      32.022  -8.963 -23.386  0.00  0.00    -0.055 C 
BRANCH  28  30
ATOM     29  O   UNL     1      30.481 -10.290 -19.715  0.00  0.00    -0.358 OA
ATOM     30  N   UNL     1      31.911  -9.607 -22.079  0.00  0.00    +0.391 N 
ATOM     31  C   UNL     1      30.852 -10.627 -22.089  0.00  0.00    -0.045 C 
ATOM     32  C   UNL     1      31.646  -8.615 -21.028  0.00  0.00    -0.045 C 
ATOM     33  C   UNL     1      30.747 -11.277 -20.713  0.00  0.00    +0.119 C 
ATOM     34  C   UNL     1      31.523  -9.313 -19.677  0.00  0.00    +0.119 C 
ATOM     35  H   UNL     1      32.801 -10.065 -21.880  0.00  0.00    -0.079 HD
ENDBRANCH  28  30
ENDBRANCH  27  28
ENDBRANCH   1  27
TORSDOF 6
ENDMDL
