MODEL 1
REMARK VINA RESULT:     -13.1      0.000      0.000
REMARK  Name = 16741238
REMARK  6 active torsions:
REMARK  status: ('A' for Active; 'I' for Inactive)
REMARK    1  A    between atoms: N_1  and  C_22
REMARK    2  A    between atoms: C_10  and  C_15
REMARK    3  A    between atoms: C_15  and  C_16
REMARK    4  A    between atoms: C_22  and  C_23
REMARK    5  A    between atoms: C_23  and  C_26
REMARK    6  A    between atoms: N_25  and  C_28
REMARK                            x       y       z     vdW  Elec       q    Type
REMARK                         _______ _______ _______ _____ _____    ______ ____
ROOT
ATOM      1  N   UNL     1      33.633 -13.875 -23.945  0.00  0.00    -0.249 N 
ATOM      2  N   UNL     1      33.712 -15.716 -25.491  0.00  0.00    -0.373 NA
ATOM      3  N   UNL     1      32.828 -13.683 -26.152  0.00  0.00    -0.321 N 
ATOM      4  C   UNL     1      34.249 -14.619 -22.845  0.00  0.00    +0.071 C 
ATOM      5  C   UNL     1      34.580 -16.038 -23.217  0.00  0.00    +0.045 C 
ATOM      6  C   UNL     1      33.410 -14.477 -25.188  0.00  0.00    +0.239 C 
ATOM      7  C   UNL     1      34.303 -16.520 -24.503  0.00  0.00    +0.136 C 
ATOM      8  C   UNL     1      35.172 -16.884 -22.268  0.00  0.00    +0.007 C 
ATOM      9  C   UNL     1      34.623 -17.846 -24.821  0.00  0.00    +0.032 C 
ATOM     10  C   UNL     1      35.486 -18.202 -22.595  0.00  0.00    +0.039 C 
ATOM     11  C   UNL     1      35.212 -18.684 -23.873  0.00  0.00    +0.006 C 
ATOM     12  H   UNL     1      32.595 -12.749 -25.946  0.00  0.00    +0.146 HD
ATOM     13  H   UNL     1      32.647 -14.051 -27.047  0.00  0.00    +0.146 HD
ENDROOT
BRANCH  10  15
ATOM     14  O   UNL     1      37.310 -18.979 -21.354  0.00  0.00    -0.287 OA
ATOM     15  C   UNL     1      36.099 -19.073 -21.606  0.00  0.00    +0.196 C 
BRANCH  15  16
ATOM     16  C   UNL     1      35.320 -20.103 -20.854  0.00  0.00    +0.039 C 
ATOM     17  C   UNL     1      35.986 -21.065 -20.095  0.00  0.00    +0.003 C 
ATOM     18  C   UNL     1      33.926 -20.101 -20.909  0.00  0.00    +0.003 C 
ATOM     19  C   UNL     1      35.259 -22.025 -19.392  0.00  0.00    +0.000 C 
ATOM     20  C   UNL     1      33.198 -21.062 -20.207  0.00  0.00    +0.000 C 
ATOM     21  C   UNL     1      33.865 -22.024 -19.448  0.00  0.00    +0.000 C 
ENDBRANCH  15  16
ENDBRANCH  10  15
BRANCH   1  22
ATOM     22  C   UNL     1      33.286 -12.491 -23.639  0.00  0.00    +0.109 C 
BRANCH  22  23
ATOM     23  C   UNL     1      34.212 -11.532 -24.382  0.00  0.00    +0.107 C 
BRANCH  23  26
ATOM     24  O   UNL     1      33.023  -9.666 -23.450  0.00  0.00    -0.275 OA
ATOM     25  N   UNL     1      34.147  -9.288 -25.442  0.00  0.00    -0.279 N 
ATOM     26  C   UNL     1      33.733 -10.084 -24.369  0.00  0.00    +0.227 C 
ATOM     27  C   UNL     1      34.988  -9.803 -26.521  0.00  0.00    +0.115 C 
BRANCH  25  28
ATOM     28  C   UNL     1      33.775  -7.899 -25.565  0.00  0.00    +0.075 C 
ATOM     29  C   UNL     1      34.598  -7.037 -24.605  0.00  0.00    +0.020 C 
ATOM     30  C   UNL     1      32.273  -7.717 -25.329  0.00  0.00    +0.020 C 
ATOM     31  C   UNL     1      34.189  -5.568 -24.675  0.00  0.00    +0.002 C 
ATOM     32  C   UNL     1      31.867  -6.247 -25.400  0.00  0.00    +0.002 C 
ATOM     33  C   UNL     1      32.691  -5.390 -24.444  0.00  0.00    +0.000 C 
ENDBRANCH  25  28
ENDBRANCH  23  26
ENDBRANCH  22  23
ENDBRANCH   1  22
TORSDOF 6
ENDMDL
MODEL 2
REMARK VINA RESULT:     -12.9      1.507      2.038
REMARK  Name = 16741238
REMARK  6 active torsions:
REMARK  status: ('A' for Active; 'I' for Inactive)
REMARK    1  A    between atoms: N_1  and  C_22
REMARK    2  A    between atoms: C_10  and  C_15
REMARK    3  A    between atoms: C_15  and  C_16
REMARK    4  A    between atoms: C_22  and  C_23
REMARK    5  A    between atoms: C_23  and  C_26
REMARK    6  A    between atoms: N_25  and  C_28
REMARK                            x       y       z     vdW  Elec       q    Type
REMARK                         _______ _______ _______ _____ _____    ______ ____
ROOT
ATOM      1  N   UNL     1      34.154 -13.929 -24.401  0.00  0.00    -0.249 N 
ATOM      2  N   UNL     1      33.551 -15.905 -25.632  0.00  0.00    -0.373 NA
ATOM      3  N   UNL     1      33.080 -13.812 -26.496  0.00  0.00    -0.321 N 
ATOM      4  C   UNL     1      34.743 -14.664 -23.280  0.00  0.00    +0.071 C 
ATOM      5  C   UNL     1      34.667 -16.154 -23.459  0.00  0.00    +0.045 C 
ATOM      6  C   UNL     1      33.602 -14.602 -25.496  0.00  0.00    +0.239 C 
ATOM      7  C   UNL     1      34.084 -16.705 -24.609  0.00  0.00    +0.136 C 
ATOM      8  C   UNL     1      35.184 -17.000 -22.467  0.00  0.00    +0.007 C 
ATOM      9  C   UNL     1      34.028 -18.097 -24.749  0.00  0.00    +0.032 C 
ATOM     10  C   UNL     1      35.123 -18.385 -22.616  0.00  0.00    +0.039 C 
ATOM     11  C   UNL     1      34.545 -18.934 -23.758  0.00  0.00    +0.006 C 
ATOM     12  H   UNL     1      33.109 -12.831 -26.414  0.00  0.00    +0.146 HD
ATOM     13  H   UNL     1      32.677 -14.228 -27.292  0.00  0.00    +0.146 HD
ENDROOT
BRANCH  10  15
ATOM     14  O   UNL     1      36.863 -19.200 -21.283  0.00  0.00    -0.287 OA
ATOM     15  C   UNL     1      35.661 -19.254 -21.583  0.00  0.00    +0.196 C 
BRANCH  15  16
ATOM     16  C   UNL     1      34.814 -20.236 -20.841  0.00  0.00    +0.039 C 
ATOM     17  C   UNL     1      35.411 -21.267 -20.118  0.00  0.00    +0.003 C 
ATOM     18  C   UNL     1      33.423 -20.121 -20.872  0.00  0.00    +0.003 C 
ATOM     19  C   UNL     1      34.620 -22.183 -19.425  0.00  0.00    +0.000 C 
ATOM     20  C   UNL     1      32.632 -21.036 -20.179  0.00  0.00    +0.000 C 
ATOM     21  C   UNL     1      33.231 -22.068 -19.455  0.00  0.00    +0.000 C 
ENDBRANCH  15  16
ENDBRANCH  10  15
BRANCH   1  22
ATOM     22  C   UNL     1      34.196 -12.475 -24.279  0.00  0.00    +0.109 C 
BRANCH  22  23
ATOM     23  C   UNL     1      32.977 -11.968 -23.513  0.00  0.00    +0.107 C 
BRANCH  23  26
ATOM     24  O   UNL     1      33.466  -9.766 -24.337  0.00  0.00    -0.275 OA
ATOM     25  N   UNL     1      31.948  -9.906 -22.590  0.00  0.00    -0.279 N 
ATOM     26  C   UNL     1      32.831 -10.450 -23.530  0.00  0.00    +0.227 C 
ATOM     27  C   UNL     1      31.205 -10.734 -21.642  0.00  0.00    +0.115 C 
BRANCH  25  28
ATOM     28  C   UNL     1      31.705  -8.487 -22.488  0.00  0.00    +0.075 C 
ATOM     29  C   UNL     1      31.039  -7.964 -23.762  0.00  0.00    +0.020 C 
ATOM     30  C   UNL     1      33.004  -7.735 -22.188  0.00  0.00    +0.020 C 
ATOM     31  C   UNL     1      30.818  -6.454 -23.704  0.00  0.00    +0.002 C 
ATOM     32  C   UNL     1      32.779  -6.226 -22.129  0.00  0.00    +0.002 C 
ATOM     33  C   UNL     1      32.114  -5.707 -23.401  0.00  0.00    +0.000 C 
ENDBRANCH  25  28
ENDBRANCH  23  26
ENDBRANCH  22  23
ENDBRANCH   1  22
TORSDOF 6
ENDMDL
MODEL 3
REMARK VINA RESULT:     -12.1      6.456     11.143
REMARK  Name = 16741238
REMARK  6 active torsions:
REMARK  status: ('A' for Active; 'I' for Inactive)
REMARK    1  A    between atoms: N_1  and  C_22
REMARK    2  A    between atoms: C_10  and  C_15
REMARK    3  A    between atoms: C_15  and  C_16
REMARK    4  A    between atoms: C_22  and  C_23
REMARK    5  A    between atoms: C_23  and  C_26
REMARK    6  A    between atoms: N_25  and  C_28
REMARK                            x       y       z     vdW  Elec       q    Type
REMARK                         _______ _______ _______ _____ _____    ______ ____
ROOT
ATOM      1  N   UNL     1      35.984 -22.647 -17.093  0.00  0.00    -0.249 N 
ATOM      2  N   UNL     1      36.362 -23.690 -14.959  0.00  0.00    -0.373 NA
ATOM      3  N   UNL     1      38.156 -23.034 -16.262  0.00  0.00    -0.321 N 
ATOM      4  C   UNL     1      34.525 -22.705 -16.994  0.00  0.00    +0.071 C 
ATOM      5  C   UNL     1      34.053 -23.341 -15.717  0.00  0.00    +0.045 C 
ATOM      6  C   UNL     1      36.796 -23.142 -16.068  0.00  0.00    +0.239 C 
ATOM      7  C   UNL     1      34.975 -23.800 -14.767  0.00  0.00    +0.136 C 
ATOM      8  C   UNL     1      32.678 -23.476 -15.475  0.00  0.00    +0.007 C 
ATOM      9  C   UNL     1      34.506 -24.388 -13.585  0.00  0.00    +0.032 C 
ATOM     10  C   UNL     1      32.222 -24.063 -14.295  0.00  0.00    +0.039 C 
ATOM     11  C   UNL     1      33.137 -24.519 -13.350  0.00  0.00    +0.006 C 
ATOM     12  H   UNL     1      38.504 -22.624 -17.088  0.00  0.00    +0.146 HD
ATOM     13  H   UNL     1      38.779 -23.365 -15.576  0.00  0.00    +0.146 HD
ENDROOT
BRANCH  10  15
ATOM     14  O   UNL     1      30.379 -24.507 -12.926  0.00  0.00    -0.287 OA
ATOM     15  C   UNL     1      30.796 -24.199 -14.053  0.00  0.00    +0.196 C 
BRANCH  15  16
ATOM     16  C   UNL     1      29.777 -23.977 -15.123  0.00  0.00    +0.039 C 
ATOM     17  C   UNL     1      29.316 -25.053 -15.881  0.00  0.00    +0.003 C 
ATOM     18  C   UNL     1      29.285 -22.694 -15.363  0.00  0.00    +0.003 C 
ATOM     19  C   UNL     1      28.364 -24.846 -16.879  0.00  0.00    +0.000 C 
ATOM     20  C   UNL     1      28.333 -22.487 -16.361  0.00  0.00    +0.000 C 
ATOM     21  C   UNL     1      27.873 -23.563 -17.120  0.00  0.00    +0.000 C 
ENDBRANCH  15  16
ENDBRANCH  10  15
BRANCH   1  22
ATOM     22  C   UNL     1      36.499 -22.041 -18.316  0.00  0.00    +0.109 C 
BRANCH  22  23
ATOM     23  C   UNL     1      35.351 -21.561 -19.198  0.00  0.00    +0.107 C 
BRANCH  23  26
ATOM     24  O   UNL     1      36.993 -20.441 -20.546  0.00  0.00    -0.275 OA
ATOM     25  N   UNL     1      34.773 -20.107 -21.126  0.00  0.00    -0.279 N 
ATOM     26  C   UNL     1      35.795 -20.656 -20.344  0.00  0.00    +0.227 C 
ATOM     27  C   UNL     1      33.359 -20.374 -20.869  0.00  0.00    +0.115 C 
BRANCH  25  28
ATOM     28  C   UNL     1      35.039 -19.234 -22.245  0.00  0.00    +0.075 C 
ATOM     29  C   UNL     1      35.115 -17.778 -21.783  0.00  0.00    +0.020 C 
ATOM     30  C   UNL     1      33.982 -19.418 -23.338  0.00  0.00    +0.020 C 
ATOM     31  C   UNL     1      35.342 -16.826 -22.954  0.00  0.00    +0.002 C 
ATOM     32  C   UNL     1      34.213 -18.465 -24.509  0.00  0.00    +0.002 C 
ATOM     33  C   UNL     1      34.291 -17.014 -24.044  0.00  0.00    +0.000 C 
ENDBRANCH  25  28
ENDBRANCH  23  26
ENDBRANCH  22  23
ENDBRANCH   1  22
TORSDOF 6
ENDMDL
MODEL 4
REMARK VINA RESULT:     -11.9      1.294      1.985
REMARK  Name = 16741238
REMARK  6 active torsions:
REMARK  status: ('A' for Active; 'I' for Inactive)
REMARK    1  A    between atoms: N_1  and  C_22
REMARK    2  A    between atoms: C_10  and  C_15
REMARK    3  A    between atoms: C_15  and  C_16
REMARK    4  A    between atoms: C_22  and  C_23
REMARK    5  A    between atoms: C_23  and  C_26
REMARK    6  A    between atoms: N_25  and  C_28
REMARK                            x       y       z     vdW  Elec       q    Type
REMARK                         _______ _______ _______ _____ _____    ______ ____
ROOT
ATOM      1  N   UNL     1      33.584 -13.272 -24.691  0.00  0.00    -0.249 N 
ATOM      2  N   UNL     1      33.453 -13.334 -22.290  0.00  0.00    -0.373 NA
ATOM      3  N   UNL     1      32.710 -11.473 -23.444  0.00  0.00    -0.321 N 
ATOM      4  C   UNL     1      34.175 -14.606 -24.811  0.00  0.00    +0.071 C 
ATOM      5  C   UNL     1      34.386 -15.270 -23.479  0.00  0.00    +0.045 C 
ATOM      6  C   UNL     1      33.265 -12.734 -23.440  0.00  0.00    +0.239 C 
ATOM      7  C   UNL     1      34.022 -14.618 -22.292  0.00  0.00    +0.136 C 
ATOM      8  C   UNL     1      34.949 -16.553 -23.424  0.00  0.00    +0.007 C 
ATOM      9  C   UNL     1      34.228 -15.262 -21.066  0.00  0.00    +0.032 C 
ATOM     10  C   UNL     1      35.151 -17.184 -22.197  0.00  0.00    +0.039 C 
ATOM     11  C   UNL     1      34.790 -16.538 -21.017  0.00  0.00    +0.006 C 
ATOM     12  H   UNL     1      32.558 -11.004 -24.297  0.00  0.00    +0.146 HD
ATOM     13  H   UNL     1      32.464 -11.041 -22.594  0.00  0.00    +0.146 HD
ENDROOT
BRANCH  10  15
ATOM     14  O   UNL     1      36.747 -18.777 -22.819  0.00  0.00    -0.287 OA
ATOM     15  C   UNL     1      35.737 -18.514 -22.149  0.00  0.00    +0.196 C 
BRANCH  15  16
ATOM     16  C   UNL     1      35.167 -19.610 -21.309  0.00  0.00    +0.039 C 
ATOM     17  C   UNL     1      36.016 -20.454 -20.594  0.00  0.00    +0.003 C 
ATOM     18  C   UNL     1      33.785 -19.788 -21.238  0.00  0.00    +0.003 C 
ATOM     19  C   UNL     1      35.485 -21.477 -19.809  0.00  0.00    +0.000 C 
ATOM     20  C   UNL     1      33.253 -20.811 -20.453  0.00  0.00    +0.000 C 
ATOM     21  C   UNL     1      34.103 -21.656 -19.738  0.00  0.00    +0.000 C 
ENDBRANCH  15  16
ENDBRANCH  10  15
BRANCH   1  22
ATOM     22  C   UNL     1      33.361 -12.577 -25.955  0.00  0.00    +0.109 C 
BRANCH  22  23
ATOM     23  C   UNL     1      34.317 -11.395 -26.090  0.00  0.00    +0.107 C 
BRANCH  23  26
ATOM     24  O   UNL     1      32.628  -9.892 -26.901  0.00  0.00    -0.275 OA
ATOM     25  N   UNL     1      34.148  -9.022 -25.382  0.00  0.00    -0.279 N 
ATOM     26  C   UNL     1      33.612 -10.044 -26.172  0.00  0.00    +0.227 C 
ATOM     27  C   UNL     1      35.315  -9.223 -24.526  0.00  0.00    +0.115 C 
BRANCH  25  28
ATOM     28  C   UNL     1      33.588  -7.691 -25.353  0.00  0.00    +0.075 C 
ATOM     29  C   UNL     1      34.678  -6.658 -25.059  0.00  0.00    +0.020 C 
ATOM     30  C   UNL     1      32.448  -7.605 -24.335  0.00  0.00    +0.020 C 
ATOM     31  C   UNL     1      34.105  -5.245 -24.971  0.00  0.00    +0.002 C 
ATOM     32  C   UNL     1      31.878  -6.191 -24.249  0.00  0.00    +0.002 C 
ATOM     33  C   UNL     1      32.967  -5.163 -23.958  0.00  0.00    +0.000 C 
ENDBRANCH  25  28
ENDBRANCH  23  26
ENDBRANCH  22  23
ENDBRANCH   1  22
TORSDOF 6
ENDMDL
MODEL 5
REMARK VINA RESULT:     -11.6      1.835     10.892
REMARK  Name = 16741238
REMARK  6 active torsions:
REMARK  status: ('A' for Active; 'I' for Inactive)
REMARK    1  A    between atoms: N_1  and  C_22
REMARK    2  A    between atoms: C_10  and  C_15
REMARK    3  A    between atoms: C_15  and  C_16
REMARK    4  A    between atoms: C_22  and  C_23
REMARK    5  A    between atoms: C_23  and  C_26
REMARK    6  A    between atoms: N_25  and  C_28
REMARK                            x       y       z     vdW  Elec       q    Type
REMARK                         _______ _______ _______ _____ _____    ______ ____
ROOT
ATOM      1  N   UNL     1      34.225 -15.063 -23.814  0.00  0.00    -0.249 N 
ATOM      2  N   UNL     1      33.500 -14.658 -26.072  0.00  0.00    -0.373 NA
ATOM      3  N   UNL     1      33.698 -16.825 -25.288  0.00  0.00    -0.321 N 
ATOM      4  C   UNL     1      34.368 -13.644 -23.481  0.00  0.00    +0.071 C 
ATOM      5  C   UNL     1      34.022 -12.740 -24.630  0.00  0.00    +0.045 C 
ATOM      6  C   UNL     1      33.801 -15.466 -25.084  0.00  0.00    +0.239 C 
ATOM      7  C   UNL     1      33.609 -13.274 -25.858  0.00  0.00    +0.136 C 
ATOM      8  C   UNL     1      34.113 -11.349 -24.471  0.00  0.00    +0.007 C 
ATOM      9  C   UNL     1      33.292 -12.407 -26.911  0.00  0.00    +0.032 C 
ATOM     10  C   UNL     1      33.795 -10.495 -25.527  0.00  0.00    +0.039 C 
ATOM     11  C   UNL     1      33.384 -11.024 -26.747  0.00  0.00    +0.006 C 
ATOM     12  H   UNL     1      33.918 -17.450 -24.560  0.00  0.00    +0.146 HD
ATOM     13  H   UNL     1      33.405 -17.171 -26.162  0.00  0.00    +0.146 HD
ENDROOT
BRANCH  10  15
ATOM     14  O   UNL     1      34.890  -8.442 -25.765  0.00  0.00    -0.287 OA
ATOM     15  C   UNL     1      33.893  -9.055 -25.353  0.00  0.00    +0.196 C 
BRANCH  15  16
ATOM     16  C   UNL     1      32.822  -8.254 -24.688  0.00  0.00    +0.039 C 
ATOM     17  C   UNL     1      32.673  -8.304 -23.302  0.00  0.00    +0.003 C 
ATOM     18  C   UNL     1      31.971  -7.455 -25.452  0.00  0.00    +0.003 C 
ATOM     19  C   UNL     1      31.673  -7.556 -22.681  0.00  0.00    +0.000 C 
ATOM     20  C   UNL     1      30.972  -6.707 -24.831  0.00  0.00    +0.000 C 
ATOM     21  C   UNL     1      30.823  -6.757 -23.445  0.00  0.00    +0.000 C 
ENDBRANCH  15  16
ENDBRANCH  10  15
BRANCH   1  22
ATOM     22  C   UNL     1      34.552 -15.989 -22.735  0.00  0.00    +0.109 C 
BRANCH  22  23
ATOM     23  C   UNL     1      35.315 -17.194 -23.279  0.00  0.00    +0.107 C 
BRANCH  23  26
ATOM     24  O   UNL     1      33.775 -19.032 -23.417  0.00  0.00    -0.275 OA
ATOM     25  N   UNL     1      35.374 -19.142 -21.741  0.00  0.00    -0.279 N 
ATOM     26  C   UNL     1      34.741 -18.535 -22.831  0.00  0.00    +0.227 C 
ATOM     27  C   UNL     1      36.516 -18.536 -21.060  0.00  0.00    +0.115 C 
BRANCH  25  28
ATOM     28  C   UNL     1      34.945 -20.412 -21.206  0.00  0.00    +0.075 C 
ATOM     29  C   UNL     1      33.521 -20.309 -20.655  0.00  0.00    +0.020 C 
ATOM     30  C   UNL     1      35.922 -20.908 -20.136  0.00  0.00    +0.020 C 
ATOM     31  C   UNL     1      33.059 -21.625 -20.035  0.00  0.00    +0.002 C 
ATOM     32  C   UNL     1      35.458 -22.224 -19.517  0.00  0.00    +0.002 C 
ATOM     33  C   UNL     1      34.037 -22.119 -18.972  0.00  0.00    +0.000 C 
ENDBRANCH  25  28
ENDBRANCH  23  26
ENDBRANCH  22  23
ENDBRANCH   1  22
TORSDOF 6
ENDMDL
MODEL 6
REMARK VINA RESULT:     -11.5      2.379     11.380
REMARK  Name = 16741238
REMARK  6 active torsions:
REMARK  status: ('A' for Active; 'I' for Inactive)
REMARK    1  A    between atoms: N_1  and  C_22
REMARK    2  A    between atoms: C_10  and  C_15
REMARK    3  A    between atoms: C_15  and  C_16
REMARK    4  A    between atoms: C_22  and  C_23
REMARK    5  A    between atoms: C_23  and  C_26
REMARK    6  A    between atoms: N_25  and  C_28
REMARK                            x       y       z     vdW  Elec       q    Type
REMARK                         _______ _______ _______ _____ _____    ______ ____
ROOT
ATOM      1  N   UNL     1      35.138 -17.881 -22.972  0.00  0.00    -0.249 N 
ATOM      2  N   UNL     1      34.121 -17.468 -25.112  0.00  0.00    -0.373 NA
ATOM      3  N   UNL     1      34.816 -19.601 -24.551  0.00  0.00    -0.321 N 
ATOM      4  C   UNL     1      35.035 -16.492 -22.523  0.00  0.00    +0.071 C 
ATOM      5  C   UNL     1      34.404 -15.594 -23.550  0.00  0.00    +0.045 C 
ATOM      6  C   UNL     1      34.673 -18.269 -24.233  0.00  0.00    +0.239 C 
ATOM      7  C   UNL     1      33.980 -16.110 -24.782  0.00  0.00    +0.136 C 
ATOM      8  C   UNL     1      34.239 -14.230 -23.272  0.00  0.00    +0.007 C 
ATOM      9  C   UNL     1      33.394 -15.250 -25.720  0.00  0.00    +0.032 C 
ATOM     10  C   UNL     1      33.655 -13.382 -24.214  0.00  0.00    +0.039 C 
ATOM     11  C   UNL     1      33.232 -13.893 -25.438  0.00  0.00    +0.006 C 
ATOM     12  H   UNL     1      35.226 -20.220 -23.904  0.00  0.00    +0.146 HD
ATOM     13  H   UNL     1      34.507 -19.934 -25.424  0.00  0.00    +0.146 HD
ENDROOT
BRANCH  10  15
ATOM     14  O   UNL     1      32.778 -11.609 -22.966  0.00  0.00    -0.287 OA
ATOM     15  C   UNL     1      33.488 -11.969 -23.918  0.00  0.00    +0.196 C 
BRANCH  15  16
ATOM     16  C   UNL     1      34.148 -10.899 -24.724  0.00  0.00    +0.039 C 
ATOM     17  C   UNL     1      34.620 -11.181 -26.006  0.00  0.00    +0.003 C 
ATOM     18  C   UNL     1      34.293  -9.616 -24.195  0.00  0.00    +0.003 C 
ATOM     19  C   UNL     1      35.235 -10.181 -26.759  0.00  0.00    +0.000 C 
ATOM     20  C   UNL     1      34.909  -8.616 -24.948  0.00  0.00    +0.000 C 
ATOM     21  C   UNL     1      35.380  -8.899 -26.230  0.00  0.00    +0.000 C 
ENDBRANCH  15  16
ENDBRANCH  10  15
BRANCH   1  22
ATOM     22  C   UNL     1      35.747 -18.798 -22.014  0.00  0.00    +0.109 C 
BRANCH  22  23
ATOM     23  C   UNL     1      34.690 -19.717 -21.408  0.00  0.00    +0.107 C 
BRANCH  23  26
ATOM     24  O   UNL     1      36.470 -20.846 -20.257  0.00  0.00    -0.275 OA
ATOM     25  N   UNL     1      34.309 -21.448 -19.669  0.00  0.00    -0.279 N 
ATOM     26  C   UNL     1      35.251 -20.715 -20.400  0.00  0.00    +0.227 C 
ATOM     27  C   UNL     1      32.870 -21.277 -19.854  0.00  0.00    +0.115 C 
BRANCH  25  28
ATOM     28  C   UNL     1      34.689 -22.426 -18.678  0.00  0.00    +0.075 C 
ATOM     29  C   UNL     1      33.465 -22.887 -17.884  0.00  0.00    +0.020 C 
ATOM     30  C   UNL     1      35.776 -21.869 -17.755  0.00  0.00    +0.020 C 
ATOM     31  C   UNL     1      33.845 -23.885 -16.792  0.00  0.00    +0.002 C 
ATOM     32  C   UNL     1      36.153 -22.868 -16.664  0.00  0.00    +0.002 C 
ATOM     33  C   UNL     1      34.931 -23.328 -15.875  0.00  0.00    +0.000 C 
ENDBRANCH  25  28
ENDBRANCH  23  26
ENDBRANCH  22  23
ENDBRANCH   1  22
TORSDOF 6
ENDMDL
MODEL 7
REMARK VINA RESULT:     -11.5      2.855     11.002
REMARK  Name = 16741238
REMARK  6 active torsions:
REMARK  status: ('A' for Active; 'I' for Inactive)
REMARK    1  A    between atoms: N_1  and  C_22
REMARK    2  A    between atoms: C_10  and  C_15
REMARK    3  A    between atoms: C_15  and  C_16
REMARK    4  A    between atoms: C_22  and  C_23
REMARK    5  A    between atoms: C_23  and  C_26
REMARK    6  A    between atoms: N_25  and  C_28
REMARK                            x       y       z     vdW  Elec       q    Type
REMARK                         _______ _______ _______ _____ _____    ______ ____
ROOT
ATOM      1  N   UNL     1      35.142 -17.853 -22.998  0.00  0.00    -0.249 N 
ATOM      2  N   UNL     1      34.099 -17.413 -25.120  0.00  0.00    -0.373 NA
ATOM      3  N   UNL     1      34.762 -19.562 -24.576  0.00  0.00    -0.321 N 
ATOM      4  C   UNL     1      35.074 -16.462 -22.544  0.00  0.00    +0.071 C 
ATOM      5  C   UNL     1      34.444 -15.550 -23.559  0.00  0.00    +0.045 C 
ATOM      6  C   UNL     1      34.649 -18.227 -24.252  0.00  0.00    +0.239 C 
ATOM      7  C   UNL     1      33.989 -16.054 -24.785  0.00  0.00    +0.136 C 
ATOM      8  C   UNL     1      34.309 -14.183 -23.275  0.00  0.00    +0.007 C 
ATOM      9  C   UNL     1      33.405 -15.181 -25.711  0.00  0.00    +0.032 C 
ATOM     10  C   UNL     1      33.726 -13.322 -24.204  0.00  0.00    +0.039 C 
ATOM     11  C   UNL     1      33.274 -13.822 -25.423  0.00  0.00    +0.006 C 
ATOM     12  H   UNL     1      35.171 -20.190 -23.938  0.00  0.00    +0.146 HD
ATOM     13  H   UNL     1      34.432 -19.886 -25.445  0.00  0.00    +0.146 HD
ENDROOT
BRANCH  10  15
ATOM     14  O   UNL     1      34.288 -11.071 -24.498  0.00  0.00    -0.287 OA
ATOM     15  C   UNL     1      33.592 -11.907 -23.902  0.00  0.00    +0.196 C 
BRANCH  15  16
ATOM     16  C   UNL     1      32.628 -11.394 -22.882  0.00  0.00    +0.039 C 
ATOM     17  C   UNL     1      31.989 -12.282 -22.017  0.00  0.00    +0.003 C 
ATOM     18  C   UNL     1      32.367 -10.026 -22.794  0.00  0.00    +0.003 C 
ATOM     19  C   UNL     1      31.089 -11.803 -21.065  0.00  0.00    +0.000 C 
ATOM     20  C   UNL     1      31.468  -9.548 -21.842  0.00  0.00    +0.000 C 
ATOM     21  C   UNL     1      30.828 -10.436 -20.977  0.00  0.00    +0.000 C 
ENDBRANCH  15  16
ENDBRANCH  10  15
BRANCH   1  22
ATOM     22  C   UNL     1      35.750 -18.784 -22.053  0.00  0.00    +0.109 C 
BRANCH  22  23
ATOM     23  C   UNL     1      34.697 -19.734 -21.489  0.00  0.00    +0.107 C 
BRANCH  23  26
ATOM     24  O   UNL     1      36.468 -20.887 -20.348  0.00  0.00    -0.275 OA
ATOM     25  N   UNL     1      34.304 -21.424 -19.713  0.00  0.00    -0.279 N 
ATOM     26  C   UNL     1      35.251 -20.728 -20.472  0.00  0.00    +0.227 C 
ATOM     27  C   UNL     1      32.866 -21.220 -19.876  0.00  0.00    +0.115 C 
BRANCH  25  28
ATOM     28  C   UNL     1      34.676 -22.394 -18.711  0.00  0.00    +0.075 C 
ATOM     29  C   UNL     1      33.445 -22.853 -17.926  0.00  0.00    +0.020 C 
ATOM     30  C   UNL     1      35.751 -21.826 -17.780  0.00  0.00    +0.020 C 
ATOM     31  C   UNL     1      33.817 -23.842 -16.824  0.00  0.00    +0.002 C 
ATOM     32  C   UNL     1      36.121 -22.817 -16.678  0.00  0.00    +0.002 C 
ATOM     33  C   UNL     1      34.891 -23.275 -15.899  0.00  0.00    +0.000 C 
ENDBRANCH  25  28
ENDBRANCH  23  26
ENDBRANCH  22  23
ENDBRANCH   1  22
TORSDOF 6
ENDMDL
MODEL 8
REMARK VINA RESULT:     -11.4      5.557      9.894
REMARK  Name = 16741238
REMARK  6 active torsions:
REMARK  status: ('A' for Active; 'I' for Inactive)
REMARK    1  A    between atoms: N_1  and  C_22
REMARK    2  A    between atoms: C_10  and  C_15
REMARK    3  A    between atoms: C_15  and  C_16
REMARK    4  A    between atoms: C_22  and  C_23
REMARK    5  A    between atoms: C_23  and  C_26
REMARK    6  A    between atoms: N_25  and  C_28
REMARK                            x       y       z     vdW  Elec       q    Type
REMARK                         _______ _______ _______ _____ _____    ______ ____
ROOT
ATOM      1  N   UNL     1      34.423 -22.228 -19.297  0.00  0.00    -0.249 N 
ATOM      2  N   UNL     1      32.258 -22.519 -18.291  0.00  0.00    -0.373 NA
ATOM      3  N   UNL     1      32.435 -21.702 -20.448  0.00  0.00    -0.321 N 
ATOM      4  C   UNL     1      35.161 -22.711 -18.128  0.00  0.00    +0.071 C 
ATOM      5  C   UNL     1      34.258 -23.101 -16.991  0.00  0.00    +0.045 C 
ATOM      6  C   UNL     1      33.026 -22.168 -19.294  0.00  0.00    +0.239 C 
ATOM      7  C   UNL     1      32.866 -22.991 -17.117  0.00  0.00    +0.136 C 
ATOM      8  C   UNL     1      34.813 -23.579 -15.796  0.00  0.00    +0.007 C 
ATOM      9  C   UNL     1      32.050 -23.362 -16.042  0.00  0.00    +0.032 C 
ATOM     10  C   UNL     1      33.991 -23.946 -14.731  0.00  0.00    +0.039 C 
ATOM     11  C   UNL     1      32.608 -23.838 -14.855  0.00  0.00    +0.006 C 
ATOM     12  H   UNL     1      32.994 -21.435 -21.214  0.00  0.00    +0.146 HD
ATOM     13  H   UNL     1      31.455 -21.637 -20.507  0.00  0.00    +0.146 HD
ENDROOT
BRANCH  10  15
ATOM     14  O   UNL     1      33.873 -24.575 -12.482  0.00  0.00    -0.287 OA
ATOM     15  C   UNL     1      34.575 -24.440 -13.496  0.00  0.00    +0.196 C 
BRANCH  15  16
ATOM     16  C   UNL     1      36.019 -24.806 -13.383  0.00  0.00    +0.039 C 
ATOM     17  C   UNL     1      36.523 -25.891 -14.100  0.00  0.00    +0.003 C 
ATOM     18  C   UNL     1      36.865 -24.061 -12.560  0.00  0.00    +0.003 C 
ATOM     19  C   UNL     1      37.871 -26.231 -13.995  0.00  0.00    +0.000 C 
ATOM     20  C   UNL     1      38.214 -24.401 -12.456  0.00  0.00    +0.000 C 
ATOM     21  C   UNL     1      38.717 -25.487 -13.173  0.00  0.00    +0.000 C 
ENDBRANCH  15  16
ENDBRANCH  10  15
BRANCH   1  22
ATOM     22  C   UNL     1      35.251 -21.831 -20.431  0.00  0.00    +0.109 C 
BRANCH  22  23
ATOM     23  C   UNL     1      35.617 -20.353 -20.333  0.00  0.00    +0.107 C 
BRANCH  23  26
ATOM     24  O   UNL     1      33.842 -19.521 -21.720  0.00  0.00    -0.275 OA
ATOM     25  N   UNL     1      35.973 -18.730 -22.178  0.00  0.00    -0.279 N 
ATOM     26  C   UNL     1      35.050 -19.505 -21.468  0.00  0.00    +0.227 C 
ATOM     27  C   UNL     1      37.400 -18.726 -21.863  0.00  0.00    +0.115 C 
BRANCH  25  28
ATOM     28  C   UNL     1      35.585 -17.876 -23.275  0.00  0.00    +0.075 C 
ATOM     29  C   UNL     1      35.135 -16.508 -22.756  0.00  0.00    +0.020 C 
ATOM     30  C   UNL     1      34.493 -18.540 -24.118  0.00  0.00    +0.020 C 
ATOM     31  C   UNL     1      34.668 -15.601 -23.892  0.00  0.00    +0.002 C 
ATOM     32  C   UNL     1      34.028 -17.630 -25.253  0.00  0.00    +0.002 C 
ATOM     33  C   UNL     1      33.582 -16.266 -24.733  0.00  0.00    +0.000 C 
ENDBRANCH  25  28
ENDBRANCH  23  26
ENDBRANCH  22  23
ENDBRANCH   1  22
TORSDOF 6
ENDMDL
MODEL 9
REMARK VINA RESULT:     -11.3      4.525      8.165
REMARK  Name = 16741238
REMARK  6 active torsions:
REMARK  status: ('A' for Active; 'I' for Inactive)
REMARK    1  A    between atoms: N_1  and  C_22
REMARK    2  A    between atoms: C_10  and  C_15
REMARK    3  A    between atoms: C_15  and  C_16
REMARK    4  A    between atoms: C_22  and  C_23
REMARK    5  A    between atoms: C_23  and  C_26
REMARK    6  A    between atoms: N_25  and  C_28
REMARK                            x       y       z     vdW  Elec       q    Type
REMARK                         _______ _______ _______ _____ _____    ______ ____
ROOT
ATOM      1  N   UNL     1      34.587 -20.834 -20.508  0.00  0.00    -0.249 N 
ATOM      2  N   UNL     1      33.038 -21.928 -19.029  0.00  0.00    -0.373 NA
ATOM      3  N   UNL     1      32.270 -20.875 -20.940  0.00  0.00    -0.321 N 
ATOM      4  C   UNL     1      35.767 -21.168 -19.708  0.00  0.00    +0.071 C 
ATOM      5  C   UNL     1      35.429 -21.952 -18.472  0.00  0.00    +0.045 C 
ATOM      6  C   UNL     1      33.309 -21.240 -20.111  0.00  0.00    +0.239 C 
ATOM      7  C   UNL     1      34.100 -22.295 -18.187  0.00  0.00    +0.136 C 
ATOM      8  C   UNL     1      36.452 -22.344 -17.596  0.00  0.00    +0.007 C 
ATOM      9  C   UNL     1      33.814 -23.027 -17.028  0.00  0.00    +0.032 C 
ATOM     10  C   UNL     1      36.156 -23.073 -16.445  0.00  0.00    +0.039 C 
ATOM     11  C   UNL     1      34.837 -23.415 -16.161  0.00  0.00    +0.006 C 
ATOM     12  H   UNL     1      32.452 -20.359 -21.759  0.00  0.00    +0.146 HD
ATOM     13  H   UNL     1      31.347 -21.132 -20.714  0.00  0.00    +0.146 HD
ENDROOT
BRANCH  10  15
ATOM     14  O   UNL     1      38.408 -23.390 -15.898  0.00  0.00    -0.287 OA
ATOM     15  C   UNL     1      37.223 -23.475 -15.543  0.00  0.00    +0.196 C 
BRANCH  15  16
ATOM     16  C   UNL     1      36.955 -23.998 -14.169  0.00  0.00    +0.039 C 
ATOM     17  C   UNL     1      37.075 -25.362 -13.906  0.00  0.00    +0.003 C 
ATOM     18  C   UNL     1      36.586 -23.121 -13.148  0.00  0.00    +0.003 C 
ATOM     19  C   UNL     1      36.826 -25.850 -12.624  0.00  0.00    +0.000 C 
ATOM     20  C   UNL     1      36.337 -23.608 -11.866  0.00  0.00    +0.000 C 
ATOM     21  C   UNL     1      36.457 -24.973 -11.604  0.00  0.00    +0.000 C 
ENDBRANCH  15  16
ENDBRANCH  10  15
BRANCH   1  22
ATOM     22  C   UNL     1      34.856 -20.068 -21.721  0.00  0.00    +0.109 C 
BRANCH  22  23
ATOM     23  C   UNL     1      35.193 -18.621 -21.373  0.00  0.00    +0.107 C 
BRANCH  23  26
ATOM     24  O   UNL     1      35.495 -18.089 -23.695  0.00  0.00    -0.275 OA
ATOM     25  N   UNL     1      34.776 -16.365 -22.322  0.00  0.00    -0.279 N 
ATOM     26  C   UNL     1      35.174 -17.682 -22.575  0.00  0.00    +0.227 C 
ATOM     27  C   UNL     1      34.401 -15.903 -20.987  0.00  0.00    +0.115 C 
BRANCH  25  28
ATOM     28  C   UNL     1      34.707 -15.364 -23.359  0.00  0.00    +0.075 C 
ATOM     29  C   UNL     1      34.225 -14.030 -22.785  0.00  0.00    +0.020 C 
ATOM     30  C   UNL     1      33.809 -15.834 -24.507  0.00  0.00    +0.020 C 
ATOM     31  C   UNL     1      34.091 -12.964 -23.871  0.00  0.00    +0.002 C 
ATOM     32  C   UNL     1      33.677 -14.767 -25.591  0.00  0.00    +0.002 C 
ATOM     33  C   UNL     1      33.199 -13.437 -25.015  0.00  0.00    +0.000 C 
ENDBRANCH  25  28
ENDBRANCH  23  26
ENDBRANCH  22  23
ENDBRANCH   1  22
TORSDOF 6
ENDMDL
