MODEL 1
REMARK VINA RESULT:     -11.3      0.000      0.000
REMARK  Name = 4261
REMARK  8 active torsions:
REMARK  status: ('A' for Active; 'I' for Inactive)
REMARK    1  A    between atoms: C_1  and  C_20
REMARK    2  A    between atoms: C_2  and  C_9
REMARK    3  A    between atoms: N_8  and  C_11
REMARK    4  A    between atoms: C_12  and  N_17
REMARK    5  A    between atoms: C_20  and  N_22
REMARK    6  A    between atoms: C_23  and  O_25
REMARK    7  A    between atoms: O_25  and  C_26
REMARK    8  A    between atoms: C_26  and  C_28
REMARK                            x       y       z     vdW  Elec       q    Type
REMARK                         _______ _______ _______ _____ _____    ______ ____
ROOT
ATOM      1  C   UNL     1      35.059 -20.168 -20.929  0.00  0.00    -0.002 C 
ATOM      2  C   UNL     1      33.742 -22.017 -19.322  0.00  0.00    +0.054 C 
ATOM      3  C   UNL     1      33.669 -20.182 -20.893  0.00  0.00    -0.002 C 
ATOM      4  C   UNL     1      35.797 -21.070 -20.170  0.00  0.00    -0.002 C 
ATOM      5  C   UNL     1      33.009 -21.108 -20.086  0.00  0.00    +0.004 C 
ATOM      6  C   UNL     1      35.137 -21.996 -19.364  0.00  0.00    +0.004 C 
ENDROOT
BRANCH   2   9
ATOM      7  O   UNL     1      33.365 -24.183 -18.564  0.00  0.00    -0.270 OA
ATOM      8  N   UNL     1      32.087 -22.459 -17.612  0.00  0.00    -0.279 N 
ATOM      9  C   UNL     1      33.054 -22.983 -18.483  0.00  0.00    +0.250 C 
ATOM     10  H   UNL     1      31.951 -21.486 -17.661  0.00  0.00    +0.155 HD
BRANCH   8  11
ATOM     11  C   UNL     1      31.284 -23.147 -16.671  0.00  0.00    +0.064 C 
ATOM     12  C   UNL     1      31.867 -23.804 -15.599  0.00  0.00    +0.055 C 
ATOM     13  C   UNL     1      29.909 -23.143 -16.851  0.00  0.00    +0.016 C 
ATOM     14  C   UNL     1      31.054 -24.475 -14.685  0.00  0.00    +0.015 C 
ATOM     15  C   UNL     1      29.097 -23.813 -15.937  0.00  0.00    +0.001 C 
ATOM     16  C   UNL     1      29.670 -24.480 -14.854  0.00  0.00    +0.001 C 
BRANCH  12  17
ATOM     17  N   UNL     1      33.267 -23.812 -15.408  0.00  0.00    -0.356 N 
ATOM     18  H   UNL     1      33.678 -23.191 -14.765  0.00  0.00    +0.142 HD
ATOM     19  H   UNL     1      33.830 -24.438 -15.918  0.00  0.00    +0.142 HD
ENDBRANCH  12  17
ENDBRANCH   8  11
ENDBRANCH   2   9
BRANCH   1  20
ATOM     20  C   UNL     1      35.769 -19.170 -21.796  0.00  0.00    +0.119 C 
BRANCH  20  22
ATOM     21  O   UNL     1      35.222 -17.113 -23.772  0.00  0.00    -0.226 OA
ATOM     22  N   UNL     1      35.299 -17.823 -21.565  0.00  0.00    -0.267 N 
ATOM     23  C   UNL     1      35.066 -16.912 -22.572  0.00  0.00    +0.402 C 
ATOM     24  H   UNL     1      35.136 -17.541 -20.636  0.00  0.00    +0.153 HD
BRANCH  23  25
ATOM     25  O   UNL     1      34.630 -15.733 -22.035  0.00  0.00    -0.430 OA
BRANCH  25  26
ATOM     26  C   UNL     1      34.356 -14.683 -22.970  0.00  0.00    +0.238 C 
BRANCH  26  28
ATOM     27  N   UNL     1      32.020 -11.751 -22.584  0.00  0.00    -0.243 NA
ATOM     28  C   UNL     1      33.328 -13.760 -22.382  0.00  0.00    +0.040 C 
ATOM     29  C   UNL     1      32.755 -14.036 -21.153  0.00  0.00    +0.002 C 
ATOM     30  C   UNL     1      32.939 -12.623 -23.057  0.00  0.00    +0.098 C 
ATOM     31  C   UNL     1      31.807 -13.163 -20.634  0.00  0.00    +0.020 C 
ATOM     32  C   UNL     1      31.476 -12.045 -21.382  0.00  0.00    +0.099 C 
ENDBRANCH  26  28
ENDBRANCH  25  26
ENDBRANCH  23  25
ENDBRANCH  20  22
ENDBRANCH   1  20
TORSDOF 8
ENDMDL
MODEL 2
REMARK VINA RESULT:     -11.0      1.629      2.482
REMARK  Name = 4261
REMARK  8 active torsions:
REMARK  status: ('A' for Active; 'I' for Inactive)
REMARK    1  A    between atoms: C_1  and  C_20
REMARK    2  A    between atoms: C_2  and  C_9
REMARK    3  A    between atoms: N_8  and  C_11
REMARK    4  A    between atoms: C_12  and  N_17
REMARK    5  A    between atoms: C_20  and  N_22
REMARK    6  A    between atoms: C_23  and  O_25
REMARK    7  A    between atoms: O_25  and  C_26
REMARK    8  A    between atoms: C_26  and  C_28
REMARK                            x       y       z     vdW  Elec       q    Type
REMARK                         _______ _______ _______ _____ _____    ______ ____
ROOT
ATOM      1  C   UNL     1      35.178 -20.377 -20.658  0.00  0.00    -0.002 C 
ATOM      2  C   UNL     1      33.880 -22.257 -19.073  0.00  0.00    +0.054 C 
ATOM      3  C   UNL     1      35.925 -21.249 -19.872  0.00  0.00    -0.002 C 
ATOM      4  C   UNL     1      33.789 -20.437 -20.659  0.00  0.00    -0.002 C 
ATOM      5  C   UNL     1      35.274 -22.191 -19.078  0.00  0.00    +0.004 C 
ATOM      6  C   UNL     1      33.138 -21.380 -19.864  0.00  0.00    +0.004 C 
ENDROOT
BRANCH   2   9
ATOM      7  O   UNL     1      33.281 -24.441 -18.544  0.00  0.00    -0.270 OA
ATOM      8  N   UNL     1      32.517 -22.731 -17.129  0.00  0.00    -0.279 N 
ATOM      9  C   UNL     1      33.202 -23.239 -18.243  0.00  0.00    +0.250 C 
ATOM     10  H   UNL     1      32.543 -21.753 -17.021  0.00  0.00    +0.155 HD
BRANCH   8  11
ATOM     11  C   UNL     1      31.794 -23.440 -16.140  0.00  0.00    +0.064 C 
ATOM     12  C   UNL     1      30.410 -23.486 -16.182  0.00  0.00    +0.055 C 
ATOM     13  C   UNL     1      32.506 -24.082 -15.139  0.00  0.00    +0.016 C 
ATOM     14  C   UNL     1      29.720 -24.191 -15.195  0.00  0.00    +0.015 C 
ATOM     15  C   UNL     1      31.816 -24.788 -14.153  0.00  0.00    +0.001 C 
ATOM     16  C   UNL     1      30.423 -24.842 -14.181  0.00  0.00    +0.001 C 
BRANCH  12  17
ATOM     17  N   UNL     1      29.677 -22.835 -17.199  0.00  0.00    -0.356 N 
ATOM     18  H   UNL     1      28.786 -22.466 -17.004  0.00  0.00    +0.142 HD
ATOM     19  H   UNL     1      30.058 -22.751 -18.103  0.00  0.00    +0.142 HD
ENDBRANCH  12  17
ENDBRANCH   8  11
ENDBRANCH   2   9
BRANCH   1  20
ATOM     20  C   UNL     1      35.879 -19.364 -21.515  0.00  0.00    +0.119 C 
BRANCH  20  22
ATOM     21  O   UNL     1      34.943 -19.920 -24.208  0.00  0.00    -0.226 OA
ATOM     22  N   UNL     1      34.949 -18.591 -22.307  0.00  0.00    -0.267 N 
ATOM     23  C   UNL     1      34.562 -18.936 -23.584  0.00  0.00    +0.402 C 
ATOM     24  H   UNL     1      34.571 -17.772 -21.912  0.00  0.00    +0.153 HD
BRANCH  23  25
ATOM     25  O   UNL     1      33.679 -18.009 -24.063  0.00  0.00    -0.430 OA
BRANCH  25  26
ATOM     26  C   UNL     1      34.176 -17.146 -25.093  0.00  0.00    +0.238 C 
BRANCH  26  28
ATOM     27  N   UNL     1      33.298 -13.482 -25.157  0.00  0.00    -0.243 NA
ATOM     28  C   UNL     1      34.024 -15.720 -24.652  0.00  0.00    +0.040 C 
ATOM     29  C   UNL     1      34.445 -15.323 -23.395  0.00  0.00    +0.002 C 
ATOM     30  C   UNL     1      33.463 -14.781 -25.491  0.00  0.00    +0.098 C 
ATOM     31  C   UNL     1      34.292 -13.996 -23.014  0.00  0.00    +0.020 C 
ATOM     32  C   UNL     1      33.718 -13.122 -23.923  0.00  0.00    +0.099 C 
ENDBRANCH  26  28
ENDBRANCH  25  26
ENDBRANCH  23  25
ENDBRANCH  20  22
ENDBRANCH   1  20
TORSDOF 8
ENDMDL
MODEL 3
REMARK VINA RESULT:     -10.6      3.595      6.185
REMARK  Name = 4261
REMARK  8 active torsions:
REMARK  status: ('A' for Active; 'I' for Inactive)
REMARK    1  A    between atoms: C_1  and  C_20
REMARK    2  A    between atoms: C_2  and  C_9
REMARK    3  A    between atoms: N_8  and  C_11
REMARK    4  A    between atoms: C_12  and  N_17
REMARK    5  A    between atoms: C_20  and  N_22
REMARK    6  A    between atoms: C_23  and  O_25
REMARK    7  A    between atoms: O_25  and  C_26
REMARK    8  A    between atoms: C_26  and  C_28
REMARK                            x       y       z     vdW  Elec       q    Type
REMARK                         _______ _______ _______ _____ _____    ______ ____
ROOT
ATOM      1  C   UNL     1      33.944 -15.050 -24.598  0.00  0.00    -0.002 C 
ATOM      2  C   UNL     1      34.884 -17.220 -23.135  0.00  0.00    +0.054 C 
ATOM      3  C   UNL     1      33.992 -16.308 -25.188  0.00  0.00    -0.002 C 
ATOM      4  C   UNL     1      34.361 -14.866 -23.285  0.00  0.00    -0.002 C 
ATOM      5  C   UNL     1      34.463 -17.396 -24.454  0.00  0.00    +0.004 C 
ATOM      6  C   UNL     1      34.832 -15.954 -22.551  0.00  0.00    +0.004 C 
ENDROOT
BRANCH   2   9
ATOM      7  O   UNL     1      36.590 -18.615 -22.393  0.00  0.00    -0.270 OA
ATOM      8  N   UNL     1      34.414 -19.061 -21.636  0.00  0.00    -0.279 N 
ATOM      9  C   UNL     1      35.377 -18.354 -22.372  0.00  0.00    +0.250 C 
ATOM     10  H   UNL     1      33.489 -18.735 -21.719  0.00  0.00    +0.155 HD
BRANCH   8  11
ATOM     11  C   UNL     1      34.599 -20.181 -20.790  0.00  0.00    +0.064 C 
ATOM     12  C   UNL     1      33.506 -20.893 -20.321  0.00  0.00    +0.055 C 
ATOM     13  C   UNL     1      35.893 -20.541 -20.449  0.00  0.00    +0.016 C 
ATOM     14  C   UNL     1      33.714 -21.993 -19.488  0.00  0.00    +0.015 C 
ATOM     15  C   UNL     1      36.100 -21.641 -19.617  0.00  0.00    +0.001 C 
ATOM     16  C   UNL     1      35.010 -22.367 -19.136  0.00  0.00    +0.001 C 
BRANCH  12  17
ATOM     17  N   UNL     1      32.184 -20.533 -20.666  0.00  0.00    -0.356 N 
ATOM     18  H   UNL     1      31.486 -20.506 -19.972  0.00  0.00    +0.142 HD
ATOM     19  H   UNL     1      31.962 -20.310 -21.598  0.00  0.00    +0.142 HD
ENDBRANCH  12  17
ENDBRANCH   8  11
ENDBRANCH   2   9
BRANCH   1  20
ATOM     20  C   UNL     1      33.436 -13.879 -25.387  0.00  0.00    +0.119 C 
BRANCH  20  22
ATOM     21  O   UNL     1      33.798 -11.266 -26.602  0.00  0.00    -0.226 OA
ATOM     22  N   UNL     1      33.704 -12.623 -24.724  0.00  0.00    -0.267 N 
ATOM     23  C   UNL     1      33.862 -11.426 -25.388  0.00  0.00    +0.402 C 
ATOM     24  H   UNL     1      33.778 -12.623 -23.742  0.00  0.00    +0.153 HD
BRANCH  23  25
ATOM     25  O   UNL     1      34.104 -10.427 -24.487  0.00  0.00    -0.430 OA
BRANCH  25  26
ATOM     26  C   UNL     1      33.255  -9.278 -24.584  0.00  0.00    +0.238 C 
BRANCH  26  28
ATOM     27  N   UNL     1      31.543  -9.323 -21.228  0.00  0.00    -0.243 NA
ATOM     28  C   UNL     1      32.833  -8.862 -23.205  0.00  0.00    +0.040 C 
ATOM     29  C   UNL     1      33.312  -7.690 -22.647  0.00  0.00    +0.002 C 
ATOM     30  C   UNL     1      31.962  -9.640 -22.473  0.00  0.00    +0.098 C 
ATOM     31  C   UNL     1      32.904  -7.330 -21.368  0.00  0.00    +0.020 C 
ATOM     32  C   UNL     1      32.026  -8.173 -20.706  0.00  0.00    +0.099 C 
ENDBRANCH  26  28
ENDBRANCH  25  26
ENDBRANCH  23  25
ENDBRANCH  20  22
ENDBRANCH   1  20
TORSDOF 8
ENDMDL
MODEL 4
REMARK VINA RESULT:     -10.6      2.210      2.860
REMARK  Name = 4261
REMARK  8 active torsions:
REMARK  status: ('A' for Active; 'I' for Inactive)
REMARK    1  A    between atoms: C_1  and  C_20
REMARK    2  A    between atoms: C_2  and  C_9
REMARK    3  A    between atoms: N_8  and  C_11
REMARK    4  A    between atoms: C_12  and  N_17
REMARK    5  A    between atoms: C_20  and  N_22
REMARK    6  A    between atoms: C_23  and  O_25
REMARK    7  A    between atoms: O_25  and  C_26
REMARK    8  A    between atoms: C_26  and  C_28
REMARK                            x       y       z     vdW  Elec       q    Type
REMARK                         _______ _______ _______ _____ _____    ______ ____
ROOT
ATOM      1  C   UNL     1      36.058 -21.502 -19.221  0.00  0.00    -0.002 C 
ATOM      2  C   UNL     1      34.505 -22.937 -17.415  0.00  0.00    +0.054 C 
ATOM      3  C   UNL     1      34.771 -21.889 -19.576  0.00  0.00    -0.002 C 
ATOM      4  C   UNL     1      36.576 -21.825 -17.972  0.00  0.00    -0.002 C 
ATOM      5  C   UNL     1      33.992 -22.608 -18.671  0.00  0.00    +0.004 C 
ATOM      6  C   UNL     1      35.798 -22.544 -17.066  0.00  0.00    +0.004 C 
ENDROOT
BRANCH   2   9
ATOM      7  O   UNL     1      34.241 -24.526 -15.738  0.00  0.00    -0.270 OA
ATOM      8  N   UNL     1      32.326 -23.374 -16.456  0.00  0.00    -0.279 N 
ATOM      9  C   UNL     1      33.693 -23.688 -16.472  0.00  0.00    +0.250 C 
ATOM     10  H   UNL     1      32.038 -22.686 -17.098  0.00  0.00    +0.155 HD
BRANCH   8  11
ATOM     11  C   UNL     1      31.307 -23.917 -15.636  0.00  0.00    +0.064 C 
ATOM     12  C   UNL     1      31.394 -23.823 -14.256  0.00  0.00    +0.055 C 
ATOM     13  C   UNL     1      30.230 -24.538 -16.249  0.00  0.00    +0.016 C 
ATOM     14  C   UNL     1      30.377 -24.366 -13.469  0.00  0.00    +0.015 C 
ATOM     15  C   UNL     1      29.214 -25.080 -15.463  0.00  0.00    +0.001 C 
ATOM     16  C   UNL     1      29.288 -24.994 -14.073  0.00  0.00    +0.001 C 
BRANCH  12  17
ATOM     17  N   UNL     1      32.488 -23.191 -13.624  0.00  0.00    -0.356 N 
ATOM     18  H   UNL     1      32.481 -23.057 -12.649  0.00  0.00    +0.142 HD
ATOM     19  H   UNL     1      33.255 -22.885 -14.158  0.00  0.00    +0.142 HD
ENDBRANCH  12  17
ENDBRANCH   8  11
ENDBRANCH   2   9
BRANCH   1  20
ATOM     20  C   UNL     1      36.896 -20.726 -20.195  0.00  0.00    +0.119 C 
BRANCH  20  22
ATOM     21  O   UNL     1      37.914 -18.634 -21.934  0.00  0.00    -0.226 OA
ATOM     22  N   UNL     1      36.161 -19.632 -20.789  0.00  0.00    -0.267 N 
ATOM     23  C   UNL     1      36.733 -18.681 -21.606  0.00  0.00    +0.402 C 
ATOM     24  H   UNL     1      35.197 -19.563 -20.598  0.00  0.00    +0.153 HD
BRANCH  23  25
ATOM     25  O   UNL     1      35.782 -17.785 -22.006  0.00  0.00    -0.430 OA
BRANCH  25  26
ATOM     26  C   UNL     1      35.093 -18.104 -23.221  0.00  0.00    +0.238 C 
BRANCH  26  28
ATOM     27  N   UNL     1      33.570 -15.736 -25.725  0.00  0.00    -0.243 NA
ATOM     28  C   UNL     1      34.575 -16.838 -23.837  0.00  0.00    +0.040 C 
ATOM     29  C   UNL     1      34.615 -15.646 -23.135  0.00  0.00    +0.002 C 
ATOM     30  C   UNL     1      34.052 -16.841 -25.112  0.00  0.00    +0.098 C 
ATOM     31  C   UNL     1      34.129 -14.489 -23.731  0.00  0.00    +0.020 C 
ATOM     32  C   UNL     1      33.621 -14.586 -25.017  0.00  0.00    +0.099 C 
ENDBRANCH  26  28
ENDBRANCH  25  26
ENDBRANCH  23  25
ENDBRANCH  20  22
ENDBRANCH   1  20
TORSDOF 8
ENDMDL
MODEL 5
REMARK VINA RESULT:     -10.6      3.159      9.775
REMARK  Name = 4261
REMARK  8 active torsions:
REMARK  status: ('A' for Active; 'I' for Inactive)
REMARK    1  A    between atoms: C_1  and  C_20
REMARK    2  A    between atoms: C_2  and  C_9
REMARK    3  A    between atoms: N_8  and  C_11
REMARK    4  A    between atoms: C_12  and  N_17
REMARK    5  A    between atoms: C_20  and  N_22
REMARK    6  A    between atoms: C_23  and  O_25
REMARK    7  A    between atoms: O_25  and  C_26
REMARK    8  A    between atoms: C_26  and  C_28
REMARK                            x       y       z     vdW  Elec       q    Type
REMARK                         _______ _______ _______ _____ _____    ______ ____
ROOT
ATOM      1  C   UNL     1      34.473 -23.076 -17.393  0.00  0.00    -0.002 C 
ATOM      2  C   UNL     1      33.831 -21.479 -19.577  0.00  0.00    +0.054 C 
ATOM      3  C   UNL     1      33.150 -22.978 -17.808  0.00  0.00    -0.002 C 
ATOM      4  C   UNL     1      35.478 -22.384 -18.059  0.00  0.00    -0.002 C 
ATOM      5  C   UNL     1      32.828 -22.177 -18.903  0.00  0.00    +0.004 C 
ATOM      6  C   UNL     1      35.157 -21.583 -19.154  0.00  0.00    +0.004 C 
ENDROOT
BRANCH   2   9
ATOM      7  O   UNL     1      32.303 -20.517 -21.043  0.00  0.00    -0.270 OA
ATOM      8  N   UNL     1      34.575 -20.013 -21.354  0.00  0.00    -0.279 N 
ATOM      9  C   UNL     1      33.495 -20.643 -20.717  0.00  0.00    +0.250 C 
ATOM     10  H   UNL     1      35.464 -20.210 -20.981  0.00  0.00    +0.155 HD
BRANCH   8  11
ATOM     11  C   UNL     1      34.552 -19.132 -22.462  0.00  0.00    +0.064 C 
ATOM     12  C   UNL     1      34.866 -17.792 -22.297  0.00  0.00    +0.055 C 
ATOM     13  C   UNL     1      34.212 -19.645 -23.704  0.00  0.00    +0.016 C 
ATOM     14  C   UNL     1      34.837 -16.943 -23.404  0.00  0.00    +0.015 C 
ATOM     15  C   UNL     1      34.183 -18.796 -24.810  0.00  0.00    +0.001 C 
ATOM     16  C   UNL     1      34.495 -17.445 -24.660  0.00  0.00    +0.001 C 
BRANCH  12  17
ATOM     17  N   UNL     1      35.215 -17.263 -21.035  0.00  0.00    -0.356 N 
ATOM     18  H   UNL     1      34.562 -17.277 -20.299  0.00  0.00    +0.142 HD
ATOM     19  H   UNL     1      36.110 -16.880 -20.893  0.00  0.00    +0.142 HD
ENDBRANCH  12  17
ENDBRANCH   8  11
ENDBRANCH   2   9
BRANCH   1  20
ATOM     20  C   UNL     1      34.820 -23.940 -16.216  0.00  0.00    +0.119 C 
BRANCH  20  22
ATOM     21  O   UNL     1      34.713 -23.967 -13.313  0.00  0.00    -0.226 OA
ATOM     22  N   UNL     1      33.673 -24.192 -15.374  0.00  0.00    -0.267 N 
ATOM     23  C   UNL     1      33.718 -24.184 -13.996  0.00  0.00    +0.402 C 
ATOM     24  H   UNL     1      32.810 -24.380 -15.810  0.00  0.00    +0.153 HD
BRANCH  23  25
ATOM     25  O   UNL     1      32.477 -24.457 -13.493  0.00  0.00    -0.430 OA
BRANCH  25  26
ATOM     26  C   UNL     1      31.532 -23.381 -13.543  0.00  0.00    +0.238 C 
BRANCH  26  28
ATOM     27  N   UNL     1      28.842 -25.262 -15.394  0.00  0.00    -0.243 NA
ATOM     28  C   UNL     1      30.475 -23.705 -14.558  0.00  0.00    +0.040 C 
ATOM     29  C   UNL     1      30.157 -22.801 -15.556  0.00  0.00    +0.002 C 
ATOM     30  C   UNL     1      29.804 -24.908 -14.512  0.00  0.00    +0.098 C 
ATOM     31  C   UNL     1      29.174 -23.129 -16.482  0.00  0.00    +0.020 C 
ATOM     32  C   UNL     1      28.551 -24.361 -16.359  0.00  0.00    +0.099 C 
ENDBRANCH  26  28
ENDBRANCH  25  26
ENDBRANCH  23  25
ENDBRANCH  20  22
ENDBRANCH   1  20
TORSDOF 8
ENDMDL
MODEL 6
REMARK VINA RESULT:     -10.5      1.894      2.368
REMARK  Name = 4261
REMARK  8 active torsions:
REMARK  status: ('A' for Active; 'I' for Inactive)
REMARK    1  A    between atoms: C_1  and  C_20
REMARK    2  A    between atoms: C_2  and  C_9
REMARK    3  A    between atoms: N_8  and  C_11
REMARK    4  A    between atoms: C_12  and  N_17
REMARK    5  A    between atoms: C_20  and  N_22
REMARK    6  A    between atoms: C_23  and  O_25
REMARK    7  A    between atoms: O_25  and  C_26
REMARK    8  A    between atoms: C_26  and  C_28
REMARK                            x       y       z     vdW  Elec       q    Type
REMARK                         _______ _______ _______ _____ _____    ______ ____
ROOT
ATOM      1  C   UNL     1      35.135 -19.765 -21.538  0.00  0.00    -0.002 C 
ATOM      2  C   UNL     1      34.565 -21.626 -19.552  0.00  0.00    +0.054 C 
ATOM      3  C   UNL     1      33.812 -20.071 -21.241  0.00  0.00    -0.002 C 
ATOM      4  C   UNL     1      36.176 -20.381 -20.852  0.00  0.00    -0.002 C 
ATOM      5  C   UNL     1      33.526 -21.004 -20.246  0.00  0.00    +0.004 C 
ATOM      6  C   UNL     1      35.891 -21.313 -19.856  0.00  0.00    +0.004 C 
ENDROOT
BRANCH   2   9
ATOM      7  O   UNL     1      33.452 -23.506 -18.754  0.00  0.00    -0.270 OA
ATOM      8  N   UNL     1      34.963 -22.441 -17.308  0.00  0.00    -0.279 N 
ATOM      9  C   UNL     1      34.267 -22.600 -18.515  0.00  0.00    +0.250 C 
ATOM     10  H   UNL     1      35.578 -21.673 -17.267  0.00  0.00    +0.155 HD
BRANCH   8  11
ATOM     11  C   UNL     1      34.899 -23.241 -16.142  0.00  0.00    +0.064 C 
ATOM     12  C   UNL     1      36.058 -23.734 -15.565  0.00  0.00    +0.055 C 
ATOM     13  C   UNL     1      33.652 -23.512 -15.598  0.00  0.00    +0.016 C 
ATOM     14  C   UNL     1      35.969 -24.520 -14.416  0.00  0.00    +0.015 C 
ATOM     15  C   UNL     1      33.564 -24.298 -14.449  0.00  0.00    +0.001 C 
ATOM     16  C   UNL     1      34.722 -24.802 -13.858  0.00  0.00    +0.001 C 
BRANCH  12  17
ATOM     17  N   UNL     1      37.332 -23.460 -16.112  0.00  0.00    -0.356 N 
ATOM     18  H   UNL     1      38.073 -24.093 -15.972  0.00  0.00    +0.142 HD
ATOM     19  H   UNL     1      37.477 -22.638 -16.633  0.00  0.00    +0.142 HD
ENDBRANCH  12  17
ENDBRANCH   8  11
ENDBRANCH   2   9
BRANCH   1  20
ATOM     20  C   UNL     1      35.443 -18.760 -22.609  0.00  0.00    +0.119 C 
BRANCH  20  22
ATOM     21  O   UNL     1      35.266 -16.415 -24.314  0.00  0.00    -0.226 OA
ATOM     22  N   UNL     1      35.004 -17.432 -22.246  0.00  0.00    -0.267 N 
ATOM     23  C   UNL     1      34.953 -16.375 -23.129  0.00  0.00    +0.402 C 
ATOM     24  H   UNL     1      34.725 -17.274 -21.315  0.00  0.00    +0.153 HD
BRANCH  23  25
ATOM     25  O   UNL     1      34.498 -15.259 -22.485  0.00  0.00    -0.430 OA
BRANCH  25  26
ATOM     26  C   UNL     1      33.935 -14.241 -23.321  0.00  0.00    +0.238 C 
BRANCH  26  28
ATOM     27  N   UNL     1      31.810 -11.314 -22.263  0.00  0.00    -0.243 NA
ATOM     28  C   UNL     1      33.024 -13.378 -22.497  0.00  0.00    +0.040 C 
ATOM     29  C   UNL     1      32.570 -13.811 -21.264  0.00  0.00    +0.002 C 
ATOM     30  C   UNL     1      32.627 -12.140 -22.955  0.00  0.00    +0.098 C 
ATOM     31  C   UNL     1      31.729 -12.990 -20.523  0.00  0.00    +0.020 C 
ATOM     32  C   UNL     1      31.381 -11.762 -21.062  0.00  0.00    +0.099 C 
ENDBRANCH  26  28
ENDBRANCH  25  26
ENDBRANCH  23  25
ENDBRANCH  20  22
ENDBRANCH   1  20
TORSDOF 8
ENDMDL
MODEL 7
REMARK VINA RESULT:     -10.5      3.967      6.430
REMARK  Name = 4261
REMARK  8 active torsions:
REMARK  status: ('A' for Active; 'I' for Inactive)
REMARK    1  A    between atoms: C_1  and  C_20
REMARK    2  A    between atoms: C_2  and  C_9
REMARK    3  A    between atoms: N_8  and  C_11
REMARK    4  A    between atoms: C_12  and  N_17
REMARK    5  A    between atoms: C_20  and  N_22
REMARK    6  A    between atoms: C_23  and  O_25
REMARK    7  A    between atoms: O_25  and  C_26
REMARK    8  A    between atoms: C_26  and  C_28
REMARK                            x       y       z     vdW  Elec       q    Type
REMARK                         _______ _______ _______ _____ _____    ______ ____
ROOT
ATOM      1  C   UNL     1      33.866 -14.516 -24.677  0.00  0.00    -0.002 C 
ATOM      2  C   UNL     1      34.709 -16.930 -23.585  0.00  0.00    +0.054 C 
ATOM      3  C   UNL     1      34.308 -14.558 -23.360  0.00  0.00    -0.002 C 
ATOM      4  C   UNL     1      33.841 -15.669 -25.454  0.00  0.00    -0.002 C 
ATOM      5  C   UNL     1      34.732 -15.769 -22.812  0.00  0.00    +0.004 C 
ATOM      6  C   UNL     1      34.264 -16.880 -24.906  0.00  0.00    +0.004 C 
ENDROOT
BRANCH   2   9
ATOM      7  O   UNL     1      36.010 -18.858 -23.611  0.00  0.00    -0.270 OA
ATOM      8  N   UNL     1      34.564 -18.546 -21.788  0.00  0.00    -0.279 N 
ATOM      9  C   UNL     1      35.149 -18.192 -23.013  0.00  0.00    +0.250 C 
ATOM     10  H   UNL     1      33.895 -17.916 -21.436  0.00  0.00    +0.155 HD
BRANCH   8  11
ATOM     11  C   UNL     1      34.810 -19.691 -20.992  0.00  0.00    +0.064 C 
ATOM     12  C   UNL     1      36.092 -19.972 -20.547  0.00  0.00    +0.055 C 
ATOM     13  C   UNL     1      33.741 -20.513 -20.674  0.00  0.00    +0.016 C 
ATOM     14  C   UNL     1      36.310 -21.106 -19.763  0.00  0.00    +0.015 C 
ATOM     15  C   UNL     1      33.959 -21.646 -19.890  0.00  0.00    +0.001 C 
ATOM     16  C   UNL     1      35.243 -21.943 -19.436  0.00  0.00    +0.001 C 
BRANCH  12  17
ATOM     17  N   UNL     1      37.187 -19.137 -20.866  0.00  0.00    -0.356 N 
ATOM     18  H   UNL     1      37.523 -18.494 -20.202  0.00  0.00    +0.142 HD
ATOM     19  H   UNL     1      37.611 -19.200 -21.751  0.00  0.00    +0.142 HD
ENDBRANCH  12  17
ENDBRANCH   8  11
ENDBRANCH   2   9
BRANCH   1  20
ATOM     20  C   UNL     1      33.412 -13.213 -25.267  0.00  0.00    +0.119 C 
BRANCH  20  22
ATOM     21  O   UNL     1      33.660 -10.368 -25.797  0.00  0.00    -0.226 OA
ATOM     22  N   UNL     1      33.471 -12.135 -24.307  0.00  0.00    -0.267 N 
ATOM     23  C   UNL     1      33.590 -10.807 -24.654  0.00  0.00    +0.402 C 
ATOM     24  H   UNL     1      33.424 -12.363 -23.350  0.00  0.00    +0.153 HD
BRANCH  23  25
ATOM     25  O   UNL     1      33.619 -10.036 -23.526  0.00  0.00    -0.430 OA
BRANCH  25  26
ATOM     26  C   UNL     1      32.472  -9.207 -23.305  0.00  0.00    +0.238 C 
BRANCH  26  28
ATOM     27  N   UNL     1      31.785  -8.793 -19.624  0.00  0.00    -0.243 NA
ATOM     28  C   UNL     1      31.936  -9.468 -21.928  0.00  0.00    +0.040 C 
ATOM     29  C   UNL     1      31.137 -10.570 -21.681  0.00  0.00    +0.002 C 
ATOM     30  C   UNL     1      32.233  -8.616 -20.886  0.00  0.00    +0.098 C 
ATOM     31  C   UNL     1      30.656 -10.787 -20.396  0.00  0.00    +0.020 C 
ATOM     32  C   UNL     1      31.005  -9.877 -19.410  0.00  0.00    +0.099 C 
ENDBRANCH  26  28
ENDBRANCH  25  26
ENDBRANCH  23  25
ENDBRANCH  20  22
ENDBRANCH   1  20
TORSDOF 8
ENDMDL
MODEL 8
REMARK VINA RESULT:     -10.4      3.039     11.382
REMARK  Name = 4261
REMARK  8 active torsions:
REMARK  status: ('A' for Active; 'I' for Inactive)
REMARK    1  A    between atoms: C_1  and  C_20
REMARK    2  A    between atoms: C_2  and  C_9
REMARK    3  A    between atoms: N_8  and  C_11
REMARK    4  A    between atoms: C_12  and  N_17
REMARK    5  A    between atoms: C_20  and  N_22
REMARK    6  A    between atoms: C_23  and  O_25
REMARK    7  A    between atoms: O_25  and  C_26
REMARK    8  A    between atoms: C_26  and  C_28
REMARK                            x       y       z     vdW  Elec       q    Type
REMARK                         _______ _______ _______ _____ _____    ______ ____
ROOT
ATOM      1  C   UNL     1      34.264 -15.637 -24.349  0.00  0.00    -0.002 C 
ATOM      2  C   UNL     1      33.249 -13.200 -23.477  0.00  0.00    +0.054 C 
ATOM      3  C   UNL     1      34.496 -15.223 -23.042  0.00  0.00    -0.002 C 
ATOM      4  C   UNL     1      33.531 -14.845 -25.224  0.00  0.00    -0.002 C 
ATOM      5  C   UNL     1      33.986 -14.001 -22.605  0.00  0.00    +0.004 C 
ATOM      6  C   UNL     1      33.021 -13.623 -24.788  0.00  0.00    +0.004 C 
ENDROOT
BRANCH   2   9
ATOM      7  O   UNL     1      31.943 -11.905 -22.053  0.00  0.00    -0.270 OA
ATOM      8  N   UNL     1      33.163 -10.793 -23.721  0.00  0.00    -0.279 N 
ATOM      9  C   UNL     1      32.720 -11.925 -23.022  0.00  0.00    +0.250 C 
ATOM     10  H   UNL     1      33.780 -10.967 -24.469  0.00  0.00    +0.155 HD
BRANCH   8  11
ATOM     11  C   UNL     1      32.842  -9.434 -23.492  0.00  0.00    +0.064 C 
ATOM     12  C   UNL     1      33.777  -8.441 -23.739  0.00  0.00    +0.055 C 
ATOM     13  C   UNL     1      31.576  -9.128 -23.018  0.00  0.00    +0.016 C 
ATOM     14  C   UNL     1      33.437  -7.108 -23.505  0.00  0.00    +0.015 C 
ATOM     15  C   UNL     1      31.236  -7.796 -22.784  0.00  0.00    +0.001 C 
ATOM     16  C   UNL     1      32.167  -6.786 -23.028  0.00  0.00    +0.001 C 
BRANCH  12  17
ATOM     17  N   UNL     1      35.069  -8.745 -24.224  0.00  0.00    -0.356 N 
ATOM     18  H   UNL     1      35.410  -8.293 -25.029  0.00  0.00    +0.142 HD
ATOM     19  H   UNL     1      35.627  -9.407 -23.756  0.00  0.00    +0.142 HD
ENDBRANCH  12  17
ENDBRANCH   8  11
ENDBRANCH   2   9
BRANCH   1  20
ATOM     20  C   UNL     1      34.811 -16.954 -24.819  0.00  0.00    +0.119 C 
BRANCH  20  22
ATOM     21  O   UNL     1      34.397 -19.828 -24.770  0.00  0.00    -0.226 OA
ATOM     22  N   UNL     1      35.046 -17.864 -23.722  0.00  0.00    -0.267 N 
ATOM     23  C   UNL     1      34.819 -19.222 -23.792  0.00  0.00    +0.402 C 
ATOM     24  H   UNL     1      35.388 -17.493 -22.876  0.00  0.00    +0.153 HD
BRANCH  23  25
ATOM     25  O   UNL     1      35.136 -19.804 -22.597  0.00  0.00    -0.430 OA
BRANCH  25  26
ATOM     26  C   UNL     1      34.404 -19.335 -21.459  0.00  0.00    +0.238 C 
BRANCH  26  28
ATOM     27  N   UNL     1      32.457 -21.881 -19.477  0.00  0.00    -0.243 NA
ATOM     28  C   UNL     1      34.102 -20.497 -20.558  0.00  0.00    +0.040 C 
ATOM     29  C   UNL     1      35.127 -21.233 -19.992  0.00  0.00    +0.002 C 
ATOM     30  C   UNL     1      32.798 -20.848 -20.279  0.00  0.00    +0.098 C 
ATOM     31  C   UNL     1      34.816 -22.303 -19.161  0.00  0.00    +0.020 C 
ATOM     32  C   UNL     1      33.478 -22.584 -18.937  0.00  0.00    +0.099 C 
ENDBRANCH  26  28
ENDBRANCH  25  26
ENDBRANCH  23  25
ENDBRANCH  20  22
ENDBRANCH   1  20
TORSDOF 8
ENDMDL
MODEL 9
REMARK VINA RESULT:     -10.4      2.681      9.723
REMARK  Name = 4261
REMARK  8 active torsions:
REMARK  status: ('A' for Active; 'I' for Inactive)
REMARK    1  A    between atoms: C_1  and  C_20
REMARK    2  A    between atoms: C_2  and  C_9
REMARK    3  A    between atoms: N_8  and  C_11
REMARK    4  A    between atoms: C_12  and  N_17
REMARK    5  A    between atoms: C_20  and  N_22
REMARK    6  A    between atoms: C_23  and  O_25
REMARK    7  A    between atoms: O_25  and  C_26
REMARK    8  A    between atoms: C_26  and  C_28
REMARK                            x       y       z     vdW  Elec       q    Type
REMARK                         _______ _______ _______ _____ _____    ______ ____
ROOT
ATOM      1  C   UNL     1      33.916 -22.625 -18.697  0.00  0.00    -0.002 C 
ATOM      2  C   UNL     1      34.845 -20.614 -20.376  0.00  0.00    +0.054 C 
ATOM      3  C   UNL     1      33.012 -21.890 -19.456  0.00  0.00    -0.002 C 
ATOM      4  C   UNL     1      35.279 -22.364 -18.769  0.00  0.00    -0.002 C 
ATOM      5  C   UNL     1      33.478 -20.882 -20.298  0.00  0.00    +0.004 C 
ATOM      6  C   UNL     1      35.746 -21.356 -19.611  0.00  0.00    +0.004 C 
ENDROOT
BRANCH   2   9
ATOM      7  O   UNL     1      36.554 -19.368 -21.345  0.00  0.00    -0.270 OA
ATOM      8  N   UNL     1      34.348 -18.850 -21.959  0.00  0.00    -0.279 N 
ATOM      9  C   UNL     1      35.331 -19.561 -21.253  0.00  0.00    +0.250 C 
ATOM     10  H   UNL     1      33.418 -19.118 -21.782  0.00  0.00    +0.155 HD
BRANCH   8  11
ATOM     11  C   UNL     1      34.520 -17.800 -22.893  0.00  0.00    +0.064 C 
ATOM     12  C   UNL     1      34.442 -18.053 -24.253  0.00  0.00    +0.055 C 
ATOM     13  C   UNL     1      34.766 -16.524 -22.410  0.00  0.00    +0.016 C 
ATOM     14  C   UNL     1      34.615 -17.001 -25.154  0.00  0.00    +0.015 C 
ATOM     15  C   UNL     1      34.939 -15.474 -23.310  0.00  0.00    +0.001 C 
ATOM     16  C   UNL     1      34.864 -15.712 -24.682  0.00  0.00    +0.001 C 
BRANCH  12  17
ATOM     17  N   UNL     1      34.190 -19.350 -24.752  0.00  0.00    -0.356 N 
ATOM     18  H   UNL     1      33.310 -19.767 -24.614  0.00  0.00    +0.142 HD
ATOM     19  H   UNL     1      34.895 -19.835 -25.238  0.00  0.00    +0.142 HD
ENDBRANCH  12  17
ENDBRANCH   8  11
ENDBRANCH   2   9
BRANCH   1  20
ATOM     20  C   UNL     1      33.414 -23.712 -17.792  0.00  0.00    +0.119 C 
BRANCH  20  22
ATOM     21  O   UNL     1      33.454 -24.414 -14.973  0.00  0.00    -0.226 OA
ATOM     22  N   UNL     1      32.574 -23.192 -16.737  0.00  0.00    -0.267 N 
ATOM     23  C   UNL     1      32.667 -23.588 -15.420  0.00  0.00    +0.402 C 
ATOM     24  H   UNL     1      31.897 -22.517 -16.973  0.00  0.00    +0.153 HD
BRANCH  23  25
ATOM     25  O   UNL     1      31.740 -22.917 -14.672  0.00  0.00    -0.430 OA
BRANCH  25  26
ATOM     26  C   UNL     1      30.599 -23.678 -14.261  0.00  0.00    +0.238 C 
BRANCH  26  28
ATOM     27  N   UNL     1      28.039 -22.224 -16.613  0.00  0.00    -0.243 NA
ATOM     28  C   UNL     1      29.543 -23.590 -15.324  0.00  0.00    +0.040 C 
ATOM     29  C   UNL     1      29.105 -24.728 -15.977  0.00  0.00    +0.002 C 
ATOM     30  C   UNL     1      28.992 -22.374 -15.666  0.00  0.00    +0.098 C 
ATOM     31  C   UNL     1      28.125 -24.615 -16.956  0.00  0.00    +0.020 C 
ATOM     32  C   UNL     1      27.629 -23.352 -17.235  0.00  0.00    +0.099 C 
ENDBRANCH  26  28
ENDBRANCH  25  26
ENDBRANCH  23  25
ENDBRANCH  20  22
ENDBRANCH   1  20
TORSDOF 8
ENDMDL
