MODEL 1
REMARK VINA RESULT:     -11.7      0.000      0.000
REMARK  Name = 16040289
REMARK  6 active torsions:
REMARK  status: ('A' for Active; 'I' for Inactive)
REMARK    1  A    between atoms: N_2  and  C_20
REMARK    2  A    between atoms: C_3  and  C_6
REMARK    3  A    between atoms: N_11  and  C_13
REMARK    4  A    between atoms: C_13  and  C_15
REMARK    5  A    between atoms: C_23  and  O_26
REMARK    6  A    between atoms: O_26  and  C_27
REMARK                            x       y       z     vdW  Elec       q    Type
REMARK                         _______ _______ _______ _____ _____    ______ ____
ROOT
ATOM      1  O   UNL     1      33.860 -23.873 -17.877  0.00  0.00    -0.270 OA
ATOM      2  N   UNL     1      32.564 -21.983 -18.404  0.00  0.00    -0.280 N 
ATOM      3  C   UNL     1      32.895 -23.140 -17.686  0.00  0.00    +0.252 C 
ATOM      4  H   UNL     1      31.749 -21.514 -18.113  0.00  0.00    +0.155 HD
ENDROOT
BRANCH   3   6
ATOM      5  N   UNL     1      31.544 -24.191 -14.346  0.00  0.00    -0.229 NA
ATOM      6  C   UNL     1      31.948 -23.511 -16.603  0.00  0.00    +0.085 C 
ATOM      7  C   UNL     1      32.383 -23.848 -15.349  0.00  0.00    +0.133 C 
ATOM      8  C   UNL     1      30.601 -23.512 -16.888  0.00  0.00    +0.009 C 
ATOM      9  C   UNL     1      29.706 -23.859 -15.882  0.00  0.00    +0.021 C 
ATOM     10  C   UNL     1      30.224 -24.188 -14.639  0.00  0.00    +0.100 C 
ATOM     11  N   UNL     1      33.774 -23.841 -15.073  0.00  0.00    -0.314 N 
ATOM     12  H   UNL     1      34.397 -23.592 -15.794  0.00  0.00    +0.149 HD
BRANCH  11  13
ATOM     13  C   UNL     1      34.306 -24.179 -13.794  0.00  0.00    +0.115 C 
BRANCH  13  15
ATOM     14  N   UNL     1      37.642 -26.837 -14.209  0.00  0.00    -0.242 NA
ATOM     15  C   UNL     1      35.476 -25.113 -13.940  0.00  0.00    +0.000 C 
ATOM     16  C   UNL     1      35.740 -25.695 -15.168  0.00  0.00    +0.018 C 
ATOM     17  C   UNL     1      36.279 -25.380 -12.844  0.00  0.00    +0.018 C 
ATOM     18  C   UNL     1      36.829 -26.546 -15.250  0.00  0.00    +0.099 C 
ATOM     19  C   UNL     1      37.346 -26.245 -13.031  0.00  0.00    +0.099 C 
ENDBRANCH  13  15
ENDBRANCH  11  13
ENDBRANCH   3   6
BRANCH   2  20
ATOM     20  C   UNL     1      33.247 -21.413 -19.478  0.00  0.00    +0.051 C 
ATOM     21  C   UNL     1      34.622 -21.608 -19.614  0.00  0.00    +0.018 C 
ATOM     22  C   UNL     1      32.555 -20.647 -20.416  0.00  0.00    +0.018 C 
ATOM     23  C   UNL     1      34.613 -20.272 -21.627  0.00  0.00    +0.145 C 
ATOM     24  C   UNL     1      35.304 -21.038 -20.689  0.00  0.00    +0.039 C 
ATOM     25  C   UNL     1      33.238 -20.077 -21.491  0.00  0.00    +0.039 C 
BRANCH  23  26
ATOM     26  O   UNL     1      35.279 -19.714 -22.674  0.00  0.00    -0.453 OA
BRANCH  26  27
ATOM     27  C   UNL     1      35.008 -18.391 -22.978  0.00  0.00    +0.145 C 
ATOM     28  C   UNL     1      35.144 -17.431 -21.989  0.00  0.00    +0.037 C 
ATOM     29  C   UNL     1      34.609 -18.061 -24.260  0.00  0.00    +0.037 C 
ATOM     30  C   UNL     1      34.871 -16.098 -22.295  0.00  0.00    +0.003 C 
ATOM     31  C   UNL     1      34.336 -16.727 -24.566  0.00  0.00    +0.003 C 
ATOM     32  C   UNL     1      34.467 -15.747 -23.583  0.00  0.00    +0.000 C 
ENDBRANCH  26  27
ENDBRANCH  23  26
ENDBRANCH   2  20
TORSDOF 6
ENDMDL
MODEL 2
REMARK VINA RESULT:     -11.6      0.043      1.232
REMARK  Name = 16040289
REMARK  6 active torsions:
REMARK  status: ('A' for Active; 'I' for Inactive)
REMARK    1  A    between atoms: N_2  and  C_20
REMARK    2  A    between atoms: C_3  and  C_6
REMARK    3  A    between atoms: N_11  and  C_13
REMARK    4  A    between atoms: C_13  and  C_15
REMARK    5  A    between atoms: C_23  and  O_26
REMARK    6  A    between atoms: O_26  and  C_27
REMARK                            x       y       z     vdW  Elec       q    Type
REMARK                         _______ _______ _______ _____ _____    ______ ____
ROOT
ATOM      1  O   UNL     1      33.820 -23.877 -17.898  0.00  0.00    -0.270 OA
ATOM      2  N   UNL     1      32.547 -21.965 -18.400  0.00  0.00    -0.280 N 
ATOM      3  C   UNL     1      32.867 -23.132 -17.694  0.00  0.00    +0.252 C 
ATOM      4  H   UNL     1      31.740 -21.487 -18.099  0.00  0.00    +0.155 HD
ENDROOT
BRANCH   3   6
ATOM      5  N   UNL     1      31.527 -24.182 -14.350  0.00  0.00    -0.229 NA
ATOM      6  C   UNL     1      31.923 -23.499 -16.607  0.00  0.00    +0.085 C 
ATOM      7  C   UNL     1      32.363 -23.843 -15.356  0.00  0.00    +0.133 C 
ATOM      8  C   UNL     1      30.575 -23.486 -16.883  0.00  0.00    +0.009 C 
ATOM      9  C   UNL     1      29.682 -23.829 -15.873  0.00  0.00    +0.021 C 
ATOM     10  C   UNL     1      30.205 -24.166 -14.634  0.00  0.00    +0.100 C 
ATOM     11  N   UNL     1      33.755 -23.850 -15.089  0.00  0.00    -0.314 N 
ATOM     12  H   UNL     1      34.376 -23.604 -15.813  0.00  0.00    +0.149 HD
BRANCH  11  13
ATOM     13  C   UNL     1      34.292 -24.197 -13.814  0.00  0.00    +0.115 C 
BRANCH  13  15
ATOM     14  N   UNL     1      37.660 -26.807 -14.267  0.00  0.00    -0.242 NA
ATOM     15  C   UNL     1      35.475 -25.112 -13.972  0.00  0.00    +0.000 C 
ATOM     16  C   UNL     1      36.316 -25.338 -12.897  0.00  0.00    +0.018 C 
ATOM     17  C   UNL     1      35.709 -25.722 -15.193  0.00  0.00    +0.018 C 
ATOM     18  C   UNL     1      37.390 -26.189 -13.095  0.00  0.00    +0.099 C 
ATOM     19  C   UNL     1      36.811 -26.557 -15.288  0.00  0.00    +0.099 C 
ENDBRANCH  13  15
ENDBRANCH  11  13
ENDBRANCH   3   6
BRANCH   2  20
ATOM     20  C   UNL     1      33.229 -21.396 -19.475  0.00  0.00    +0.051 C 
ATOM     21  C   UNL     1      32.538 -20.634 -20.417  0.00  0.00    +0.018 C 
ATOM     22  C   UNL     1      34.604 -21.591 -19.609  0.00  0.00    +0.018 C 
ATOM     23  C   UNL     1      34.596 -20.260 -21.627  0.00  0.00    +0.145 C 
ATOM     24  C   UNL     1      33.221 -20.066 -21.492  0.00  0.00    +0.039 C 
ATOM     25  C   UNL     1      35.287 -21.022 -20.685  0.00  0.00    +0.039 C 
BRANCH  23  26
ATOM     26  O   UNL     1      35.262 -19.707 -22.676  0.00  0.00    -0.453 OA
BRANCH  26  27
ATOM     27  C   UNL     1      35.014 -18.377 -22.968  0.00  0.00    +0.145 C 
ATOM     28  C   UNL     1      35.138 -17.433 -21.964  0.00  0.00    +0.037 C 
ATOM     29  C   UNL     1      34.648 -18.026 -24.255  0.00  0.00    +0.037 C 
ATOM     30  C   UNL     1      34.887 -16.092 -22.258  0.00  0.00    +0.003 C 
ATOM     31  C   UNL     1      34.397 -16.685 -24.549  0.00  0.00    +0.003 C 
ATOM     32  C   UNL     1      34.516 -15.719 -23.550  0.00  0.00    +0.000 C 
ENDBRANCH  26  27
ENDBRANCH  23  26
ENDBRANCH   2  20
TORSDOF 6
ENDMDL
MODEL 3
REMARK VINA RESULT:     -10.6      1.560      4.640
REMARK  Name = 16040289
REMARK  6 active torsions:
REMARK  status: ('A' for Active; 'I' for Inactive)
REMARK    1  A    between atoms: N_2  and  C_20
REMARK    2  A    between atoms: C_3  and  C_6
REMARK    3  A    between atoms: N_11  and  C_13
REMARK    4  A    between atoms: C_13  and  C_15
REMARK    5  A    between atoms: C_23  and  O_26
REMARK    6  A    between atoms: O_26  and  C_27
REMARK                            x       y       z     vdW  Elec       q    Type
REMARK                         _______ _______ _______ _____ _____    ______ ____
ROOT
ATOM      1  O   UNL     1      33.450 -24.061 -17.944  0.00  0.00    -0.270 OA
ATOM      2  N   UNL     1      34.957 -22.275 -17.689  0.00  0.00    -0.280 N 
ATOM      3  C   UNL     1      34.233 -23.399 -17.272  0.00  0.00    +0.252 C 
ATOM      4  H   UNL     1      35.543 -21.864 -17.013  0.00  0.00    +0.155 HD
ENDROOT
BRANCH   3   6
ATOM      5  N   UNL     1      33.531 -24.271 -13.689  0.00  0.00    -0.229 NA
ATOM      6  C   UNL     1      34.431 -23.794 -15.853  0.00  0.00    +0.085 C 
ATOM      7  C   UNL     1      33.379 -23.914 -14.984  0.00  0.00    +0.133 C 
ATOM      8  C   UNL     1      35.713 -24.043 -15.420  0.00  0.00    +0.009 C 
ATOM      9  C   UNL     1      35.910 -24.413 -14.094  0.00  0.00    +0.021 C 
ATOM     10  C   UNL     1      34.795 -24.511 -13.276  0.00  0.00    +0.100 C 
ATOM     11  N   UNL     1      32.064 -23.655 -15.448  0.00  0.00    -0.314 N 
ATOM     12  H   UNL     1      31.938 -23.395 -16.389  0.00  0.00    +0.149 HD
BRANCH  11  13
ATOM     13  C   UNL     1      30.918 -23.758 -14.606  0.00  0.00    +0.115 C 
BRANCH  13  15
ATOM     14  N   UNL     1      27.326 -23.517 -16.932  0.00  0.00    -0.242 NA
ATOM     15  C   UNL     1      29.656 -23.672 -15.422  0.00  0.00    +0.000 C 
ATOM     16  C   UNL     1      28.916 -22.504 -15.419  0.00  0.00    +0.018 C 
ATOM     17  C   UNL     1      29.250 -24.765 -16.168  0.00  0.00    +0.018 C 
ATOM     18  C   UNL     1      27.763 -22.476 -16.186  0.00  0.00    +0.099 C 
ATOM     19  C   UNL     1      28.082 -24.636 -16.904  0.00  0.00    +0.099 C 
ENDBRANCH  13  15
ENDBRANCH  11  13
ENDBRANCH   3   6
BRANCH   2  20
ATOM     20  C   UNL     1      34.951 -21.666 -18.944  0.00  0.00    +0.051 C 
ATOM     21  C   UNL     1      33.741 -21.406 -19.588  0.00  0.00    +0.018 C 
ATOM     22  C   UNL     1      36.155 -21.318 -19.556  0.00  0.00    +0.018 C 
ATOM     23  C   UNL     1      34.940 -20.449 -21.455  0.00  0.00    +0.145 C 
ATOM     24  C   UNL     1      33.736 -20.797 -20.843  0.00  0.00    +0.039 C 
ATOM     25  C   UNL     1      36.150 -20.709 -20.811  0.00  0.00    +0.039 C 
BRANCH  23  26
ATOM     26  O   UNL     1      34.935 -19.857 -22.680  0.00  0.00    -0.453 OA
BRANCH  26  27
ATOM     27  C   UNL     1      34.858 -18.475 -22.727  0.00  0.00    +0.145 C 
ATOM     28  C   UNL     1      35.003 -17.752 -21.556  0.00  0.00    +0.037 C 
ATOM     29  C   UNL     1      34.638 -17.854 -23.943  0.00  0.00    +0.037 C 
ATOM     30  C   UNL     1      34.924 -16.360 -21.604  0.00  0.00    +0.003 C 
ATOM     31  C   UNL     1      34.559 -16.461 -23.991  0.00  0.00    +0.003 C 
ATOM     32  C   UNL     1      34.703 -15.715 -22.821  0.00  0.00    +0.000 C 
ENDBRANCH  26  27
ENDBRANCH  23  26
ENDBRANCH   2  20
TORSDOF 6
ENDMDL
MODEL 4
REMARK VINA RESULT:     -10.4      1.584      2.179
REMARK  Name = 16040289
REMARK  6 active torsions:
REMARK  status: ('A' for Active; 'I' for Inactive)
REMARK    1  A    between atoms: N_2  and  C_20
REMARK    2  A    between atoms: C_3  and  C_6
REMARK    3  A    between atoms: N_11  and  C_13
REMARK    4  A    between atoms: C_13  and  C_15
REMARK    5  A    between atoms: C_23  and  O_26
REMARK    6  A    between atoms: O_26  and  C_27
REMARK                            x       y       z     vdW  Elec       q    Type
REMARK                         _______ _______ _______ _____ _____    ______ ____
ROOT
ATOM      1  O   UNL     1      30.809 -21.984 -17.565  0.00  0.00    -0.270 OA
ATOM      2  N   UNL     1      32.802 -23.231 -17.523  0.00  0.00    -0.280 N 
ATOM      3  C   UNL     1      31.476 -22.938 -17.178  0.00  0.00    +0.252 C 
ATOM      4  H   UNL     1      33.183 -24.043 -17.116  0.00  0.00    +0.155 HD
ENDROOT
BRANCH   3   6
ATOM      5  N   UNL     1      30.931 -25.153 -14.198  0.00  0.00    -0.229 NA
ATOM      6  C   UNL     1      30.842 -23.881 -16.221  0.00  0.00    +0.085 C 
ATOM      7  C   UNL     1      31.484 -24.295 -15.084  0.00  0.00    +0.133 C 
ATOM      8  C   UNL     1      29.575 -24.341 -16.503  0.00  0.00    +0.009 C 
ATOM      9  C   UNL     1      28.973 -25.225 -15.615  0.00  0.00    +0.021 C 
ATOM     10  C   UNL     1      29.687 -25.597 -14.487  0.00  0.00    +0.100 C 
ATOM     11  N   UNL     1      32.788 -23.811 -14.810  0.00  0.00    -0.314 N 
ATOM     12  H   UNL     1      33.202 -23.184 -15.446  0.00  0.00    +0.149 HD
BRANCH  11  13
ATOM     13  C   UNL     1      33.521 -24.194 -13.648  0.00  0.00    +0.115 C 
BRANCH  13  15
ATOM     14  N   UNL     1      37.733 -23.796 -14.337  0.00  0.00    -0.242 NA
ATOM     15  C   UNL     1      35.000 -24.053 -13.889  0.00  0.00    +0.000 C 
ATOM     16  C   UNL     1      35.816 -23.573 -12.881  0.00  0.00    +0.018 C 
ATOM     17  C   UNL     1      35.528 -24.407 -15.119  0.00  0.00    +0.018 C 
ATOM     18  C   UNL     1      37.170 -23.463 -13.153  0.00  0.00    +0.099 C 
ATOM     19  C   UNL     1      36.896 -24.261 -15.291  0.00  0.00    +0.099 C 
ENDBRANCH  13  15
ENDBRANCH  11  13
ENDBRANCH   3   6
BRANCH   2  20
ATOM     20  C   UNL     1      33.648 -22.516 -18.370  0.00  0.00    +0.051 C 
ATOM     21  C   UNL     1      35.023 -22.504 -18.136  0.00  0.00    +0.018 C 
ATOM     22  C   UNL     1      33.118 -21.813 -19.453  0.00  0.00    +0.018 C 
ATOM     23  C   UNL     1      35.340 -21.086 -20.066  0.00  0.00    +0.145 C 
ATOM     24  C   UNL     1      35.869 -21.789 -18.984  0.00  0.00    +0.039 C 
ATOM     25  C   UNL     1      33.965 -21.098 -20.301  0.00  0.00    +0.039 C 
BRANCH  23  26
ATOM     26  O   UNL     1      36.164 -20.387 -20.892  0.00  0.00    -0.453 OA
BRANCH  26  27
ATOM     27  C   UNL     1      35.589 -19.452 -21.736  0.00  0.00    +0.145 C 
ATOM     28  C   UNL     1      34.960 -19.883 -22.890  0.00  0.00    +0.037 C 
ATOM     29  C   UNL     1      35.659 -18.111 -21.405  0.00  0.00    +0.037 C 
ATOM     30  C   UNL     1      34.381 -18.941 -23.741  0.00  0.00    +0.003 C 
ATOM     31  C   UNL     1      35.081 -17.169 -22.255  0.00  0.00    +0.003 C 
ATOM     32  C   UNL     1      34.442 -17.585 -23.423  0.00  0.00    +0.000 C 
ENDBRANCH  26  27
ENDBRANCH  23  26
ENDBRANCH   2  20
TORSDOF 6
ENDMDL
MODEL 5
REMARK VINA RESULT:     -10.4      6.585     12.562
REMARK  Name = 16040289
REMARK  6 active torsions:
REMARK  status: ('A' for Active; 'I' for Inactive)
REMARK    1  A    between atoms: N_2  and  C_20
REMARK    2  A    between atoms: C_3  and  C_6
REMARK    3  A    between atoms: N_11  and  C_13
REMARK    4  A    between atoms: C_13  and  C_15
REMARK    5  A    between atoms: C_23  and  O_26
REMARK    6  A    between atoms: O_26  and  C_27
REMARK                            x       y       z     vdW  Elec       q    Type
REMARK                         _______ _______ _______ _____ _____    ______ ____
ROOT
ATOM      1  O   UNL     1      31.378 -13.715 -20.959  0.00  0.00    -0.270 OA
ATOM      2  N   UNL     1      33.520 -13.286 -21.827  0.00  0.00    -0.280 N 
ATOM      3  C   UNL     1      32.264 -12.944 -21.310  0.00  0.00    +0.252 C 
ATOM      4  H   UNL     1      34.110 -12.533 -22.059  0.00  0.00    +0.155 HD
ENDROOT
BRANCH   3   6
ATOM      5  N   UNL     1      32.111  -9.288 -22.145  0.00  0.00    -0.229 NA
ATOM      6  C   UNL     1      31.990 -11.486 -21.211  0.00  0.00    +0.085 C 
ATOM      7  C   UNL     1      32.346 -10.617 -22.209  0.00  0.00    +0.133 C 
ATOM      8  C   UNL     1      31.362 -11.017 -20.081  0.00  0.00    +0.009 C 
ATOM      9  C   UNL     1      31.102  -9.654 -19.978  0.00  0.00    +0.021 C 
ATOM     10  C   UNL     1      31.494  -8.839 -21.028  0.00  0.00    +0.100 C 
ATOM     11  N   UNL     1      32.991 -11.119 -23.367  0.00  0.00    -0.314 N 
ATOM     12  H   UNL     1      33.168 -12.085 -23.428  0.00  0.00    +0.149 HD
BRANCH  11  13
ATOM     13  C   UNL     1      33.393 -10.279 -24.448  0.00  0.00    +0.115 C 
BRANCH  13  15
ATOM     14  N   UNL     1      34.530 -12.638 -27.841  0.00  0.00    -0.242 NA
ATOM     15  C   UNL     1      33.792 -11.108 -25.638  0.00  0.00    +0.000 C 
ATOM     16  C   UNL     1      33.363 -12.420 -25.735  0.00  0.00    +0.018 C 
ATOM     17  C   UNL     1      34.584 -10.548 -26.627  0.00  0.00    +0.018 C 
ATOM     18  C   UNL     1      33.758 -13.140 -26.851  0.00  0.00    +0.099 C 
ATOM     19  C   UNL     1      34.923 -11.352 -27.703  0.00  0.00    +0.099 C 
ENDBRANCH  13  15
ENDBRANCH  11  13
ENDBRANCH   3   6
BRANCH   2  20
ATOM     20  C   UNL     1      34.037 -14.561 -22.054  0.00  0.00    +0.051 C 
ATOM     21  C   UNL     1      34.207 -15.023 -23.359  0.00  0.00    +0.018 C 
ATOM     22  C   UNL     1      34.385 -15.375 -20.975  0.00  0.00    +0.018 C 
ATOM     23  C   UNL     1      35.072 -17.113 -22.508  0.00  0.00    +0.145 C 
ATOM     24  C   UNL     1      34.725 -16.299 -23.586  0.00  0.00    +0.039 C 
ATOM     25  C   UNL     1      34.902 -16.650 -21.203  0.00  0.00    +0.039 C 
BRANCH  23  26
ATOM     26  O   UNL     1      35.575 -18.357 -22.729  0.00  0.00    -0.453 OA
BRANCH  26  27
ATOM     27  C   UNL     1      35.320 -19.332 -21.779  0.00  0.00    +0.145 C 
ATOM     28  C   UNL     1      36.377 -19.868 -21.064  0.00  0.00    +0.037 C 
ATOM     29  C   UNL     1      34.017 -19.747 -21.571  0.00  0.00    +0.037 C 
ATOM     30  C   UNL     1      36.121 -20.852 -20.108  0.00  0.00    +0.003 C 
ATOM     31  C   UNL     1      33.761 -20.730 -20.615  0.00  0.00    +0.003 C 
ATOM     32  C   UNL     1      34.813 -21.282 -19.884  0.00  0.00    +0.000 C 
ENDBRANCH  26  27
ENDBRANCH  23  26
ENDBRANCH   2  20
TORSDOF 6
ENDMDL
MODEL 6
REMARK VINA RESULT:     -10.3      1.758      4.470
REMARK  Name = 16040289
REMARK  6 active torsions:
REMARK  status: ('A' for Active; 'I' for Inactive)
REMARK    1  A    between atoms: N_2  and  C_20
REMARK    2  A    between atoms: C_3  and  C_6
REMARK    3  A    between atoms: N_11  and  C_13
REMARK    4  A    between atoms: C_13  and  C_15
REMARK    5  A    between atoms: C_23  and  O_26
REMARK    6  A    between atoms: O_26  and  C_27
REMARK                            x       y       z     vdW  Elec       q    Type
REMARK                         _______ _______ _______ _____ _____    ______ ____
ROOT
ATOM      1  O   UNL     1      36.909 -21.607 -16.298  0.00  0.00    -0.270 OA
ATOM      2  N   UNL     1      35.342 -23.095 -17.224  0.00  0.00    -0.280 N 
ATOM      3  C   UNL     1      36.321 -22.683 -16.311  0.00  0.00    +0.252 C 
ATOM      4  H   UNL     1      34.975 -23.998 -17.084  0.00  0.00    +0.155 HD
ENDROOT
BRANCH   3   6
ATOM      5  N   UNL     1      36.076 -25.066 -13.421  0.00  0.00    -0.229 NA
ATOM      6  C   UNL     1      36.687 -23.683 -15.274  0.00  0.00    +0.085 C 
ATOM      7  C   UNL     1      35.769 -24.158 -14.375  0.00  0.00    +0.133 C 
ATOM      8  C   UNL     1      37.988 -24.131 -15.232  0.00  0.00    +0.009 C 
ATOM      9  C   UNL     1      38.342 -25.066 -14.265  0.00  0.00    +0.021 C 
ATOM     10  C   UNL     1      37.357 -25.497 -13.391  0.00  0.00    +0.100 C 
ATOM     11  N   UNL     1      34.434 -23.686 -14.433  0.00  0.00    -0.314 N 
ATOM     12  H   UNL     1      34.196 -23.025 -15.123  0.00  0.00    +0.149 HD
BRANCH  11  13
ATOM     13  C   UNL     1      33.421 -24.131 -13.533  0.00  0.00    +0.115 C 
BRANCH  13  15
ATOM     14  N   UNL     1      29.639 -24.379 -15.533  0.00  0.00    -0.242 NA
ATOM     15  C   UNL     1      32.094 -24.217 -14.235  0.00  0.00    +0.000 C 
ATOM     16  C   UNL     1      31.761 -23.273 -15.190  0.00  0.00    +0.018 C 
ATOM     17  C   UNL     1      31.218 -25.242 -13.918  0.00  0.00    +0.018 C 
ATOM     18  C   UNL     1      30.528 -23.397 -15.808  0.00  0.00    +0.099 C 
ATOM     19  C   UNL     1      30.008 -25.278 -14.594  0.00  0.00    +0.099 C 
ENDBRANCH  13  15
ENDBRANCH  11  13
ENDBRANCH   3   6
BRANCH   2  20
ATOM     20  C   UNL     1      34.824 -22.385 -18.306  0.00  0.00    +0.051 C 
ATOM     21  C   UNL     1      35.683 -21.720 -19.181  0.00  0.00    +0.018 C 
ATOM     22  C   UNL     1      33.445 -22.340 -18.514  0.00  0.00    +0.018 C 
ATOM     23  C   UNL     1      33.785 -20.964 -20.472  0.00  0.00    +0.145 C 
ATOM     24  C   UNL     1      35.163 -21.010 -20.264  0.00  0.00    +0.039 C 
ATOM     25  C   UNL     1      32.926 -21.630 -19.597  0.00  0.00    +0.039 C 
BRANCH  23  26
ATOM     26  O   UNL     1      33.278 -20.270 -21.526  0.00  0.00    -0.453 OA
BRANCH  26  27
ATOM     27  C   UNL     1      34.091 -19.324 -22.125  0.00  0.00    +0.145 C 
ATOM     28  C   UNL     1      34.379 -19.439 -23.474  0.00  0.00    +0.037 C 
ATOM     29  C   UNL     1      34.596 -18.287 -21.361  0.00  0.00    +0.037 C 
ATOM     30  C   UNL     1      35.200 -18.486 -24.077  0.00  0.00    +0.003 C 
ATOM     31  C   UNL     1      35.417 -17.334 -21.964  0.00  0.00    +0.003 C 
ATOM     32  C   UNL     1      35.718 -17.434 -23.322  0.00  0.00    +0.000 C 
ENDBRANCH  26  27
ENDBRANCH  23  26
ENDBRANCH   2  20
TORSDOF 6
ENDMDL
MODEL 7
REMARK VINA RESULT:     -10.2      6.252     12.601
REMARK  Name = 16040289
REMARK  6 active torsions:
REMARK  status: ('A' for Active; 'I' for Inactive)
REMARK    1  A    between atoms: N_2  and  C_20
REMARK    2  A    between atoms: C_3  and  C_6
REMARK    3  A    between atoms: N_11  and  C_13
REMARK    4  A    between atoms: C_13  and  C_15
REMARK    5  A    between atoms: C_23  and  O_26
REMARK    6  A    between atoms: O_26  and  C_27
REMARK                            x       y       z     vdW  Elec       q    Type
REMARK                         _______ _______ _______ _____ _____    ______ ____
ROOT
ATOM      1  O   UNL     1      32.929 -13.911 -23.184  0.00  0.00    -0.270 OA
ATOM      2  N   UNL     1      34.602 -14.974 -24.448  0.00  0.00    -0.280 N 
ATOM      3  C   UNL     1      33.667 -13.971 -24.162  0.00  0.00    +0.252 C 
ATOM      4  H   UNL     1      35.113 -14.862 -25.283  0.00  0.00    +0.155 HD
ENDROOT
BRANCH   3   6
ATOM      5  N   UNL     1      33.202 -10.592 -25.726  0.00  0.00    -0.229 NA
ATOM      6  C   UNL     1      33.558 -12.892 -25.177  0.00  0.00    +0.085 C 
ATOM      7  C   UNL     1      33.308 -11.592 -24.823  0.00  0.00    +0.133 C 
ATOM      8  C   UNL     1      33.715 -13.227 -26.503  0.00  0.00    +0.009 C 
ATOM      9  C   UNL     1      33.614 -12.225 -27.462  0.00  0.00    +0.021 C 
ATOM     10  C   UNL     1      33.358 -10.934 -27.025  0.00  0.00    +0.100 C 
ATOM     11  N   UNL     1      33.150 -11.265 -23.453  0.00  0.00    -0.314 N 
ATOM     12  H   UNL     1      33.225 -11.984 -22.784  0.00  0.00    +0.149 HD
BRANCH  11  13
ATOM     13  C   UNL     1      32.887  -9.937 -23.005  0.00  0.00    +0.115 C 
BRANCH  13  15
ATOM     14  N   UNL     1      30.517 -10.001 -19.435  0.00  0.00    -0.242 NA
ATOM     15  C   UNL     1      32.056  -9.959 -21.752  0.00  0.00    +0.000 C 
ATOM     16  C   UNL     1      32.114  -8.892 -20.872  0.00  0.00    +0.018 C 
ATOM     17  C   UNL     1      31.240 -11.047 -21.491  0.00  0.00    +0.018 C 
ATOM     18  C   UNL     1      31.328  -8.961 -19.733  0.00  0.00    +0.099 C 
ATOM     19  C   UNL     1      30.493 -11.019 -20.324  0.00  0.00    +0.099 C 
ENDBRANCH  13  15
ENDBRANCH  11  13
ENDBRANCH   3   6
BRANCH   2  20
ATOM     20  C   UNL     1      34.900 -16.111 -23.698  0.00  0.00    +0.051 C 
ATOM     21  C   UNL     1      34.976 -16.030 -22.307  0.00  0.00    +0.018 C 
ATOM     22  C   UNL     1      35.123 -17.330 -24.338  0.00  0.00    +0.018 C 
ATOM     23  C   UNL     1      35.497 -18.387 -22.197  0.00  0.00    +0.145 C 
ATOM     24  C   UNL     1      35.274 -17.168 -21.557  0.00  0.00    +0.039 C 
ATOM     25  C   UNL     1      35.421 -18.468 -23.587  0.00  0.00    +0.039 C 
BRANCH  23  26
ATOM     26  O   UNL     1      35.790 -19.496 -21.466  0.00  0.00    -0.453 OA
BRANCH  26  27
ATOM     27  C   UNL     1      34.736 -20.186 -20.892  0.00  0.00    +0.145 C 
ATOM     28  C   UNL     1      33.439 -19.817 -21.205  0.00  0.00    +0.037 C 
ATOM     29  C   UNL     1      35.005 -21.225 -20.020  0.00  0.00    +0.037 C 
ATOM     30  C   UNL     1      32.377 -20.511 -20.625  0.00  0.00    +0.003 C 
ATOM     31  C   UNL     1      33.942 -21.919 -19.440  0.00  0.00    +0.003 C 
ATOM     32  C   UNL     1      32.629 -21.562 -19.743  0.00  0.00    +0.000 C 
ENDBRANCH  26  27
ENDBRANCH  23  26
ENDBRANCH   2  20
TORSDOF 6
ENDMDL
MODEL 8
REMARK VINA RESULT:     -10.2      2.094      4.766
REMARK  Name = 16040289
REMARK  6 active torsions:
REMARK  status: ('A' for Active; 'I' for Inactive)
REMARK    1  A    between atoms: N_2  and  C_20
REMARK    2  A    between atoms: C_3  and  C_6
REMARK    3  A    between atoms: N_11  and  C_13
REMARK    4  A    between atoms: C_13  and  C_15
REMARK    5  A    between atoms: C_23  and  O_26
REMARK    6  A    between atoms: O_26  and  C_27
REMARK                            x       y       z     vdW  Elec       q    Type
REMARK                         _______ _______ _______ _____ _____    ______ ____
ROOT
ATOM      1  O   UNL     1      36.839 -24.800 -15.641  0.00  0.00    -0.270 OA
ATOM      2  N   UNL     1      35.409 -22.935 -15.688  0.00  0.00    -0.280 N 
ATOM      3  C   UNL     1      36.104 -23.991 -15.085  0.00  0.00    +0.252 C 
ATOM      4  H   UNL     1      34.861 -22.380 -15.087  0.00  0.00    +0.155 HD
ENDROOT
BRANCH   3   6
ATOM      5  N   UNL     1      34.459 -24.654 -11.778  0.00  0.00    -0.229 NA
ATOM      6  C   UNL     1      35.892 -24.140 -13.622  0.00  0.00    +0.085 C 
ATOM      7  C   UNL     1      34.680 -24.512 -13.104  0.00  0.00    +0.133 C 
ATOM      8  C   UNL     1      36.954 -23.895 -12.782  0.00  0.00    +0.009 C 
ATOM      9  C   UNL     1      36.767 -24.031 -11.410  0.00  0.00    +0.021 C 
ATOM     10  C   UNL     1      35.510 -24.410 -10.963  0.00  0.00    +0.100 C 
ATOM     11  N   UNL     1      33.597 -24.762 -13.984  0.00  0.00    -0.314 N 
ATOM     12  H   UNL     1      33.744 -24.663 -14.952  0.00  0.00    +0.149 HD
BRANCH  11  13
ATOM     13  C   UNL     1      32.305 -25.152 -13.522  0.00  0.00    +0.115 C 
BRANCH  13  15
ATOM     14  N   UNL     1      29.276 -23.844 -16.258  0.00  0.00    -0.242 NA
ATOM     15  C   UNL     1      31.242 -24.692 -14.482  0.00  0.00    +0.000 C 
ATOM     16  C   UNL     1      31.496 -23.625 -15.326  0.00  0.00    +0.018 C 
ATOM     17  C   UNL     1      30.020 -25.342 -14.512  0.00  0.00    +0.018 C 
ATOM     18  C   UNL     1      30.485 -23.241 -16.191  0.00  0.00    +0.099 C 
ATOM     19  C   UNL     1      29.075 -24.881 -15.415  0.00  0.00    +0.099 C 
ENDBRANCH  13  15
ENDBRANCH  11  13
ENDBRANCH   3   6
BRANCH   2  20
ATOM     20  C   UNL     1      35.396 -22.573 -17.035  0.00  0.00    +0.051 C 
ATOM     21  C   UNL     1      36.513 -21.961 -17.604  0.00  0.00    +0.018 C 
ATOM     22  C   UNL     1      34.265 -22.822 -17.813  0.00  0.00    +0.018 C 
ATOM     23  C   UNL     1      35.370 -21.847 -19.729  0.00  0.00    +0.145 C 
ATOM     24  C   UNL     1      36.500 -21.599 -18.952  0.00  0.00    +0.039 C 
ATOM     25  C   UNL     1      34.252 -22.459 -19.161  0.00  0.00    +0.039 C 
BRANCH  23  26
ATOM     26  O   UNL     1      35.356 -21.492 -21.043  0.00  0.00    -0.453 OA
BRANCH  26  27
ATOM     27  C   UNL     1      35.438 -20.144 -21.346  0.00  0.00    +0.145 C 
ATOM     28  C   UNL     1      36.677 -19.589 -21.615  0.00  0.00    +0.037 C 
ATOM     29  C   UNL     1      34.281 -19.387 -21.373  0.00  0.00    +0.037 C 
ATOM     30  C   UNL     1      36.761 -18.230 -21.920  0.00  0.00    +0.003 C 
ATOM     31  C   UNL     1      34.365 -18.028 -21.678  0.00  0.00    +0.003 C 
ATOM     32  C   UNL     1      35.605 -17.450 -21.951  0.00  0.00    +0.000 C 
ENDBRANCH  26  27
ENDBRANCH  23  26
ENDBRANCH   2  20
TORSDOF 6
ENDMDL
MODEL 9
REMARK VINA RESULT:     -10.0      3.720      8.251
REMARK  Name = 16040289
REMARK  6 active torsions:
REMARK  status: ('A' for Active; 'I' for Inactive)
REMARK    1  A    between atoms: N_2  and  C_20
REMARK    2  A    between atoms: C_3  and  C_6
REMARK    3  A    between atoms: N_11  and  C_13
REMARK    4  A    between atoms: C_13  and  C_15
REMARK    5  A    between atoms: C_23  and  O_26
REMARK    6  A    between atoms: O_26  and  C_27
REMARK                            x       y       z     vdW  Elec       q    Type
REMARK                         _______ _______ _______ _____ _____    ______ ____
ROOT
ATOM      1  O   UNL     1      35.425 -24.127 -12.472  0.00  0.00    -0.270 OA
ATOM      2  N   UNL     1      34.654 -24.531 -14.656  0.00  0.00    -0.280 N 
ATOM      3  C   UNL     1      35.620 -24.416 -13.648  0.00  0.00    +0.252 C 
ATOM      4  H   UNL     1      34.991 -24.771 -15.549  0.00  0.00    +0.155 HD
ENDROOT
BRANCH   3   6
ATOM      5  N   UNL     1      38.852 -24.142 -15.536  0.00  0.00    -0.229 NA
ATOM      6  C   UNL     1      37.023 -24.646 -14.080  0.00  0.00    +0.085 C 
ATOM      7  C   UNL     1      37.579 -23.952 -15.122  0.00  0.00    +0.133 C 
ATOM      8  C   UNL     1      37.767 -25.585 -13.402  0.00  0.00    +0.009 C 
ATOM      9  C   UNL     1      39.081 -25.809 -13.799  0.00  0.00    +0.021 C 
ATOM     10  C   UNL     1      39.572 -25.068 -14.863  0.00  0.00    +0.100 C 
ATOM     11  N   UNL     1      36.799 -22.988 -15.808  0.00  0.00    -0.314 N 
ATOM     12  H   UNL     1      35.870 -22.838 -15.516  0.00  0.00    +0.149 HD
BRANCH  11  13
ATOM     13  C   UNL     1      37.305 -22.226 -16.902  0.00  0.00    +0.115 C 
BRANCH  13  15
ATOM     14  N   UNL     1      34.292 -21.745 -19.912  0.00  0.00    -0.242 NA
ATOM     15  C   UNL     1      36.247 -22.056 -17.959  0.00  0.00    +0.000 C 
ATOM     16  C   UNL     1      36.535 -21.341 -19.108  0.00  0.00    +0.018 C 
ATOM     17  C   UNL     1      34.996 -22.619 -17.771  0.00  0.00    +0.018 C 
ATOM     18  C   UNL     1      35.528 -21.214 -20.050  0.00  0.00    +0.099 C 
ATOM     19  C   UNL     1      34.057 -22.435 -18.774  0.00  0.00    +0.099 C 
ENDBRANCH  13  15
ENDBRANCH  11  13
ENDBRANCH   3   6
BRANCH   2  20
ATOM     20  C   UNL     1      33.276 -24.347 -14.550  0.00  0.00    +0.051 C 
ATOM     21  C   UNL     1      32.488 -25.317 -13.930  0.00  0.00    +0.018 C 
ATOM     22  C   UNL     1      32.685 -23.192 -15.065  0.00  0.00    +0.018 C 
ATOM     23  C   UNL     1      30.518 -23.978 -14.340  0.00  0.00    +0.145 C 
ATOM     24  C   UNL     1      31.108 -25.132 -13.825  0.00  0.00    +0.039 C 
ATOM     25  C   UNL     1      31.306 -23.008 -14.960  0.00  0.00    +0.039 C 
BRANCH  23  26
ATOM     26  O   UNL     1      29.173 -23.799 -14.239  0.00  0.00    -0.453 OA
BRANCH  26  27
ATOM     27  C   UNL     1      28.466 -23.561 -15.405  0.00  0.00    +0.145 C 
ATOM     28  C   UNL     1      28.527 -24.487 -16.431  0.00  0.00    +0.037 C 
ATOM     29  C   UNL     1      27.716 -22.403 -15.515  0.00  0.00    +0.037 C 
ATOM     30  C   UNL     1      27.815 -24.247 -17.607  0.00  0.00    +0.003 C 
ATOM     31  C   UNL     1      27.005 -22.163 -16.691  0.00  0.00    +0.003 C 
ATOM     32  C   UNL     1      27.054 -23.085 -17.736  0.00  0.00    +0.000 C 
ENDBRANCH  26  27
ENDBRANCH  23  26
ENDBRANCH   2  20
TORSDOF 6
ENDMDL
