MODEL 1
REMARK VINA RESULT:     -12.4      0.000      0.000
REMARK  Name = 24996872
REMARK  6 active torsions:
REMARK  status: ('A' for Active; 'I' for Inactive)
REMARK    1  A    between atoms: O_1  and  C_3
REMARK    2  A    between atoms: O_1  and  C_18
REMARK    3  A    between atoms: C_7  and  C_8
REMARK    4  A    between atoms: C_11  and  S_14
REMARK    5  A    between atoms: C_18  and  C_23
REMARK    6  A    between atoms: C_29  and  C_30
REMARK                            x       y       z     vdW  Elec       q    Type
REMARK                         _______ _______ _______ _____ _____    ______ ____
ROOT
ATOM      1  O   UNL     1      34.815 -16.261 -25.217  0.00  0.00    -0.474 OA
ENDROOT
BRANCH   1   3
ATOM      2  N   UNL     1      33.884 -19.318 -23.429  0.00  0.00    -0.241 NA
ATOM      3  C   UNL     1      34.690 -17.171 -24.196  0.00  0.00    +0.158 C 
ATOM      4  C   UNL     1      35.210 -16.907 -22.934  0.00  0.00    +0.040 C 
ATOM      5  C   UNL     1      34.041 -18.380 -24.391  0.00  0.00    +0.136 C 
ATOM      6  C   UNL     1      35.068 -17.847 -21.919  0.00  0.00    +0.022 C 
ATOM      7  C   UNL     1      34.403 -19.026 -22.216  0.00  0.00    +0.082 C 
BRANCH   7   8
ATOM      8  C   UNL     1      34.219 -20.047 -21.212  0.00  0.00    +0.018 C 
ATOM      9  C   UNL     1      35.325 -20.700 -20.669  0.00  0.00    +0.003 C 
ATOM     10  C   UNL     1      32.934 -20.381 -20.785  0.00  0.00    +0.003 C 
ATOM     11  C   UNL     1      33.861 -22.020 -19.272  0.00  0.00    +0.106 C 
ATOM     12  C   UNL     1      35.146 -21.687 -19.700  0.00  0.00    +0.018 C 
ATOM     13  C   UNL     1      32.754 -21.367 -19.816  0.00  0.00    +0.018 C 
BRANCH  11  14
ATOM     14  S   UNL     1      33.636 -23.254 -18.059  0.00  0.00    +0.010 S 
ATOM     15  O   UNL     1      33.408 -24.520 -18.743  0.00  0.00    -0.169 OA
ATOM     16  O   UNL     1      34.704 -23.149 -17.073  0.00  0.00    -0.169 OA
ATOM     17  C   UNL     1      32.126 -22.798 -17.237  0.00  0.00    +0.182 C 
ENDBRANCH  11  14
ENDBRANCH   7   8
ENDBRANCH   1   3
BRANCH   1  18
ATOM     18  C   UNL     1      33.691 -15.446 -25.494  0.00  0.00    +0.205 C 
BRANCH  18  23
ATOM     19  O   UNL     1      32.860  -9.096 -25.395  0.00  0.00    -0.296 OA
ATOM     20  N   UNL     1      33.290 -11.253 -24.591  0.00  0.00    -0.251 N 
ATOM     21  N   UNL     1      32.827  -9.311 -23.166  0.00  0.00    -0.300 NA
ATOM     22  N   UNL     1      32.570  -7.824 -24.884  0.00  0.00    -0.010 NA
ATOM     23  C   UNL     1      34.012 -14.016 -25.064  0.00  0.00    +0.047 C 
ATOM     24  C   UNL     1      33.154 -13.603 -23.863  0.00  0.00    +0.025 C 
ATOM     25  C   UNL     1      33.782 -13.035 -26.217  0.00  0.00    +0.025 C 
ATOM     26  C   UNL     1      33.437 -12.160 -23.444  0.00  0.00    +0.096 C 
ATOM     27  C   UNL     1      34.058 -11.592 -25.793  0.00  0.00    +0.096 C 
ATOM     28  C   UNL     1      32.995  -9.912 -24.317  0.00  0.00    +0.379 C 
ATOM     29  C   UNL     1      32.568  -8.033 -23.565  0.00  0.00    +0.104 C 
BRANCH  29  30
ATOM     30  C   UNL     1      32.303  -6.954 -22.608  0.00  0.00    +0.101 C 
ATOM     31  C   UNL     1      32.940  -7.198 -21.215  0.00  0.00    +0.017 C 
ATOM     32  C   UNL     1      32.741  -5.558 -23.119  0.00  0.00    +0.017 C 
ENDBRANCH  29  30
ENDBRANCH  18  23
ENDBRANCH   1  18
TORSDOF 6
ENDMDL
MODEL 2
REMARK VINA RESULT:     -11.8      3.796     11.955
REMARK  Name = 24996872
REMARK  6 active torsions:
REMARK  status: ('A' for Active; 'I' for Inactive)
REMARK    1  A    between atoms: O_1  and  C_3
REMARK    2  A    between atoms: O_1  and  C_18
REMARK    3  A    between atoms: C_7  and  C_8
REMARK    4  A    between atoms: C_11  and  S_14
REMARK    5  A    between atoms: C_18  and  C_23
REMARK    6  A    between atoms: C_29  and  C_30
REMARK                            x       y       z     vdW  Elec       q    Type
REMARK                         _______ _______ _______ _____ _____    ______ ____
ROOT
ATOM      1  O   UNL     1      35.121 -18.527 -23.415  0.00  0.00    -0.474 OA
ENDROOT
BRANCH   1   3
ATOM      2  N   UNL     1      34.449 -15.070 -22.415  0.00  0.00    -0.241 NA
ATOM      3  C   UNL     1      34.722 -17.215 -23.496  0.00  0.00    +0.158 C 
ATOM      4  C   UNL     1      34.206 -16.694 -24.677  0.00  0.00    +0.040 C 
ATOM      5  C   UNL     1      34.822 -16.369 -22.403  0.00  0.00    +0.136 C 
ATOM      6  C   UNL     1      33.810 -15.362 -24.728  0.00  0.00    +0.022 C 
ATOM      7  C   UNL     1      33.951 -14.599 -23.581  0.00  0.00    +0.082 C 
BRANCH   7   8
ATOM      8  C   UNL     1      33.562 -13.209 -23.560  0.00  0.00    +0.018 C 
ATOM      9  C   UNL     1      34.129 -12.312 -24.466  0.00  0.00    +0.003 C 
ATOM     10  C   UNL     1      32.617 -12.763 -22.636  0.00  0.00    +0.003 C 
ATOM     11  C   UNL     1      32.807 -10.523 -23.521  0.00  0.00    +0.106 C 
ATOM     12  C   UNL     1      33.752 -10.970 -24.445  0.00  0.00    +0.018 C 
ATOM     13  C   UNL     1      32.240 -11.420 -22.616  0.00  0.00    +0.018 C 
BRANCH  11  14
ATOM     14  S   UNL     1      32.335  -8.843 -23.496  0.00  0.00    +0.010 S 
ATOM     15  O   UNL     1      30.929  -8.777 -23.122  0.00  0.00    -0.169 OA
ATOM     16  O   UNL     1      33.321  -8.086 -22.737  0.00  0.00    -0.169 OA
ATOM     17  C   UNL     1      32.474  -8.319 -25.191  0.00  0.00    +0.182 C 
ENDBRANCH  11  14
ENDBRANCH   7   8
ENDBRANCH   1   3
BRANCH   1  18
ATOM     18  C   UNL     1      35.822 -18.916 -22.248  0.00  0.00    +0.205 C 
BRANCH  18  23
ATOM     19  O   UNL     1      34.273 -22.990 -17.555  0.00  0.00    -0.296 OA
ATOM     20  N   UNL     1      34.000 -21.628 -19.441  0.00  0.00    -0.251 N 
ATOM     21  N   UNL     1      32.151 -22.604 -18.159  0.00  0.00    -0.300 NA
ATOM     22  N   UNL     1      33.474 -23.677 -16.632  0.00  0.00    -0.010 NA
ATOM     23  C   UNL     1      35.128 -20.138 -21.652  0.00  0.00    +0.047 C 
ATOM     24  C   UNL     1      33.786 -19.751 -21.022  0.00  0.00    +0.025 C 
ATOM     25  C   UNL     1      36.014 -20.808 -20.596  0.00  0.00    +0.025 C 
ATOM     26  C   UNL     1      33.097 -20.958 -20.387  0.00  0.00    +0.096 C 
ATOM     27  C   UNL     1      35.318 -22.010 -19.957  0.00  0.00    +0.096 C 
ATOM     28  C   UNL     1      33.415 -22.385 -18.418  0.00  0.00    +0.379 C 
ATOM     29  C   UNL     1      32.237 -23.401 -17.056  0.00  0.00    +0.104 C 
BRANCH  29  30
ATOM     30  C   UNL     1      31.048 -23.923 -16.374  0.00  0.00    +0.101 C 
ATOM     31  C   UNL     1      31.261 -24.146 -14.854  0.00  0.00    +0.017 C 
ATOM     32  C   UNL     1      29.788 -23.045 -16.578  0.00  0.00    +0.017 C 
ENDBRANCH  29  30
ENDBRANCH  18  23
ENDBRANCH   1  18
TORSDOF 6
ENDMDL
MODEL 3
REMARK VINA RESULT:     -11.7      3.658      6.198
REMARK  Name = 24996872
REMARK  6 active torsions:
REMARK  status: ('A' for Active; 'I' for Inactive)
REMARK    1  A    between atoms: O_1  and  C_3
REMARK    2  A    between atoms: O_1  and  C_18
REMARK    3  A    between atoms: C_7  and  C_8
REMARK    4  A    between atoms: C_11  and  S_14
REMARK    5  A    between atoms: C_18  and  C_23
REMARK    6  A    between atoms: C_29  and  C_30
REMARK                            x       y       z     vdW  Elec       q    Type
REMARK                         _______ _______ _______ _____ _____    ______ ____
ROOT
ATOM      1  O   UNL     1      35.552 -20.814 -21.173  0.00  0.00    -0.474 OA
ENDROOT
BRANCH   1   3
ATOM      2  N   UNL     1      34.758 -22.781 -18.188  0.00  0.00    -0.241 NA
ATOM      3  C   UNL     1      35.661 -21.342 -19.910  0.00  0.00    +0.158 C 
ATOM      4  C   UNL     1      36.726 -21.008 -19.082  0.00  0.00    +0.040 C 
ATOM      5  C   UNL     1      34.711 -22.225 -19.420  0.00  0.00    +0.136 C 
ATOM      6  C   UNL     1      36.809 -21.558 -17.807  0.00  0.00    +0.022 C 
ATOM      7  C   UNL     1      35.809 -22.432 -17.413  0.00  0.00    +0.082 C 
BRANCH   7   8
ATOM      8  C   UNL     1      35.830 -23.042 -16.104  0.00  0.00    +0.018 C 
ATOM      9  C   UNL     1      34.635 -23.418 -15.491  0.00  0.00    +0.003 C 
ATOM     10  C   UNL     1      37.044 -23.256 -15.454  0.00  0.00    +0.003 C 
ATOM     11  C   UNL     1      35.871 -24.221 -13.576  0.00  0.00    +0.106 C 
ATOM     12  C   UNL     1      34.656 -24.007 -14.227  0.00  0.00    +0.018 C 
ATOM     13  C   UNL     1      37.066 -23.844 -14.189  0.00  0.00    +0.018 C 
BRANCH  11  14
ATOM     14  S   UNL     1      35.897 -24.958 -11.994  0.00  0.00    +0.010 S 
ATOM     15  O   UNL     1      34.517 -25.147 -11.564  0.00  0.00    -0.169 OA
ATOM     16  O   UNL     1      36.808 -26.095 -12.017  0.00  0.00    -0.169 OA
ATOM     17  C   UNL     1      36.632 -23.726 -10.943  0.00  0.00    +0.182 C 
ENDBRANCH  11  14
ENDBRANCH   7   8
ENDBRANCH   1   3
BRANCH   1  18
ATOM     18  C   UNL     1      34.414 -20.016 -21.441  0.00  0.00    +0.205 C 
BRANCH  18  23
ATOM     19  O   UNL     1      33.457 -15.420 -25.798  0.00  0.00    -0.296 OA
ATOM     20  N   UNL     1      34.287 -16.462 -23.871  0.00  0.00    -0.251 N 
ATOM     21  N   UNL     1      34.428 -14.053 -24.312  0.00  0.00    -0.300 NA
ATOM     22  N   UNL     1      33.374 -14.131 -26.341  0.00  0.00    -0.010 NA
ATOM     23  C   UNL     1      34.834 -18.861 -22.347  0.00  0.00    +0.047 C 
ATOM     24  C   UNL     1      34.584 -17.513 -21.663  0.00  0.00    +0.025 C 
ATOM     25  C   UNL     1      34.076 -18.907 -23.677  0.00  0.00    +0.025 C 
ATOM     26  C   UNL     1      34.965 -16.346 -22.573  0.00  0.00    +0.096 C 
ATOM     27  C   UNL     1      34.453 -17.734 -24.582  0.00  0.00    +0.096 C 
ATOM     28  C   UNL     1      34.091 -15.284 -24.604  0.00  0.00    +0.379 C 
ATOM     29  C   UNL     1      33.967 -13.382 -25.407  0.00  0.00    +0.104 C 
BRANCH  29  30
ATOM     30  C   UNL     1      34.112 -11.930 -25.552  0.00  0.00    +0.101 C 
ATOM     31  C   UNL     1      33.455 -11.374 -26.842  0.00  0.00    +0.017 C 
ATOM     32  C   UNL     1      33.575 -11.134 -24.335  0.00  0.00    +0.017 C 
ENDBRANCH  29  30
ENDBRANCH  18  23
ENDBRANCH   1  18
TORSDOF 6
ENDMDL
MODEL 4
REMARK VINA RESULT:     -11.2      3.928     11.960
REMARK  Name = 24996872
REMARK  6 active torsions:
REMARK  status: ('A' for Active; 'I' for Inactive)
REMARK    1  A    between atoms: O_1  and  C_3
REMARK    2  A    between atoms: O_1  and  C_18
REMARK    3  A    between atoms: C_7  and  C_8
REMARK    4  A    between atoms: C_11  and  S_14
REMARK    5  A    between atoms: C_18  and  C_23
REMARK    6  A    between atoms: C_29  and  C_30
REMARK                            x       y       z     vdW  Elec       q    Type
REMARK                         _______ _______ _______ _____ _____    ______ ____
ROOT
ATOM      1  O   UNL     1      33.758 -16.787 -25.022  0.00  0.00    -0.474 OA
ENDROOT
BRANCH   1   3
ATOM      2  N   UNL     1      33.484 -13.217 -25.785  0.00  0.00    -0.241 NA
ATOM      3  C   UNL     1      33.781 -15.425 -24.847  0.00  0.00    +0.158 C 
ATOM      4  C   UNL     1      34.108 -14.867 -23.617  0.00  0.00    +0.040 C 
ATOM      5  C   UNL     1      33.480 -14.565 -25.891  0.00  0.00    +0.136 C 
ATOM      6  C   UNL     1      34.124 -13.484 -23.469  0.00  0.00    +0.022 C 
ATOM      7  C   UNL     1      33.806 -12.711 -24.574  0.00  0.00    +0.082 C 
BRANCH   7   8
ATOM      8  C   UNL     1      33.802 -11.269 -24.495  0.00  0.00    +0.018 C 
ATOM      9  C   UNL     1      34.596 -10.520 -25.363  0.00  0.00    +0.003 C 
ATOM     10  C   UNL     1      33.002 -10.625 -23.551  0.00  0.00    +0.003 C 
ATOM     11  C   UNL     1      33.791  -8.483 -24.342  0.00  0.00    +0.106 C 
ATOM     12  C   UNL     1      34.591  -9.128 -25.286  0.00  0.00    +0.018 C 
ATOM     13  C   UNL     1      32.997  -9.233 -23.474  0.00  0.00    +0.018 C 
BRANCH  11  14
ATOM     14  S   UNL     1      33.785  -6.741 -24.246  0.00  0.00    +0.010 S 
ATOM     15  O   UNL     1      33.345  -6.367 -22.908  0.00  0.00    -0.169 OA
ATOM     16  O   UNL     1      35.051  -6.234 -24.757  0.00  0.00    -0.169 OA
ATOM     17  C   UNL     1      32.524  -6.239 -25.396  0.00  0.00    +0.182 C 
ENDBRANCH  11  14
ENDBRANCH   7   8
ENDBRANCH   1   3
BRANCH   1  18
ATOM     18  C   UNL     1      34.942 -17.497 -24.708  0.00  0.00    +0.205 C 
BRANCH  18  23
ATOM     19  O   UNL     1      34.490 -21.873 -20.053  0.00  0.00    -0.296 OA
ATOM     20  N   UNL     1      35.210 -19.948 -21.175  0.00  0.00    -0.251 N 
ATOM     21  N   UNL     1      36.288 -20.867 -19.173  0.00  0.00    -0.300 NA
ATOM     22  N   UNL     1      34.858 -22.637 -18.937  0.00  0.00    -0.010 NA
ATOM     23  C   UNL     1      34.853 -17.969 -23.258  0.00  0.00    +0.047 C 
ATOM     24  C   UNL     1      36.242 -18.324 -22.715  0.00  0.00    +0.025 C 
ATOM     25  C   UNL     1      33.931 -19.186 -23.136  0.00  0.00    +0.025 C 
ATOM     26  C   UNL     1      36.165 -18.835 -21.277  0.00  0.00    +0.096 C 
ATOM     27  C   UNL     1      33.863 -19.700 -21.698  0.00  0.00    +0.096 C 
ATOM     28  C   UNL     1      35.384 -20.852 -20.120  0.00  0.00    +0.379 C 
ATOM     29  C   UNL     1      35.925 -21.980 -18.473  0.00  0.00    +0.104 C 
BRANCH  29  30
ATOM     30  C   UNL     1      36.658 -22.430 -17.285  0.00  0.00    +0.101 C 
ATOM     31  C   UNL     1      37.555 -21.328 -16.663  0.00  0.00    +0.017 C 
ATOM     32  C   UNL     1      35.739 -23.009 -16.179  0.00  0.00    +0.017 C 
ENDBRANCH  29  30
ENDBRANCH  18  23
ENDBRANCH   1  18
TORSDOF 6
ENDMDL
MODEL 5
REMARK VINA RESULT:     -11.1      4.416     12.549
REMARK  Name = 24996872
REMARK  6 active torsions:
REMARK  status: ('A' for Active; 'I' for Inactive)
REMARK    1  A    between atoms: O_1  and  C_3
REMARK    2  A    between atoms: O_1  and  C_18
REMARK    3  A    between atoms: C_7  and  C_8
REMARK    4  A    between atoms: C_11  and  S_14
REMARK    5  A    between atoms: C_18  and  C_23
REMARK    6  A    between atoms: C_29  and  C_30
REMARK                            x       y       z     vdW  Elec       q    Type
REMARK                         _______ _______ _______ _____ _____    ______ ____
ROOT
ATOM      1  O   UNL     1      34.817 -19.305 -22.787  0.00  0.00    -0.474 OA
ENDROOT
BRANCH   1   3
ATOM      2  N   UNL     1      34.715 -15.649 -22.953  0.00  0.00    -0.241 NA
ATOM      3  C   UNL     1      34.611 -18.042 -23.285  0.00  0.00    +0.158 C 
ATOM      4  C   UNL     1      34.111 -17.850 -24.568  0.00  0.00    +0.040 C 
ATOM      5  C   UNL     1      34.895 -16.919 -22.524  0.00  0.00    +0.136 C 
ATOM      6  C   UNL     1      33.912 -16.558 -25.044  0.00  0.00    +0.022 C 
ATOM      7  C   UNL     1      34.228 -15.502 -24.205  0.00  0.00    +0.082 C 
BRANCH   7   8
ATOM      8  C   UNL     1      34.048 -14.135 -24.633  0.00  0.00    +0.018 C 
ATOM      9  C   UNL     1      34.102 -13.099 -23.699  0.00  0.00    +0.003 C 
ATOM     10  C   UNL     1      33.822 -13.849 -25.979  0.00  0.00    +0.003 C 
ATOM     11  C   UNL     1      33.701 -11.493 -25.459  0.00  0.00    +0.106 C 
ATOM     12  C   UNL     1      33.928 -11.779 -24.113  0.00  0.00    +0.018 C 
ATOM     13  C   UNL     1      33.648 -12.529 -26.393  0.00  0.00    +0.018 C 
BRANCH  11  14
ATOM     14  S   UNL     1      33.484  -9.840 -25.977  0.00  0.00    +0.010 S 
ATOM     15  O   UNL     1      34.798  -9.289 -26.283  0.00  0.00    -0.169 OA
ATOM     16  O   UNL     1      32.430  -9.794 -26.981  0.00  0.00    -0.169 OA
ATOM     17  C   UNL     1      32.863  -9.003 -24.536  0.00  0.00    +0.182 C 
ENDBRANCH  11  14
ENDBRANCH   7   8
ENDBRANCH   1   3
BRANCH   1  18
ATOM     18  C   UNL     1      33.886 -19.780 -21.833  0.00  0.00    +0.205 C 
BRANCH  18  23
ATOM     19  O   UNL     1      37.290 -22.036 -16.899  0.00  0.00    -0.296 OA
ATOM     20  N   UNL     1      35.598 -21.929 -18.515  0.00  0.00    -0.251 N 
ATOM     21  N   UNL     1      35.576 -23.444 -16.586  0.00  0.00    -0.300 NA
ATOM     22  N   UNL     1      37.579 -22.749 -15.727  0.00  0.00    -0.010 NA
ATOM     23  C   UNL     1      34.558 -20.870 -21.000  0.00  0.00    +0.047 C 
ATOM     24  C   UNL     1      33.630 -21.349 -19.879  0.00  0.00    +0.025 C 
ATOM     25  C   UNL     1      35.871 -20.362 -20.395  0.00  0.00    +0.025 C 
ATOM     26  C   UNL     1      34.304 -22.414 -19.013  0.00  0.00    +0.096 C 
ATOM     27  C   UNL     1      36.538 -21.426 -19.523  0.00  0.00    +0.096 C 
ATOM     28  C   UNL     1      36.094 -22.506 -17.339  0.00  0.00    +0.379 C 
ATOM     29  C   UNL     1      36.522 -23.558 -15.610  0.00  0.00    +0.104 C 
BRANCH  29  30
ATOM     30  C   UNL     1      36.390 -24.507 -14.501  0.00  0.00    +0.101 C 
ATOM     31  C   UNL     1      36.158 -25.968 -14.967  0.00  0.00    +0.017 C 
ATOM     32  C   UNL     1      37.592 -24.480 -13.523  0.00  0.00    +0.017 C 
ENDBRANCH  29  30
ENDBRANCH  18  23
ENDBRANCH   1  18
TORSDOF 6
ENDMDL
MODEL 6
REMARK VINA RESULT:     -11.0      3.690     12.053
REMARK  Name = 24996872
REMARK  6 active torsions:
REMARK  status: ('A' for Active; 'I' for Inactive)
REMARK    1  A    between atoms: O_1  and  C_3
REMARK    2  A    between atoms: O_1  and  C_18
REMARK    3  A    between atoms: C_7  and  C_8
REMARK    4  A    between atoms: C_11  and  S_14
REMARK    5  A    between atoms: C_18  and  C_23
REMARK    6  A    between atoms: C_29  and  C_30
REMARK                            x       y       z     vdW  Elec       q    Type
REMARK                         _______ _______ _______ _____ _____    ______ ____
ROOT
ATOM      1  O   UNL     1      34.817 -17.844 -23.634  0.00  0.00    -0.474 OA
ENDROOT
BRANCH   1   3
ATOM      2  N   UNL     1      33.805 -14.518 -24.783  0.00  0.00    -0.241 NA
ATOM      3  C   UNL     1      34.512 -16.505 -23.600  0.00  0.00    +0.158 C 
ATOM      4  C   UNL     1      34.587 -15.783 -22.415  0.00  0.00    +0.040 C 
ATOM      5  C   UNL     1      34.119 -15.833 -24.747  0.00  0.00    +0.136 C 
ATOM      6  C   UNL     1      34.272 -14.428 -22.412  0.00  0.00    +0.022 C 
ATOM      7  C   UNL     1      33.890 -13.849 -23.611  0.00  0.00    +0.082 C 
BRANCH   7   8
ATOM      8  C   UNL     1      33.549 -12.448 -23.683  0.00  0.00    +0.018 C 
ATOM      9  C   UNL     1      32.617 -11.910 -22.795  0.00  0.00    +0.003 C 
ATOM     10  C   UNL     1      34.151 -11.632 -24.640  0.00  0.00    +0.003 C 
ATOM     11  C   UNL     1      32.890  -9.740 -23.823  0.00  0.00    +0.106 C 
ATOM     12  C   UNL     1      32.288 -10.556 -22.866  0.00  0.00    +0.018 C 
ATOM     13  C   UNL     1      33.822 -10.278 -24.711  0.00  0.00    +0.018 C 
BRANCH  11  14
ATOM     14  S   UNL     1      32.478  -8.046 -23.911  0.00  0.00    +0.010 S 
ATOM     15  O   UNL     1      33.659  -7.320 -24.360  0.00  0.00    -0.169 OA
ATOM     16  O   UNL     1      31.222  -7.902 -24.634  0.00  0.00    -0.169 OA
ATOM     17  C   UNL     1      32.161  -7.580 -22.224  0.00  0.00    +0.182 C 
ENDBRANCH  11  14
ENDBRANCH   7   8
ENDBRANCH   1   3
BRANCH   1  18
ATOM     18  C   UNL     1      35.705 -18.327 -22.642  0.00  0.00    +0.205 C 
BRANCH  18  23
ATOM     19  O   UNL     1      34.734 -22.687 -18.053  0.00  0.00    -0.296 OA
ATOM     20  N   UNL     1      34.247 -21.261 -19.845  0.00  0.00    -0.251 N 
ATOM     21  N   UNL     1      32.555 -22.397 -18.482  0.00  0.00    -0.300 NA
ATOM     22  N   UNL     1      34.044 -23.460 -17.109  0.00  0.00    -0.010 NA
ATOM     23  C   UNL     1      35.125 -19.612 -22.057  0.00  0.00    +0.047 C 
ATOM     24  C   UNL     1      33.815 -19.330 -21.313  0.00  0.00    +0.025 C 
ATOM     25  C   UNL     1      36.122 -20.276 -21.102  0.00  0.00    +0.025 C 
ATOM     26  C   UNL     1      33.241 -20.602 -20.690  0.00  0.00    +0.096 C 
ATOM     27  C   UNL     1      35.542 -21.543 -20.474  0.00  0.00    +0.096 C 
ATOM     28  C   UNL     1      33.783 -22.095 -18.821  0.00  0.00    +0.379 C 
ATOM     29  C   UNL     1      32.766 -23.236 -17.427  0.00  0.00    +0.104 C 
BRANCH  29  30
ATOM     30  C   UNL     1      31.661 -23.855 -16.687  0.00  0.00    +0.101 C 
ATOM     31  C   UNL     1      32.013 -24.169 -15.210  0.00  0.00    +0.017 C 
ATOM     32  C   UNL     1      30.354 -23.023 -16.724  0.00  0.00    +0.017 C 
ENDBRANCH  29  30
ENDBRANCH  18  23
ENDBRANCH   1  18
TORSDOF 6
ENDMDL
MODEL 7
REMARK VINA RESULT:     -11.0      3.877     12.071
REMARK  Name = 24996872
REMARK  6 active torsions:
REMARK  status: ('A' for Active; 'I' for Inactive)
REMARK    1  A    between atoms: O_1  and  C_3
REMARK    2  A    between atoms: O_1  and  C_18
REMARK    3  A    between atoms: C_7  and  C_8
REMARK    4  A    between atoms: C_11  and  S_14
REMARK    5  A    between atoms: C_18  and  C_23
REMARK    6  A    between atoms: C_29  and  C_30
REMARK                            x       y       z     vdW  Elec       q    Type
REMARK                         _______ _______ _______ _____ _____    ______ ____
ROOT
ATOM      1  O   UNL     1      35.289 -18.316 -23.449  0.00  0.00    -0.474 OA
ENDROOT
BRANCH   1   3
ATOM      2  N   UNL     1      34.490 -14.893 -22.424  0.00  0.00    -0.241 NA
ATOM      3  C   UNL     1      34.851 -17.016 -23.523  0.00  0.00    +0.158 C 
ATOM      4  C   UNL     1      34.339 -16.499 -24.707  0.00  0.00    +0.040 C 
ATOM      5  C   UNL     1      34.904 -16.180 -22.419  0.00  0.00    +0.136 C 
ATOM      6  C   UNL     1      33.902 -15.180 -24.752  0.00  0.00    +0.022 C 
ATOM      7  C   UNL     1      33.999 -14.425 -23.594  0.00  0.00    +0.082 C 
BRANCH   7   8
ATOM      8  C   UNL     1      33.565 -13.049 -23.566  0.00  0.00    +0.018 C 
ATOM      9  C   UNL     1      32.574 -12.647 -22.669  0.00  0.00    +0.003 C 
ATOM     10  C   UNL     1      34.137 -12.119 -24.434  0.00  0.00    +0.003 C 
ATOM     11  C   UNL     1      32.727 -10.388 -23.511  0.00  0.00    +0.106 C 
ATOM     12  C   UNL     1      32.155 -11.317 -22.643  0.00  0.00    +0.018 C 
ATOM     13  C   UNL     1      33.718 -10.789 -24.408  0.00  0.00    +0.018 C 
BRANCH  11  14
ATOM     14  S   UNL     1      32.204  -8.723 -23.478  0.00  0.00    +0.010 S 
ATOM     15  O   UNL     1      30.787  -8.705 -23.140  0.00  0.00    -0.169 OA
ATOM     16  O   UNL     1      33.145  -7.947 -22.683  0.00  0.00    -0.169 OA
ATOM     17  C   UNL     1      32.370  -8.173 -25.162  0.00  0.00    +0.182 C 
ENDBRANCH  11  14
ENDBRANCH   7   8
ENDBRANCH   1   3
BRANCH   1  18
ATOM     18  C   UNL     1      34.303 -19.320 -23.295  0.00  0.00    +0.205 C 
BRANCH  18  23
ATOM     19  O   UNL     1      32.388 -22.832 -18.293  0.00  0.00    -0.296 OA
ATOM     20  N   UNL     1      33.808 -21.545 -19.640  0.00  0.00    -0.251 N 
ATOM     21  N   UNL     1      34.552 -22.870 -17.716  0.00  0.00    -0.300 NA
ATOM     22  N   UNL     1      32.479 -23.669 -17.173  0.00  0.00    -0.010 NA
ATOM     23  C   UNL     1      34.197 -19.672 -21.813  0.00  0.00    +0.047 C 
ATOM     24  C   UNL     1      35.282 -20.678 -21.414  0.00  0.00    +0.025 C 
ATOM     25  C   UNL     1      32.817 -20.252 -21.488  0.00  0.00    +0.025 C 
ATOM     26  C   UNL     1      35.165 -21.070 -19.941  0.00  0.00    +0.096 C 
ATOM     27  C   UNL     1      32.707 -20.651 -20.016  0.00  0.00    +0.096 C 
ATOM     28  C   UNL     1      33.653 -22.405 -18.546  0.00  0.00    +0.379 C 
ATOM     29  C   UNL     1      33.785 -23.640 -16.892  0.00  0.00    +0.104 C 
BRANCH  29  30
ATOM     30  C   UNL     1      34.354 -24.392 -15.769  0.00  0.00    +0.101 C 
ATOM     31  C   UNL     1      35.850 -24.073 -15.513  0.00  0.00    +0.017 C 
ATOM     32  C   UNL     1      33.570 -24.206 -14.445  0.00  0.00    +0.017 C 
ENDBRANCH  29  30
ENDBRANCH  18  23
ENDBRANCH   1  18
TORSDOF 6
ENDMDL
MODEL 8
REMARK VINA RESULT:     -10.9      2.797      4.865
REMARK  Name = 24996872
REMARK  6 active torsions:
REMARK  status: ('A' for Active; 'I' for Inactive)
REMARK    1  A    between atoms: O_1  and  C_3
REMARK    2  A    between atoms: O_1  and  C_18
REMARK    3  A    between atoms: C_7  and  C_8
REMARK    4  A    between atoms: C_11  and  S_14
REMARK    5  A    between atoms: C_18  and  C_23
REMARK    6  A    between atoms: C_29  and  C_30
REMARK                            x       y       z     vdW  Elec       q    Type
REMARK                         _______ _______ _______ _____ _____    ______ ____
ROOT
ATOM      1  O   UNL     1      35.433 -20.073 -21.779  0.00  0.00    -0.474 OA
ENDROOT
BRANCH   1   3
ATOM      2  N   UNL     1      34.853 -22.194 -18.851  0.00  0.00    -0.241 NA
ATOM      3  C   UNL     1      34.767 -20.725 -20.770  0.00  0.00    +0.158 C 
ATOM      4  C   UNL     1      33.390 -20.605 -20.626  0.00  0.00    +0.040 C 
ATOM      5  C   UNL     1      35.447 -21.525 -19.865  0.00  0.00    +0.136 C 
ATOM      6  C   UNL     1      32.743 -21.278 -19.595  0.00  0.00    +0.022 C 
ATOM      7  C   UNL     1      33.513 -22.052 -18.742  0.00  0.00    +0.082 C 
BRANCH   7   8
ATOM      8  C   UNL     1      32.910 -22.778 -17.650  0.00  0.00    +0.018 C 
ATOM      9  C   UNL     1      33.716 -23.446 -16.727  0.00  0.00    +0.003 C 
ATOM     10  C   UNL     1      31.523 -22.812 -17.517  0.00  0.00    +0.003 C 
ATOM     11  C   UNL     1      31.744 -24.181 -15.539  0.00  0.00    +0.106 C 
ATOM     12  C   UNL     1      33.132 -24.148 -15.672  0.00  0.00    +0.018 C 
ATOM     13  C   UNL     1      30.939 -23.514 -16.462  0.00  0.00    +0.018 C 
BRANCH  11  14
ATOM     14  S   UNL     1      31.014 -25.059 -14.219  0.00  0.00    +0.010 S 
ATOM     15  O   UNL     1      29.898 -25.827 -14.754  0.00  0.00    -0.169 OA
ATOM     16  O   UNL     1      32.061 -25.736 -13.465  0.00  0.00    -0.169 OA
ATOM     17  C   UNL     1      30.349 -23.794 -13.160  0.00  0.00    +0.182 C 
ENDBRANCH  11  14
ENDBRANCH   7   8
ENDBRANCH   1   3
BRANCH   1  18
ATOM     18  C   UNL     1      34.702 -19.798 -22.960  0.00  0.00    +0.205 C 
BRANCH  18  23
ATOM     19  O   UNL     1      33.467 -14.110 -25.632  0.00  0.00    -0.296 OA
ATOM     20  N   UNL     1      34.340 -15.663 -24.112  0.00  0.00    -0.251 N 
ATOM     21  N   UNL     1      34.300 -13.239 -23.744  0.00  0.00    -0.300 NA
ATOM     22  N   UNL     1      33.292 -12.723 -25.732  0.00  0.00    -0.010 NA
ATOM     23  C   UNL     1      35.047 -18.385 -23.425  0.00  0.00    +0.047 C 
ATOM     24  C   UNL     1      34.679 -17.353 -22.353  0.00  0.00    +0.025 C 
ATOM     25  C   UNL     1      34.319 -18.047 -24.730  0.00  0.00    +0.025 C 
ATOM     26  C   UNL     1      34.984 -15.930 -22.819  0.00  0.00    +0.096 C 
ATOM     27  C   UNL     1      34.619 -16.620 -25.189  0.00  0.00    +0.096 C 
ATOM     28  C   UNL     1      34.066 -14.328 -24.432  0.00  0.00    +0.379 C 
ATOM     29  C   UNL     1      33.808 -12.281 -24.581  0.00  0.00    +0.104 C 
BRANCH  29  30
ATOM     30  C   UNL     1      33.841 -10.854 -24.242  0.00  0.00    +0.101 C 
ATOM     31  C   UNL     1      33.944  -9.931 -25.484  0.00  0.00    +0.017 C 
ATOM     32  C   UNL     1      32.636 -10.400 -23.381  0.00  0.00    +0.017 C 
ENDBRANCH  29  30
ENDBRANCH  18  23
ENDBRANCH   1  18
TORSDOF 6
ENDMDL
MODEL 9
REMARK VINA RESULT:     -10.9      2.795      3.915
REMARK  Name = 24996872
REMARK  6 active torsions:
REMARK  status: ('A' for Active; 'I' for Inactive)
REMARK    1  A    between atoms: O_1  and  C_3
REMARK    2  A    between atoms: O_1  and  C_18
REMARK    3  A    between atoms: C_7  and  C_8
REMARK    4  A    between atoms: C_11  and  S_14
REMARK    5  A    between atoms: C_18  and  C_23
REMARK    6  A    between atoms: C_29  and  C_30
REMARK                            x       y       z     vdW  Elec       q    Type
REMARK                         _______ _______ _______ _____ _____    ______ ____
ROOT
ATOM      1  O   UNL     1      34.311 -18.580 -23.050  0.00  0.00    -0.474 OA
ENDROOT
BRANCH   1   3
ATOM      2  N   UNL     1      35.636 -20.581 -20.285  0.00  0.00    -0.241 NA
ATOM      3  C   UNL     1      34.340 -19.426 -21.969  0.00  0.00    +0.158 C 
ATOM      4  C   UNL     1      33.172 -19.980 -21.460  0.00  0.00    +0.040 C 
ATOM      5  C   UNL     1      35.537 -19.756 -21.352  0.00  0.00    +0.136 C 
ATOM      6  C   UNL     1      33.233 -20.835 -20.365  0.00  0.00    +0.022 C 
ATOM      7  C   UNL     1      34.478 -21.100 -19.819  0.00  0.00    +0.082 C 
BRANCH   7   8
ATOM      8  C   UNL     1      34.618 -21.977 -18.681  0.00  0.00    +0.018 C 
ATOM      9  C   UNL     1      33.565 -22.815 -18.311  0.00  0.00    +0.003 C 
ATOM     10  C   UNL     1      35.807 -21.989 -17.951  0.00  0.00    +0.003 C 
ATOM     11  C   UNL     1      34.890 -23.674 -16.482  0.00  0.00    +0.106 C 
ATOM     12  C   UNL     1      33.702 -23.662 -17.212  0.00  0.00    +0.018 C 
ATOM     13  C   UNL     1      35.943 -22.836 -16.851  0.00  0.00    +0.018 C 
BRANCH  11  14
ATOM     14  S   UNL     1      35.061 -24.734 -15.106  0.00  0.00    +0.010 S 
ATOM     15  O   UNL     1      33.813 -24.697 -14.354  0.00  0.00    -0.169 OA
ATOM     16  O   UNL     1      35.594 -26.012 -15.557  0.00  0.00    -0.169 OA
ATOM     17  C   UNL     1      36.321 -23.969 -14.111  0.00  0.00    +0.182 C 
ENDBRANCH  11  14
ENDBRANCH   7   8
ENDBRANCH   1   3
BRANCH   1  18
ATOM     18  C   UNL     1      35.474 -17.812 -23.298  0.00  0.00    +0.205 C 
BRANCH  18  23
ATOM     19  O   UNL     1      31.594 -12.727 -22.966  0.00  0.00    -0.296 OA
ATOM     20  N   UNL     1      33.322 -14.195 -22.380  0.00  0.00    -0.251 N 
ATOM     21  N   UNL     1      32.464 -12.417 -20.925  0.00  0.00    -0.300 NA
ATOM     22  N   UNL     1      30.893 -11.653 -22.402  0.00  0.00    -0.010 NA
ATOM     23  C   UNL     1      35.141 -16.340 -23.066  0.00  0.00    +0.047 C 
ATOM     24  C   UNL     1      34.681 -16.106 -21.624  0.00  0.00    +0.025 C 
ATOM     25  C   UNL     1      34.051 -15.868 -24.033  0.00  0.00    +0.025 C 
ATOM     26  C   UNL     1      34.308 -14.643 -21.386  0.00  0.00    +0.096 C 
ATOM     27  C   UNL     1      33.674 -14.407 -23.788  0.00  0.00    +0.096 C 
ATOM     28  C   UNL     1      32.498 -13.118 -22.031  0.00  0.00    +0.379 C 
ATOM     29  C   UNL     1      31.463 -11.531 -21.200  0.00  0.00    +0.104 C 
BRANCH  29  30
ATOM     30  C   UNL     1      31.038 -10.509 -20.238  0.00  0.00    +0.101 C 
ATOM     31  C   UNL     1      31.543 -10.775 -18.796  0.00  0.00    +0.017 C 
ATOM     32  C   UNL     1      31.441  -9.071 -20.651  0.00  0.00    +0.017 C 
ENDBRANCH  29  30
ENDBRANCH  18  23
ENDBRANCH   1  18
TORSDOF 6
ENDMDL
