MODEL 1
REMARK VINA RESULT:     -12.0      0.000      0.000
REMARK  Name = 10172943
REMARK  7 active torsions:
REMARK  status: ('A' for Active; 'I' for Inactive)
REMARK    1  A    between atoms: O_1  and  C_3
REMARK    2  A    between atoms: O_1  and  C_19
REMARK    3  A    between atoms: C_4  and  C_11
REMARK    4  A    between atoms: C_19  and  C_20
REMARK    5  A    between atoms: C_20  and  N_21
REMARK    6  A    between atoms: C_20  and  C_25
REMARK    7  A    between atoms: C_25  and  C_27
REMARK                            x       y       z     vdW  Elec       q    Type
REMARK                         _______ _______ _______ _____ _____    ______ ____
ROOT
ATOM      1  O   UNL     1      34.265 -13.400 -23.589  0.00  0.00    -0.476 OA
ENDROOT
BRANCH   1   3
ATOM      2  N   UNL     1      33.875 -16.415 -25.598  0.00  0.00    -0.239 NA
ATOM      3  C   UNL     1      34.282 -14.726 -23.936  0.00  0.00    +0.158 C 
ATOM      4  C   UNL     1      34.713 -17.019 -23.412  0.00  0.00    +0.022 C 
ATOM      5  C   UNL     1      34.705 -15.683 -23.031  0.00  0.00    +0.040 C 
ATOM      6  C   UNL     1      33.881 -15.126 -25.192  0.00  0.00    +0.136 C 
ATOM      7  C   UNL     1      34.291 -17.331 -24.695  0.00  0.00    +0.099 C 
BRANCH   4  11
ATOM      8  N   UNL     1      35.053 -21.451 -19.688  0.00  0.00    -0.280 N 
ATOM      9  N   UNL     1      36.303 -20.999 -19.906  0.00  0.00    -0.173 NA
ATOM     10  C   UNL     1      34.749 -19.826 -21.076  0.00  0.00    +0.032 A 
ATOM     11  C   UNL     1      35.148 -18.051 -22.500  0.00  0.00    +0.002 C 
ATOM     12  C   UNL     1      36.151 -19.981 -20.770  0.00  0.00    +0.102 A 
ATOM     13  C   UNL     1      34.170 -18.892 -21.925  0.00  0.00    +0.003 C 
ATOM     14  C   UNL     1      34.077 -20.782 -20.367  0.00  0.00    +0.053 A 
ATOM     15  C   UNL     1      36.551 -18.168 -22.226  0.00  0.00    +0.002 C 
ATOM     16  C   UNL     1      37.108 -19.131 -21.355  0.00  0.00    +0.021 C 
ATOM     17  C   UNL     1      32.655 -21.144 -20.249  0.00  0.00    +0.051 C 
ATOM     18  H   UNL     1      34.859 -22.205 -19.086  0.00  0.00    +0.189 HD
ENDBRANCH   4  11
ENDBRANCH   1   3
BRANCH   1  19
ATOM     19  C   UNL     1      33.537 -12.524 -24.440  0.00  0.00    +0.184 C 
BRANCH  19  20
ATOM     20  C   UNL     1      34.090 -11.094 -24.395  0.00  0.00    -0.017 C 
BRANCH  20  21
ATOM     21  N   UNL     1      35.022 -10.915 -25.515  0.00  0.00    +0.384 N 
ATOM     22  H   UNL     1      35.896 -10.519 -25.170  0.00  0.00    -0.089 HD
ATOM     23  H   UNL     1      34.609 -10.284 -26.202  0.00  0.00    -0.089 HD
ATOM     24  H   UNL     1      35.206 -11.819 -25.951  0.00  0.00    -0.089 HD
ENDBRANCH  20  21
BRANCH  20  25
ATOM     25  C   UNL     1      32.991 -10.000 -24.460  0.00  0.00    +0.009 C 
BRANCH  25  27
ATOM     26  N   UNL     1      32.793  -7.738 -21.600  0.00  0.00    -0.312 N 
ATOM     27  C   UNL     1      32.757  -9.292 -23.185  0.00  0.00    -0.008 C 
ATOM     28  C   UNL     1      32.019  -9.777 -22.069  0.00  0.00    +0.011 C 
ATOM     29  C   UNL     1      32.057  -8.783 -21.089  0.00  0.00    +0.048 C 
ATOM     30  C   UNL     1      33.221  -8.036 -22.866  0.00  0.00    +0.058 C 
ATOM     31  C   UNL     1      31.320 -10.970 -21.798  0.00  0.00    +0.001 C 
ATOM     32  C   UNL     1      31.428  -8.923 -19.846  0.00  0.00    +0.015 C 
ATOM     33  C   UNL     1      30.686 -11.124 -20.560  0.00  0.00    +0.000 C 
ATOM     34  C   UNL     1      30.740 -10.114 -19.601  0.00  0.00    +0.001 C 
ATOM     35  H   UNL     1      32.985  -6.898 -21.124  0.00  0.00    +0.152 HD
ENDBRANCH  25  27
ENDBRANCH  20  25
ENDBRANCH  19  20
ENDBRANCH   1  19
TORSDOF 7
ENDMDL
MODEL 2
REMARK VINA RESULT:     -11.6      2.189      9.946
REMARK  Name = 10172943
REMARK  7 active torsions:
REMARK  status: ('A' for Active; 'I' for Inactive)
REMARK    1  A    between atoms: O_1  and  C_3
REMARK    2  A    between atoms: O_1  and  C_19
REMARK    3  A    between atoms: C_4  and  C_11
REMARK    4  A    between atoms: C_19  and  C_20
REMARK    5  A    between atoms: C_20  and  N_21
REMARK    6  A    between atoms: C_20  and  C_25
REMARK    7  A    between atoms: C_25  and  C_27
REMARK                            x       y       z     vdW  Elec       q    Type
REMARK                         _______ _______ _______ _____ _____    ______ ____
ROOT
ATOM      1  O   UNL     1      35.676 -17.210 -23.002  0.00  0.00    -0.476 OA
ENDROOT
BRANCH   1   3
ATOM      2  N   UNL     1      33.823 -15.523 -25.648  0.00  0.00    -0.239 NA
ATOM      3  C   UNL     1      34.870 -16.292 -23.624  0.00  0.00    +0.158 C 
ATOM      4  C   UNL     1      33.492 -14.339 -23.567  0.00  0.00    +0.022 C 
ATOM      5  C   UNL     1      34.306 -15.252 -22.908  0.00  0.00    +0.040 C 
ATOM      6  C   UNL     1      34.609 -16.392 -24.974  0.00  0.00    +0.136 C 
ATOM      7  C   UNL     1      33.284 -14.515 -24.926  0.00  0.00    +0.099 C 
BRANCH   4  11
ATOM      8  N   UNL     1      31.471  -9.175 -21.867  0.00  0.00    -0.280 N 
ATOM      9  N   UNL     1      31.170 -10.073 -20.907  0.00  0.00    -0.173 NA
ATOM     10  C   UNL     1      32.282 -11.016 -22.649  0.00  0.00    +0.032 A 
ATOM     11  C   UNL     1      32.881 -13.239 -22.857  0.00  0.00    +0.002 C 
ATOM     12  C   UNL     1      31.664 -11.237 -21.363  0.00  0.00    +0.102 A 
ATOM     13  C   UNL     1      32.908 -11.959 -23.454  0.00  0.00    +0.003 C 
ATOM     14  C   UNL     1      32.140  -9.689 -22.939  0.00  0.00    +0.053 A 
ATOM     15  C   UNL     1      32.277 -13.504 -21.583  0.00  0.00    +0.002 C 
ATOM     16  C   UNL     1      31.648 -12.521 -20.788  0.00  0.00    +0.021 C 
ATOM     17  C   UNL     1      32.546  -8.852 -24.080  0.00  0.00    +0.051 C 
ATOM     18  H   UNL     1      31.226  -8.224 -21.800  0.00  0.00    +0.189 HD
ENDBRANCH   4  11
ENDBRANCH   1   3
BRANCH   1  19
ATOM     19  C   UNL     1      35.210 -17.738 -21.767  0.00  0.00    +0.184 C 
BRANCH  19  20
ATOM     20  C   UNL     1      34.659 -19.162 -21.928  0.00  0.00    -0.017 C 
BRANCH  20  21
ATOM     21  N   UNL     1      34.854 -19.586 -23.319  0.00  0.00    +0.384 N 
ATOM     22  H   UNL     1      35.814 -19.906 -23.445  0.00  0.00    -0.089 HD
ATOM     23  H   UNL     1      34.672 -18.799 -23.943  0.00  0.00    -0.089 HD
ATOM     24  H   UNL     1      34.210 -20.347 -23.535  0.00  0.00    -0.089 HD
ENDBRANCH  20  21
BRANCH  20  25
ATOM     25  C   UNL     1      35.321 -20.195 -20.977  0.00  0.00    +0.009 C 
BRANCH  25  27
ATOM     26  N   UNL     1      32.494 -22.001 -19.537  0.00  0.00    -0.312 N 
ATOM     27  C   UNL     1      34.365 -21.009 -20.199  0.00  0.00    -0.008 C 
ATOM     28  C   UNL     1      34.649 -21.751 -19.018  0.00  0.00    +0.011 C 
ATOM     29  C   UNL     1      33.458 -22.364 -18.623  0.00  0.00    +0.048 C 
ATOM     30  C   UNL     1      33.032 -21.182 -20.493  0.00  0.00    +0.058 C 
ATOM     31  C   UNL     1      35.808 -21.961 -18.246  0.00  0.00    +0.001 C 
ATOM     32  C   UNL     1      33.368 -23.180 -17.490  0.00  0.00    +0.015 C 
ATOM     33  C   UNL     1      35.733 -22.775 -17.109  0.00  0.00    +0.000 C 
ATOM     34  C   UNL     1      34.531 -23.374 -16.739  0.00  0.00    +0.001 C 
ATOM     35  H   UNL     1      31.553 -22.289 -19.506  0.00  0.00    +0.152 HD
ENDBRANCH  25  27
ENDBRANCH  20  25
ENDBRANCH  19  20
ENDBRANCH   1  19
TORSDOF 7
ENDMDL
MODEL 3
REMARK VINA RESULT:     -11.6      4.676     11.859
REMARK  Name = 10172943
REMARK  7 active torsions:
REMARK  status: ('A' for Active; 'I' for Inactive)
REMARK    1  A    between atoms: O_1  and  C_3
REMARK    2  A    between atoms: O_1  and  C_19
REMARK    3  A    between atoms: C_4  and  C_11
REMARK    4  A    between atoms: C_19  and  C_20
REMARK    5  A    between atoms: C_20  and  N_21
REMARK    6  A    between atoms: C_20  and  C_25
REMARK    7  A    between atoms: C_25  and  C_27
REMARK                            x       y       z     vdW  Elec       q    Type
REMARK                         _______ _______ _______ _____ _____    ______ ____
ROOT
ATOM      1  O   UNL     1      32.838 -22.283 -19.074  0.00  0.00    -0.476 OA
ENDROOT
BRANCH   1   3
ATOM      2  N   UNL     1      36.304 -21.304 -19.630  0.00  0.00    -0.239 NA
ATOM      3  C   UNL     1      33.923 -21.641 -19.613  0.00  0.00    +0.158 C 
ATOM      4  C   UNL     1      34.880 -20.092 -21.163  0.00  0.00    +0.022 C 
ATOM      5  C   UNL     1      33.761 -20.725 -20.637  0.00  0.00    +0.040 C 
ATOM      6  C   UNL     1      35.192 -21.900 -19.143  0.00  0.00    +0.136 C 
ATOM      7  C   UNL     1      36.119 -20.412 -20.630  0.00  0.00    +0.099 C 
BRANCH   4  11
ATOM      8  N   UNL     1      34.441 -15.286 -24.379  0.00  0.00    -0.280 N 
ATOM      9  N   UNL     1      34.411 -16.345 -25.213  0.00  0.00    -0.173 NA
ATOM     10  C   UNL     1      34.613 -16.969 -23.038  0.00  0.00    +0.032 A 
ATOM     11  C   UNL     1      34.757 -19.130 -22.234  0.00  0.00    +0.002 C 
ATOM     12  C   UNL     1      34.516 -17.416 -24.407  0.00  0.00    +0.102 A 
ATOM     13  C   UNL     1      34.735 -17.758 -21.902  0.00  0.00    +0.003 C 
ATOM     14  C   UNL     1      34.562 -15.603 -23.058  0.00  0.00    +0.053 A 
ATOM     15  C   UNL     1      34.664 -19.619 -23.579  0.00  0.00    +0.002 C 
ATOM     16  C   UNL     1      34.540 -18.789 -24.715  0.00  0.00    +0.021 C 
ATOM     17  C   UNL     1      34.613 -14.572 -22.009  0.00  0.00    +0.051 C 
ATOM     18  H   UNL     1      34.381 -14.357 -24.699  0.00  0.00    +0.189 HD
ENDBRANCH   4  11
ENDBRANCH   1   3
BRANCH   1  19
ATOM     19  C   UNL     1      33.105 -23.395 -18.230  0.00  0.00    +0.184 C 
BRANCH  19  20
ATOM     20  C   UNL     1      32.787 -23.086 -16.762  0.00  0.00    -0.017 C 
BRANCH  20  21
ATOM     21  N   UNL     1      31.330 -23.125 -16.579  0.00  0.00    +0.384 N 
ATOM     22  H   UNL     1      31.116 -23.241 -15.588  0.00  0.00    -0.089 HD
ATOM     23  H   UNL     1      30.943 -23.908 -17.106  0.00  0.00    -0.089 HD
ATOM     24  H   UNL     1      30.922 -22.254 -16.916  0.00  0.00    -0.089 HD
ENDBRANCH  20  21
BRANCH  20  25
ATOM     25  C   UNL     1      33.458 -24.064 -15.761  0.00  0.00    +0.009 C 
BRANCH  25  27
ATOM     26  N   UNL     1      36.836 -22.769 -15.274  0.00  0.00    -0.312 N 
ATOM     27  C   UNL     1      34.895 -23.813 -15.532  0.00  0.00    -0.008 C 
ATOM     28  C   UNL     1      35.898 -24.792 -15.289  0.00  0.00    +0.011 C 
ATOM     29  C   UNL     1      37.107 -24.111 -15.131  0.00  0.00    +0.048 C 
ATOM     30  C   UNL     1      35.503 -22.578 -15.518  0.00  0.00    +0.058 C 
ATOM     31  C   UNL     1      35.894 -26.197 -15.187  0.00  0.00    +0.001 C 
ATOM     32  C   UNL     1      38.316 -24.767 -14.875  0.00  0.00    +0.015 C 
ATOM     33  C   UNL     1      37.096 -26.867 -14.931  0.00  0.00    +0.000 C 
ATOM     34  C   UNL     1      38.288 -26.161 -14.777  0.00  0.00    +0.001 C 
ATOM     35  H   UNL     1      37.506 -22.050 -15.212  0.00  0.00    +0.152 HD
ENDBRANCH  25  27
ENDBRANCH  20  25
ENDBRANCH  19  20
ENDBRANCH   1  19
TORSDOF 7
ENDMDL
MODEL 4
REMARK VINA RESULT:     -11.6      4.527     11.441
REMARK  Name = 10172943
REMARK  7 active torsions:
REMARK  status: ('A' for Active; 'I' for Inactive)
REMARK    1  A    between atoms: O_1  and  C_3
REMARK    2  A    between atoms: O_1  and  C_19
REMARK    3  A    between atoms: C_4  and  C_11
REMARK    4  A    between atoms: C_19  and  C_20
REMARK    5  A    between atoms: C_20  and  N_21
REMARK    6  A    between atoms: C_20  and  C_25
REMARK    7  A    between atoms: C_25  and  C_27
REMARK                            x       y       z     vdW  Elec       q    Type
REMARK                         _______ _______ _______ _____ _____    ______ ____
ROOT
ATOM      1  O   UNL     1      36.230 -22.361 -18.897  0.00  0.00    -0.476 OA
ENDROOT
BRANCH   1   3
ATOM      2  N   UNL     1      32.784 -21.453 -19.659  0.00  0.00    -0.239 NA
ATOM      3  C   UNL     1      35.166 -21.742 -19.501  0.00  0.00    +0.158 C 
ATOM      4  C   UNL     1      34.272 -20.208 -21.102  0.00  0.00    +0.022 C 
ATOM      5  C   UNL     1      35.371 -20.820 -20.511  0.00  0.00    +0.040 C 
ATOM      6  C   UNL     1      33.876 -22.027 -19.108  0.00  0.00    +0.136 C 
ATOM      7  C   UNL     1      33.011 -20.555 -20.645  0.00  0.00    +0.099 C 
BRANCH   4  11
ATOM      8  N   UNL     1      34.853 -15.380 -24.263  0.00  0.00    -0.280 N 
ATOM      9  N   UNL     1      34.911 -16.433 -25.103  0.00  0.00    -0.173 NA
ATOM     10  C   UNL     1      34.624 -17.072 -22.942  0.00  0.00    +0.032 A 
ATOM     11  C   UNL     1      34.440 -19.238 -22.160  0.00  0.00    +0.002 C 
ATOM     12  C   UNL     1      34.771 -17.509 -24.310  0.00  0.00    +0.102 A 
ATOM     13  C   UNL     1      34.455 -17.868 -21.817  0.00  0.00    +0.003 C 
ATOM     14  C   UNL     1      34.681 -15.706 -22.950  0.00  0.00    +0.053 A 
ATOM     15  C   UNL     1      34.583 -19.718 -23.504  0.00  0.00    +0.002 C 
ATOM     16  C   UNL     1      34.753 -18.880 -24.628  0.00  0.00    +0.021 C 
ATOM     17  C   UNL     1      34.598 -14.682 -21.895  0.00  0.00    +0.051 C 
ATOM     18  H   UNL     1      34.928 -14.449 -24.573  0.00  0.00    +0.189 HD
ENDBRANCH   4  11
ENDBRANCH   1   3
BRANCH   1  19
ATOM     19  C   UNL     1      36.611 -21.877 -17.616  0.00  0.00    +0.184 C 
BRANCH  19  20
ATOM     20  C   UNL     1      36.329 -22.904 -16.511  0.00  0.00    -0.017 C 
BRANCH  20  21
ATOM     21  N   UNL     1      37.610 -23.380 -15.975  0.00  0.00    +0.384 N 
ATOM     22  H   UNL     1      38.311 -22.645 -16.068  0.00  0.00    -0.089 HD
ATOM     23  H   UNL     1      37.910 -24.205 -16.495  0.00  0.00    -0.089 HD
ATOM     24  H   UNL     1      37.497 -23.621 -14.991  0.00  0.00    -0.089 HD
ENDBRANCH  20  21
BRANCH  20  25
ATOM     25  C   UNL     1      35.461 -22.346 -15.352  0.00  0.00    +0.009 C 
BRANCH  25  27
ATOM     26  N   UNL     1      33.980 -24.975 -13.297  0.00  0.00    -0.312 N 
ATOM     27  C   UNL     1      34.627 -23.357 -14.671  0.00  0.00    -0.008 C 
ATOM     28  C   UNL     1      33.262 -23.651 -14.942  0.00  0.00    +0.011 C 
ATOM     29  C   UNL     1      32.880 -24.670 -14.066  0.00  0.00    +0.048 C 
ATOM     30  C   UNL     1      35.041 -24.188 -13.655  0.00  0.00    +0.058 C 
ATOM     31  C   UNL     1      32.310 -23.147 -15.851  0.00  0.00    +0.001 C 
ATOM     32  C   UNL     1      31.589 -25.211 -14.054  0.00  0.00    +0.015 C 
ATOM     33  C   UNL     1      31.016 -23.678 -15.850  0.00  0.00    +0.000 C 
ATOM     34  C   UNL     1      30.663 -24.694 -14.964  0.00  0.00    +0.001 C 
ATOM     35  H   UNL     1      34.000 -25.662 -12.592  0.00  0.00    +0.152 HD
ENDBRANCH  25  27
ENDBRANCH  20  25
ENDBRANCH  19  20
ENDBRANCH   1  19
TORSDOF 7
ENDMDL
MODEL 5
REMARK VINA RESULT:     -11.6      1.351      2.225
REMARK  Name = 10172943
REMARK  7 active torsions:
REMARK  status: ('A' for Active; 'I' for Inactive)
REMARK    1  A    between atoms: O_1  and  C_3
REMARK    2  A    between atoms: O_1  and  C_19
REMARK    3  A    between atoms: C_4  and  C_11
REMARK    4  A    between atoms: C_19  and  C_20
REMARK    5  A    between atoms: C_20  and  N_21
REMARK    6  A    between atoms: C_20  and  C_25
REMARK    7  A    between atoms: C_25  and  C_27
REMARK                            x       y       z     vdW  Elec       q    Type
REMARK                         _______ _______ _______ _____ _____    ______ ____
ROOT
ATOM      1  O   UNL     1      34.189 -13.514 -23.414  0.00  0.00    -0.476 OA
ENDROOT
BRANCH   1   3
ATOM      2  N   UNL     1      33.890 -16.475 -25.518  0.00  0.00    -0.239 NA
ATOM      3  C   UNL     1      34.241 -14.829 -23.800  0.00  0.00    +0.158 C 
ATOM      4  C   UNL     1      34.720 -17.126 -23.343  0.00  0.00    +0.022 C 
ATOM      5  C   UNL     1      34.676 -15.803 -22.921  0.00  0.00    +0.040 C 
ATOM      6  C   UNL     1      33.862 -15.199 -25.072  0.00  0.00    +0.136 C 
ATOM      7  C   UNL     1      34.319 -17.408 -24.639  0.00  0.00    +0.099 C 
BRANCH   4  11
ATOM      8  N   UNL     1      35.115 -21.590 -19.661  0.00  0.00    -0.280 N 
ATOM      9  N   UNL     1      36.366 -21.170 -19.937  0.00  0.00    -0.173 NA
ATOM     10  C   UNL     1      34.790 -19.949 -21.025  0.00  0.00    +0.032 A 
ATOM     11  C   UNL     1      35.169 -18.175 -22.457  0.00  0.00    +0.002 C 
ATOM     12  C   UNL     1      36.201 -20.143 -20.787  0.00  0.00    +0.102 A 
ATOM     13  C   UNL     1      34.197 -18.993 -21.841  0.00  0.00    +0.003 C 
ATOM     14  C   UNL     1      34.127 -20.891 -20.290  0.00  0.00    +0.053 A 
ATOM     15  C   UNL     1      36.580 -18.332 -22.251  0.00  0.00    +0.002 C 
ATOM     16  C   UNL     1      37.151 -19.316 -21.413  0.00  0.00    +0.021 C 
ATOM     17  C   UNL     1      32.703 -21.214 -20.105  0.00  0.00    +0.051 C 
ATOM     18  H   UNL     1      34.930 -22.342 -19.055  0.00  0.00    +0.189 HD
ENDBRANCH   4  11
ENDBRANCH   1   3
BRANCH   1  19
ATOM     19  C   UNL     1      32.908 -12.897 -23.412  0.00  0.00    +0.184 C 
BRANCH  19  20
ATOM     20  C   UNL     1      32.146 -13.168 -22.109  0.00  0.00    -0.017 C 
BRANCH  20  21
ATOM     21  N   UNL     1      33.103 -13.168 -20.996  0.00  0.00    +0.384 N 
ATOM     22  H   UNL     1      33.806 -12.446 -21.154  0.00  0.00    -0.089 HD
ATOM     23  H   UNL     1      33.558 -14.079 -20.939  0.00  0.00    -0.089 HD
ATOM     24  H   UNL     1      32.610 -12.978 -20.124  0.00  0.00    -0.089 HD
ENDBRANCH  20  21
BRANCH  20  25
ATOM     25  C   UNL     1      31.021 -12.138 -21.821  0.00  0.00    +0.009 C 
BRANCH  25  27
ATOM     26  N   UNL     1      31.940  -9.600 -19.362  0.00  0.00    -0.312 N 
ATOM     27  C   UNL     1      31.459 -10.954 -21.053  0.00  0.00    -0.008 C 
ATOM     28  C   UNL     1      31.944  -9.729 -21.589  0.00  0.00    +0.011 C 
ATOM     29  C   UNL     1      32.238  -8.896 -20.507  0.00  0.00    +0.048 C 
ATOM     30  C   UNL     1      31.468 -10.845 -19.681  0.00  0.00    +0.058 C 
ATOM     31  C   UNL     1      32.162  -9.246 -22.894  0.00  0.00    +0.001 C 
ATOM     32  C   UNL     1      32.742  -7.600 -20.666  0.00  0.00    +0.015 C 
ATOM     33  C   UNL     1      32.666  -7.952 -23.069  0.00  0.00    +0.000 C 
ATOM     34  C   UNL     1      32.951  -7.143 -21.970  0.00  0.00    +0.001 C 
ATOM     35  H   UNL     1      32.049  -9.257 -18.445  0.00  0.00    +0.152 HD
ENDBRANCH  25  27
ENDBRANCH  20  25
ENDBRANCH  19  20
ENDBRANCH   1  19
TORSDOF 7
ENDMDL
MODEL 6
REMARK VINA RESULT:     -11.5      2.473      3.749
REMARK  Name = 10172943
REMARK  7 active torsions:
REMARK  status: ('A' for Active; 'I' for Inactive)
REMARK    1  A    between atoms: O_1  and  C_3
REMARK    2  A    between atoms: O_1  and  C_19
REMARK    3  A    between atoms: C_4  and  C_11
REMARK    4  A    between atoms: C_19  and  C_20
REMARK    5  A    between atoms: C_20  and  N_21
REMARK    6  A    between atoms: C_20  and  C_25
REMARK    7  A    between atoms: C_25  and  C_27
REMARK                            x       y       z     vdW  Elec       q    Type
REMARK                         _______ _______ _______ _____ _____    ______ ____
ROOT
ATOM      1  O   UNL     1      33.995  -9.403 -25.368  0.00  0.00    -0.476 OA
ENDROOT
BRANCH   1   3
ATOM      2  N   UNL     1      33.224 -12.517 -27.096  0.00  0.00    -0.239 NA
ATOM      3  C   UNL     1      33.825 -10.746 -25.585  0.00  0.00    +0.158 C 
ATOM      4  C   UNL     1      33.892 -13.012 -24.826  0.00  0.00    +0.022 C 
ATOM      5  C   UNL     1      34.071 -11.657 -24.574  0.00  0.00    +0.040 C 
ATOM      6  C   UNL     1      33.409 -11.208 -26.815  0.00  0.00    +0.136 C 
ATOM      7  C   UNL     1      33.470 -13.388 -26.091  0.00  0.00    +0.099 C 
BRANCH   4  11
ATOM      8  N   UNL     1      35.054 -17.844 -21.835  0.00  0.00    -0.280 N 
ATOM      9  N   UNL     1      34.847 -16.849 -20.949  0.00  0.00    -0.173 NA
ATOM     10  C   UNL     1      34.641 -16.143 -23.098  0.00  0.00    +0.032 A 
ATOM     11  C   UNL     1      34.138 -13.999 -23.800  0.00  0.00    +0.002 C 
ATOM     12  C   UNL     1      34.585 -15.769 -21.705  0.00  0.00    +0.102 A 
ATOM     13  C   UNL     1      34.431 -15.322 -24.198  0.00  0.00    +0.003 C 
ATOM     14  C   UNL     1      34.943 -17.474 -23.143  0.00  0.00    +0.053 A 
ATOM     15  C   UNL     1      34.072 -13.583 -22.428  0.00  0.00    +0.002 C 
ATOM     16  C   UNL     1      34.291 -14.445 -21.330  0.00  0.00    +0.021 C 
ATOM     17  C   UNL     1      35.140 -18.432 -24.245  0.00  0.00    +0.051 C 
ATOM     18  H   UNL     1      35.269 -18.764 -21.560  0.00  0.00    +0.189 HD
ENDBRANCH   4  11
ENDBRANCH   1   3
BRANCH   1  19
ATOM     19  C   UNL     1      34.989  -9.027 -24.424  0.00  0.00    +0.184 C 
BRANCH  19  20
ATOM     20  C   UNL     1      34.706  -7.647 -23.816  0.00  0.00    -0.017 C 
BRANCH  20  21
ATOM     21  N   UNL     1      35.126  -6.617 -24.774  0.00  0.00    +0.384 N 
ATOM     22  H   UNL     1      34.301  -6.179 -25.185  0.00  0.00    -0.089 HD
ATOM     23  H   UNL     1      35.687  -7.046 -25.510  0.00  0.00    -0.089 HD
ATOM     24  H   UNL     1      35.681  -5.911 -24.291  0.00  0.00    -0.089 HD
ENDBRANCH  20  21
BRANCH  20  25
ATOM     25  C   UNL     1      33.215  -7.426 -23.444  0.00  0.00    +0.009 C 
BRANCH  25  27
ATOM     26  N   UNL     1      32.636  -7.936 -19.875  0.00  0.00    -0.312 N 
ATOM     27  C   UNL     1      32.853  -7.872 -22.083  0.00  0.00    -0.008 C 
ATOM     28  C   UNL     1      32.156  -9.064 -21.739  0.00  0.00    +0.011 C 
ATOM     29  C   UNL     1      32.033  -9.079 -20.347  0.00  0.00    +0.048 C 
ATOM     30  C   UNL     1      33.135  -7.199 -20.916  0.00  0.00    +0.058 C 
ATOM     31  C   UNL     1      31.615 -10.133 -22.479  0.00  0.00    +0.001 C 
ATOM     32  C   UNL     1      31.394 -10.116 -19.657  0.00  0.00    +0.015 C 
ATOM     33  C   UNL     1      30.973 -11.177 -21.802  0.00  0.00    +0.000 C 
ATOM     34  C   UNL     1      30.865 -11.166 -20.413  0.00  0.00    +0.001 C 
ATOM     35  H   UNL     1      32.700  -7.684 -18.925  0.00  0.00    +0.152 HD
ENDBRANCH  25  27
ENDBRANCH  20  25
ENDBRANCH  19  20
ENDBRANCH   1  19
TORSDOF 7
ENDMDL
MODEL 7
REMARK VINA RESULT:     -11.5      4.177     11.276
REMARK  Name = 10172943
REMARK  7 active torsions:
REMARK  status: ('A' for Active; 'I' for Inactive)
REMARK    1  A    between atoms: O_1  and  C_3
REMARK    2  A    between atoms: O_1  and  C_19
REMARK    3  A    between atoms: C_4  and  C_11
REMARK    4  A    between atoms: C_19  and  C_20
REMARK    5  A    between atoms: C_20  and  N_21
REMARK    6  A    between atoms: C_20  and  C_25
REMARK    7  A    between atoms: C_25  and  C_27
REMARK                            x       y       z     vdW  Elec       q    Type
REMARK                         _______ _______ _______ _____ _____    ______ ____
ROOT
ATOM      1  O   UNL     1      34.826 -22.065 -19.922  0.00  0.00    -0.476 OA
ENDROOT
BRANCH   1   3
ATOM      2  N   UNL     1      37.332 -19.438 -20.240  0.00  0.00    -0.239 NA
ATOM      3  C   UNL     1      35.453 -20.933 -20.375  0.00  0.00    +0.158 C 
ATOM      4  C   UNL     1      35.545 -19.027 -21.816  0.00  0.00    +0.022 C 
ATOM      5  C   UNL     1      34.885 -20.168 -21.377  0.00  0.00    +0.040 C 
ATOM      6  C   UNL     1      36.660 -20.541 -19.839  0.00  0.00    +0.136 C 
ATOM      7  C   UNL     1      36.755 -18.707 -21.220  0.00  0.00    +0.099 C 
BRANCH   4  11
ATOM      8  N   UNL     1      33.582 -14.651 -25.076  0.00  0.00    -0.280 N 
ATOM      9  N   UNL     1      33.423 -15.791 -25.777  0.00  0.00    -0.173 NA
ATOM     10  C   UNL     1      34.352 -16.158 -23.737  0.00  0.00    +0.032 A 
ATOM     11  C   UNL     1      34.988 -18.200 -22.861  0.00  0.00    +0.002 C 
ATOM     12  C   UNL     1      33.894 -16.756 -24.968  0.00  0.00    +0.102 A 
ATOM     13  C   UNL     1      34.907 -16.807 -22.642  0.00  0.00    +0.003 C 
ATOM     14  C   UNL     1      34.137 -14.813 -23.841  0.00  0.00    +0.053 A 
ATOM     15  C   UNL     1      34.547 -18.836 -24.068  0.00  0.00    +0.002 C 
ATOM     16  C   UNL     1      33.985 -18.146 -25.165  0.00  0.00    +0.021 C 
ATOM     17  C   UNL     1      34.385 -13.674 -22.941  0.00  0.00    +0.051 C 
ATOM     18  H   UNL     1      33.318 -13.770 -25.428  0.00  0.00    +0.189 HD
ENDBRANCH   4  11
ENDBRANCH   1   3
BRANCH   1  19
ATOM     19  C   UNL     1      33.550 -21.894 -19.320  0.00  0.00    +0.184 C 
BRANCH  19  20
ATOM     20  C   UNL     1      33.249 -22.999 -18.299  0.00  0.00    -0.017 C 
BRANCH  20  21
ATOM     21  N   UNL     1      33.362 -24.300 -18.969  0.00  0.00    +0.384 N 
ATOM     22  H   UNL     1      33.613 -25.014 -18.284  0.00  0.00    -0.089 HD
ATOM     23  H   UNL     1      34.083 -24.250 -19.688  0.00  0.00    -0.089 HD
ATOM     24  H   UNL     1      32.469 -24.539 -19.398  0.00  0.00    -0.089 HD
ENDBRANCH  20  21
BRANCH  20  25
ATOM     25  C   UNL     1      34.186 -22.974 -17.061  0.00  0.00    +0.009 C 
BRANCH  25  27
ATOM     26  N   UNL     1      33.685 -25.170 -14.188  0.00  0.00    -0.312 N 
ATOM     27  C   UNL     1      33.712 -23.782 -15.919  0.00  0.00    -0.008 C 
ATOM     28  C   UNL     1      32.377 -23.863 -15.434  0.00  0.00    +0.011 C 
ATOM     29  C   UNL     1      32.387 -24.740 -14.348  0.00  0.00    +0.048 C 
ATOM     30  C   UNL     1      34.493 -24.598 -15.133  0.00  0.00    +0.058 C 
ATOM     31  C   UNL     1      31.156 -23.271 -15.816  0.00  0.00    +0.001 C 
ATOM     32  C   UNL     1      31.234 -25.056 -13.621  0.00  0.00    +0.015 C 
ATOM     33  C   UNL     1      29.994 -23.578 -15.098  0.00  0.00    +0.000 C 
ATOM     34  C   UNL     1      30.035 -24.457 -14.018  0.00  0.00    +0.001 C 
ATOM     35  H   UNL     1      33.988 -25.800 -13.494  0.00  0.00    +0.152 HD
ENDBRANCH  25  27
ENDBRANCH  20  25
ENDBRANCH  19  20
ENDBRANCH   1  19
TORSDOF 7
ENDMDL
MODEL 8
REMARK VINA RESULT:     -11.3      2.003      2.852
REMARK  Name = 10172943
REMARK  7 active torsions:
REMARK  status: ('A' for Active; 'I' for Inactive)
REMARK    1  A    between atoms: O_1  and  C_3
REMARK    2  A    between atoms: O_1  and  C_19
REMARK    3  A    between atoms: C_4  and  C_11
REMARK    4  A    between atoms: C_19  and  C_20
REMARK    5  A    between atoms: C_20  and  N_21
REMARK    6  A    between atoms: C_20  and  C_25
REMARK    7  A    between atoms: C_25  and  C_27
REMARK                            x       y       z     vdW  Elec       q    Type
REMARK                         _______ _______ _______ _____ _____    ______ ____
ROOT
ATOM      1  O   UNL     1      34.262 -13.564 -23.613  0.00  0.00    -0.476 OA
ENDROOT
BRANCH   1   3
ATOM      2  N   UNL     1      33.822 -16.600 -25.581  0.00  0.00    -0.239 NA
ATOM      3  C   UNL     1      34.272 -14.894 -23.947  0.00  0.00    +0.158 C 
ATOM      4  C   UNL     1      34.722 -17.181 -23.413  0.00  0.00    +0.022 C 
ATOM      5  C   UNL     1      34.721 -15.841 -23.045  0.00  0.00    +0.040 C 
ATOM      6  C   UNL     1      33.837 -15.307 -25.188  0.00  0.00    +0.136 C 
ATOM      7  C   UNL     1      34.266 -17.507 -24.681  0.00  0.00    +0.099 C 
BRANCH   4  11
ATOM      8  N   UNL     1      35.169 -21.549 -19.624  0.00  0.00    -0.280 N 
ATOM      9  N   UNL     1      36.415 -21.122 -19.911  0.00  0.00    -0.173 NA
ATOM     10  C   UNL     1      34.825 -19.945 -21.027  0.00  0.00    +0.032 A 
ATOM     11  C   UNL     1      35.183 -18.203 -22.503  0.00  0.00    +0.002 C 
ATOM     12  C   UNL     1      36.238 -20.118 -20.787  0.00  0.00    +0.102 A 
ATOM     13  C   UNL     1      34.221 -19.017 -21.865  0.00  0.00    +0.003 C 
ATOM     14  C   UNL     1      34.173 -20.876 -20.268  0.00  0.00    +0.053 A 
ATOM     15  C   UNL     1      36.596 -18.340 -22.295  0.00  0.00    +0.002 C 
ATOM     16  C   UNL     1      37.179 -19.296 -21.434  0.00  0.00    +0.021 C 
ATOM     17  C   UNL     1      32.752 -21.210 -20.074  0.00  0.00    +0.051 C 
ATOM     18  H   UNL     1      34.993 -22.288 -18.999  0.00  0.00    +0.189 HD
ENDBRANCH   4  11
ENDBRANCH   1   3
BRANCH   1  19
ATOM     19  C   UNL     1      33.446 -12.711 -24.405  0.00  0.00    +0.184 C 
BRANCH  19  20
ATOM     20  C   UNL     1      34.104 -11.344 -24.634  0.00  0.00    -0.017 C 
BRANCH  20  21
ATOM     21  N   UNL     1      34.377 -11.190 -26.068  0.00  0.00    +0.384 N 
ATOM     22  H   UNL     1      34.708 -12.077 -26.447  0.00  0.00    -0.089 HD
ATOM     23  H   UNL     1      35.091 -10.474 -26.202  0.00  0.00    -0.089 HD
ATOM     24  H   UNL     1      33.522 -10.911 -26.548  0.00  0.00    -0.089 HD
ENDBRANCH  20  21
BRANCH  20  25
ATOM     25  C   UNL     1      33.242 -10.150 -24.143  0.00  0.00    +0.009 C 
BRANCH  25  27
ATOM     26  N   UNL     1      35.408  -7.220 -24.381  0.00  0.00    -0.312 N 
ATOM     27  C   UNL     1      33.880  -8.828 -24.309  0.00  0.00    -0.008 C 
ATOM     28  C   UNL     1      33.232  -7.614 -24.672  0.00  0.00    +0.011 C 
ATOM     29  C   UNL     1      34.213  -6.621 -24.710  0.00  0.00    +0.048 C 
ATOM     30  C   UNL     1      35.217  -8.553 -24.136  0.00  0.00    +0.058 C 
ATOM     31  C   UNL     1      31.901  -7.264 -24.974  0.00  0.00    +0.001 C 
ATOM     32  C   UNL     1      33.928  -5.290 -25.037  0.00  0.00    +0.015 C 
ATOM     33  C   UNL     1      31.601  -5.937 -25.302  0.00  0.00    +0.000 C 
ATOM     34  C   UNL     1      32.601  -4.967 -25.333  0.00  0.00    +0.001 C 
ATOM     35  H   UNL     1      36.274  -6.756 -24.328  0.00  0.00    +0.152 HD
ENDBRANCH  25  27
ENDBRANCH  20  25
ENDBRANCH  19  20
ENDBRANCH   1  19
TORSDOF 7
ENDMDL
MODEL 9
REMARK VINA RESULT:     -11.2      4.666     11.604
REMARK  Name = 10172943
REMARK  7 active torsions:
REMARK  status: ('A' for Active; 'I' for Inactive)
REMARK    1  A    between atoms: O_1  and  C_3
REMARK    2  A    between atoms: O_1  and  C_19
REMARK    3  A    between atoms: C_4  and  C_11
REMARK    4  A    between atoms: C_19  and  C_20
REMARK    5  A    between atoms: C_20  and  N_21
REMARK    6  A    between atoms: C_20  and  C_25
REMARK    7  A    between atoms: C_25  and  C_27
REMARK                            x       y       z     vdW  Elec       q    Type
REMARK                         _______ _______ _______ _____ _____    ______ ____
ROOT
ATOM      1  O   UNL     1      34.471 -22.532 -19.410  0.00  0.00    -0.476 OA
ENDROOT
BRANCH   1   3
ATOM      2  N   UNL     1      37.157 -20.085 -19.682  0.00  0.00    -0.239 NA
ATOM      3  C   UNL     1      35.194 -21.461 -19.867  0.00  0.00    +0.158 C 
ATOM      4  C   UNL     1      35.487 -19.623 -21.368  0.00  0.00    +0.022 C 
ATOM      5  C   UNL     1      34.731 -20.702 -20.926  0.00  0.00    +0.040 C 
ATOM      6  C   UNL     1      36.395 -21.126 -19.280  0.00  0.00    +0.136 C 
ATOM      7  C   UNL     1      36.682 -19.357 -20.718  0.00  0.00    +0.099 C 
BRANCH   4  11
ATOM      8  N   UNL     1      33.902 -15.269 -24.855  0.00  0.00    -0.280 N 
ATOM      9  N   UNL     1      33.790 -16.417 -25.552  0.00  0.00    -0.173 NA
ATOM     10  C   UNL     1      34.521 -16.767 -23.430  0.00  0.00    +0.032 A 
ATOM     11  C   UNL     1      35.042 -18.804 -22.472  0.00  0.00    +0.002 C 
ATOM     12  C   UNL     1      34.169 -17.376 -24.690  0.00  0.00    +0.102 A 
ATOM     13  C   UNL     1      34.964 -17.407 -22.280  0.00  0.00    +0.003 C 
ATOM     14  C   UNL     1      34.338 -15.420 -23.572  0.00  0.00    +0.053 A 
ATOM     15  C   UNL     1      34.703 -19.452 -23.706  0.00  0.00    +0.002 C 
ATOM     16  C   UNL     1      34.256 -18.771 -24.859  0.00  0.00    +0.021 C 
ATOM     17  C   UNL     1      34.520 -14.272 -22.669  0.00  0.00    +0.051 C 
ATOM     18  H   UNL     1      33.685 -14.390 -25.242  0.00  0.00    +0.189 HD
ENDBRANCH   4  11
ENDBRANCH   1   3
BRANCH   1  19
ATOM     19  C   UNL     1      33.081 -22.325 -19.201  0.00  0.00    +0.184 C 
BRANCH  19  20
ATOM     20  C   UNL     1      32.670 -22.630 -17.755  0.00  0.00    -0.017 C 
BRANCH  20  21
ATOM     21  N   UNL     1      31.219 -22.855 -17.717  0.00  0.00    +0.384 N 
ATOM     22  H   UNL     1      30.969 -23.569 -18.400  0.00  0.00    -0.089 HD
ATOM     23  H   UNL     1      30.735 -21.985 -17.940  0.00  0.00    -0.089 HD
ATOM     24  H   UNL     1      30.948 -23.165 -16.784  0.00  0.00    -0.089 HD
ENDBRANCH  20  21
BRANCH  20  25
ATOM     25  C   UNL     1      33.397 -23.860 -17.148  0.00  0.00    +0.009 C 
BRANCH  25  27
ATOM     26  N   UNL     1      33.049 -23.464 -13.535  0.00  0.00    -0.312 N 
ATOM     27  C   UNL     1      33.501 -23.842 -15.674  0.00  0.00    -0.008 C 
ATOM     28  C   UNL     1      34.547 -24.407 -14.892  0.00  0.00    +0.011 C 
ATOM     29  C   UNL     1      34.239 -24.156 -13.553  0.00  0.00    +0.048 C 
ATOM     30  C   UNL     1      32.595 -23.269 -14.812  0.00  0.00    +0.058 C 
ATOM     31  C   UNL     1      35.729 -25.110 -15.195  0.00  0.00    +0.001 C 
ATOM     32  C   UNL     1      35.057 -24.575 -12.498  0.00  0.00    +0.015 C 
ATOM     33  C   UNL     1      36.558 -25.536 -14.151  0.00  0.00    +0.000 C 
ATOM     34  C   UNL     1      36.225 -25.272 -12.823  0.00  0.00    +0.001 C 
ATOM     35  H   UNL     1      32.591 -23.154 -12.720  0.00  0.00    +0.152 HD
ENDBRANCH  25  27
ENDBRANCH  20  25
ENDBRANCH  19  20
ENDBRANCH   1  19
TORSDOF 7
ENDMDL
