MODEL 1
REMARK VINA RESULT:     -11.9      0.000      0.000
REMARK  Name = 46937134
REMARK  9 active torsions:
REMARK  status: ('A' for Active; 'I' for Inactive)
REMARK    1  A    between atoms: N_2  and  C_15
REMARK    2  A    between atoms: N_6  and  C_29
REMARK    3  A    between atoms: C_16  and  O_19
REMARK    4  A    between atoms: C_18  and  C_21
REMARK    5  A    between atoms: C_21  and  O_22
REMARK    6  A    between atoms: O_22  and  P_23
REMARK    7  A    between atoms: P_23  and  O_25
REMARK    8  A    between atoms: P_23  and  O_27
REMARK    9  A    between atoms: C_29  and  C_30
REMARK                            x       y       z     vdW  Elec       q    Type
REMARK                         _______ _______ _______ _____ _____    ______ ____
ROOT
ATOM      1  O   UNL     1      37.161 -22.787 -14.512  0.00  0.00    -0.208 OA
ATOM      2  N   UNL     1      33.017 -24.576 -14.279  0.00  0.00    -0.209 NA
ATOM      3  N   UNL     1      33.657 -23.579 -16.403  0.00  0.00    -0.279 N 
ATOM      4  N   UNL     1      34.927 -24.169 -13.173  0.00  0.00    -0.241 NA
ATOM      5  N   UNL     1      35.872 -22.653 -16.433  0.00  0.00    -0.301 NA
ATOM      6  N   UNL     1      34.470 -22.589 -18.299  0.00  0.00    -0.292 N 
ATOM      7  C   UNL     1      33.851 -23.938 -15.131  0.00  0.00    +0.191 C 
ATOM      8  C   UNL     1      33.716 -24.694 -13.099  0.00  0.00    +0.205 C 
ATOM      9  C   UNL     1      35.010 -23.695 -14.452  0.00  0.00    +0.183 C 
ATOM     10  C   UNL     1      34.722 -22.926 -17.020  0.00  0.00    +0.248 C 
ATOM     11  C   UNL     1      36.112 -23.015 -15.102  0.00  0.00    +0.224 C 
ATOM     12  H   UNL     1      32.813 -23.764 -16.875  0.00  0.00    +0.152 HD
ATOM     13  H   UNL     1      33.593 -22.818 -18.682  0.00  0.00    +0.151 HD
ENDROOT
BRANCH   2  15
ATOM     14  O   UNL     1      31.092 -24.566 -15.787  0.00  0.00    -0.338 OA
ATOM     15  C   UNL     1      31.614 -25.063 -14.540  0.00  0.00    +0.182 C 
ATOM     16  C   UNL     1      29.312 -24.659 -14.212  0.00  0.00    +0.144 C 
ATOM     17  C   UNL     1      30.623 -24.640 -13.460  0.00  0.00    +0.079 C 
ATOM     18  C   UNL     1      29.710 -24.193 -15.607  0.00  0.00    +0.174 C 
BRANCH  16  19
ATOM     19  O   UNL     1      28.844 -26.004 -14.272  0.00  0.00    -0.382 OA
ATOM     20  H   UNL     1      28.383 -26.223 -13.447  0.00  0.00    +0.210 HD
ENDBRANCH  16  19
BRANCH  18  21
ATOM     21  C   UNL     1      29.606 -22.683 -15.775  0.00  0.00    +0.186 C 
BRANCH  21  22
ATOM     22  O   UNL     1      28.878 -22.408 -16.959  0.00  0.00    -0.271 OA
BRANCH  22  23
ATOM     23  P   UNL     1      27.283 -22.684 -16.967  0.00  0.00    +0.473 P 
ATOM     24  O   UNL     1      26.670 -22.892 -15.613  0.00  0.00    -0.227 OA
BRANCH  23  25
ATOM     25  O   UNL     1      26.702 -21.422 -17.793  0.00  0.00    -0.303 OA
ATOM     26  H   UNL     1      27.201 -21.318 -18.619  0.00  0.00    +0.222 HD
ENDBRANCH  23  25
BRANCH  23  27
ATOM     27  O   UNL     1      27.112 -23.916 -18.000  0.00  0.00    -0.303 OA
ATOM     28  H   UNL     1      26.445 -24.533 -17.661  0.00  0.00    +0.222 HD
ENDBRANCH  23  27
ENDBRANCH  22  23
ENDBRANCH  21  22
ENDBRANCH  18  21
ENDBRANCH   2  15
BRANCH   6  29
ATOM     29  C   UNL     1      35.430 -21.904 -19.135  0.00  0.00    +0.117 C 
BRANCH  29  30
ATOM     30  C   UNL     1      34.736 -21.024 -20.128  0.00  0.00    -0.003 C 
ATOM     31  C   UNL     1      35.436 -20.106 -20.928  0.00  0.00    -0.002 C 
ATOM     32  C   UNL     1      34.722 -19.302 -21.848  0.00  0.00    -0.000 C 
ATOM     33  C   UNL     1      33.351 -21.149 -20.236  0.00  0.00    -0.003 C 
ATOM     34  C   UNL     1      36.830 -19.967 -20.833  0.00  0.00    -0.000 C 
ATOM     35  C   UNL     1      33.328 -19.441 -21.941  0.00  0.00    -0.000 C 
ATOM     36  C   UNL     1      32.648 -20.359 -21.141  0.00  0.00    -0.000 C 
ATOM     37  C   UNL     1      35.422 -18.383 -22.646  0.00  0.00    -0.000 C 
ATOM     38  C   UNL     1      37.511 -19.049 -21.634  0.00  0.00    -0.000 C 
ATOM     39  C   UNL     1      36.807 -18.260 -22.539  0.00  0.00    -0.000 C 
ENDBRANCH  29  30
ENDBRANCH   6  29
TORSDOF 9
ENDMDL
MODEL 2
REMARK VINA RESULT:     -10.9      2.962      6.014
REMARK  Name = 46937134
REMARK  9 active torsions:
REMARK  status: ('A' for Active; 'I' for Inactive)
REMARK    1  A    between atoms: N_2  and  C_15
REMARK    2  A    between atoms: N_6  and  C_29
REMARK    3  A    between atoms: C_16  and  O_19
REMARK    4  A    between atoms: C_18  and  C_21
REMARK    5  A    between atoms: C_21  and  O_22
REMARK    6  A    between atoms: O_22  and  P_23
REMARK    7  A    between atoms: P_23  and  O_25
REMARK    8  A    between atoms: P_23  and  O_27
REMARK    9  A    between atoms: C_29  and  C_30
REMARK                            x       y       z     vdW  Elec       q    Type
REMARK                         _______ _______ _______ _____ _____    ______ ____
ROOT
ATOM      1  O   UNL     1      30.737 -22.625 -17.260  0.00  0.00    -0.208 OA
ATOM      2  N   UNL     1      34.588 -24.492 -15.804  0.00  0.00    -0.209 NA
ATOM      3  N   UNL     1      34.720 -23.161 -17.836  0.00  0.00    -0.279 N 
ATOM      4  N   UNL     1      32.390 -24.237 -15.426  0.00  0.00    -0.241 NA
ATOM      5  N   UNL     1      32.628 -22.211 -18.534  0.00  0.00    -0.301 NA
ATOM      6  N   UNL     1      34.609 -21.872 -19.723  0.00  0.00    -0.292 N 
ATOM      7  C   UNL     1      34.093 -23.714 -16.794  0.00  0.00    +0.191 C 
ATOM      8  C   UNL     1      33.513 -24.786 -14.996  0.00  0.00    +0.205 C 
ATOM      9  C   UNL     1      32.758 -23.563 -16.557  0.00  0.00    +0.183 C 
ATOM     10  C   UNL     1      33.925 -22.404 -18.693  0.00  0.00    +0.248 C 
ATOM     11  C   UNL     1      31.938 -22.774 -17.454  0.00  0.00    +0.224 C 
ATOM     12  H   UNL     1      35.686 -23.282 -17.989  0.00  0.00    +0.152 HD
ATOM     13  H   UNL     1      35.574 -22.052 -19.789  0.00  0.00    +0.151 HD
ENDROOT
BRANCH   2  15
ATOM     14  O   UNL     1      36.082 -26.154 -14.812  0.00  0.00    -0.338 OA
ATOM     15  C   UNL     1      36.009 -24.955 -15.606  0.00  0.00    +0.182 C 
ATOM     16  C   UNL     1      37.952 -24.785 -14.277  0.00  0.00    +0.144 C 
ATOM     17  C   UNL     1      36.883 -23.920 -14.903  0.00  0.00    +0.079 C 
ATOM     18  C   UNL     1      37.191 -26.049 -13.896  0.00  0.00    +0.174 C 
BRANCH  16  19
ATOM     19  O   UNL     1      38.924 -25.094 -15.273  0.00  0.00    -0.382 OA
ATOM     20  H   UNL     1      38.656 -25.896 -15.749  0.00  0.00    +0.210 HD
ENDBRANCH  16  19
BRANCH  18  21
ATOM     21  C   UNL     1      36.628 -25.993 -12.482  0.00  0.00    +0.186 C 
BRANCH  21  22
ATOM     22  O   UNL     1      37.166 -24.858 -11.825  0.00  0.00    -0.271 OA
BRANCH  22  23
ATOM     23  P   UNL     1      36.153 -23.863 -11.047  0.00  0.00    +0.473 P 
ATOM     24  O   UNL     1      35.759 -24.311  -9.670  0.00  0.00    -0.227 OA
BRANCH  23  25
ATOM     25  O   UNL     1      36.922 -22.443 -11.109  0.00  0.00    -0.303 OA
ATOM     26  H   UNL     1      36.531 -21.894 -11.807  0.00  0.00    +0.222 HD
ENDBRANCH  23  25
BRANCH  23  27
ATOM     27  O   UNL     1      34.930 -23.671 -12.088  0.00  0.00    -0.303 OA
ATOM     28  H   UNL     1      34.727 -22.727 -12.177  0.00  0.00    +0.222 HD
ENDBRANCH  23  27
ENDBRANCH  22  23
ENDBRANCH  21  22
ENDBRANCH  18  21
ENDBRANCH   2  15
BRANCH   6  29
ATOM     29  C   UNL     1      33.990 -21.049 -20.737  0.00  0.00    +0.117 C 
BRANCH  29  30
ATOM     30  C   UNL     1      34.972 -20.067 -21.296  0.00  0.00    -0.003 C 
ATOM     31  C   UNL     1      34.724 -19.359 -22.484  0.00  0.00    -0.002 C 
ATOM     32  C   UNL     1      35.693 -18.444 -22.960  0.00  0.00    -0.000 C 
ATOM     33  C   UNL     1      36.157 -19.873 -20.587  0.00  0.00    -0.003 C 
ATOM     34  C   UNL     1      33.536 -19.541 -23.210  0.00  0.00    -0.000 C 
ATOM     35  C   UNL     1      36.881 -18.264 -22.234  0.00  0.00    -0.000 C 
ATOM     36  C   UNL     1      37.110 -18.974 -21.055  0.00  0.00    -0.000 C 
ATOM     37  C   UNL     1      35.446 -17.738 -24.149  0.00  0.00    -0.000 C 
ATOM     38  C   UNL     1      33.306 -18.831 -24.389  0.00  0.00    -0.000 C 
ATOM     39  C   UNL     1      34.259 -17.931 -24.856  0.00  0.00    -0.000 C 
ENDBRANCH  29  30
ENDBRANCH   6  29
TORSDOF 9
ENDMDL
MODEL 3
REMARK VINA RESULT:     -10.9      3.013      6.345
REMARK  Name = 46937134
REMARK  9 active torsions:
REMARK  status: ('A' for Active; 'I' for Inactive)
REMARK    1  A    between atoms: N_2  and  C_15
REMARK    2  A    between atoms: N_6  and  C_29
REMARK    3  A    between atoms: C_16  and  O_19
REMARK    4  A    between atoms: C_18  and  C_21
REMARK    5  A    between atoms: C_21  and  O_22
REMARK    6  A    between atoms: O_22  and  P_23
REMARK    7  A    between atoms: P_23  and  O_25
REMARK    8  A    between atoms: P_23  and  O_27
REMARK    9  A    between atoms: C_29  and  C_30
REMARK                            x       y       z     vdW  Elec       q    Type
REMARK                         _______ _______ _______ _____ _____    ______ ____
ROOT
ATOM      1  O   UNL     1      30.409 -23.322 -17.182  0.00  0.00    -0.208 OA
ATOM      2  N   UNL     1      33.684 -23.832 -14.109  0.00  0.00    -0.209 NA
ATOM      3  N   UNL     1      34.363 -23.037 -16.306  0.00  0.00    -0.279 N 
ATOM      4  N   UNL     1      31.486 -24.013 -14.526  0.00  0.00    -0.241 NA
ATOM      5  N   UNL     1      32.559 -22.799 -17.872  0.00  0.00    -0.301 NA
ATOM      6  N   UNL     1      34.770 -22.304 -18.435  0.00  0.00    -0.292 N 
ATOM      7  C   UNL     1      33.481 -23.453 -15.392  0.00  0.00    +0.191 C 
ATOM      8  C   UNL     1      32.440 -24.164 -13.623  0.00  0.00    +0.205 C 
ATOM      9  C   UNL     1      32.144 -23.565 -15.638  0.00  0.00    +0.183 C 
ATOM     10  C   UNL     1      33.838 -22.716 -17.556  0.00  0.00    +0.248 C 
ATOM     11  C   UNL     1      31.606 -23.229 -16.941  0.00  0.00    +0.224 C 
ATOM     12  H   UNL     1      35.325 -22.963 -16.108  0.00  0.00    +0.152 HD
ATOM     13  H   UNL     1      35.709 -22.264 -18.141  0.00  0.00    +0.151 HD
ENDROOT
BRANCH   2  15
ATOM     14  O   UNL     1      36.121 -23.992 -14.230  0.00  0.00    -0.338 OA
ATOM     15  C   UNL     1      34.985 -23.888 -13.350  0.00  0.00    +0.182 C 
ATOM     16  C   UNL     1      36.564 -25.278 -12.279  0.00  0.00    +0.144 C 
ATOM     17  C   UNL     1      35.071 -25.077 -12.397  0.00  0.00    +0.079 C 
ATOM     18  C   UNL     1      37.069 -24.925 -13.673  0.00  0.00    +0.174 C 
BRANCH  16  19
ATOM     19  O   UNL     1      37.073 -24.340 -11.334  0.00  0.00    -0.382 OA
ATOM     20  H   UNL     1      37.096 -23.457 -11.736  0.00  0.00    +0.210 HD
ENDBRANCH  16  19
BRANCH  18  21
ATOM     21  C   UNL     1      37.136 -26.133 -14.597  0.00  0.00    +0.186 C 
BRANCH  21  22
ATOM     22  O   UNL     1      38.484 -26.564 -14.683  0.00  0.00    -0.271 OA
BRANCH  22  23
ATOM     23  P   UNL     1      39.622 -25.472 -15.046  0.00  0.00    +0.473 P 
ATOM     24  O   UNL     1      40.490 -25.056 -13.895  0.00  0.00    -0.227 OA
BRANCH  23  25
ATOM     25  O   UNL     1      40.407 -26.164 -16.278  0.00  0.00    -0.303 OA
ATOM     26  H   UNL     1      41.058 -26.796 -15.933  0.00  0.00    +0.222 HD
ENDBRANCH  23  25
BRANCH  23  27
ATOM     27  O   UNL     1      38.794 -24.277 -15.755  0.00  0.00    -0.303 OA
ATOM     28  H   UNL     1      38.035 -24.648 -16.231  0.00  0.00    +0.222 HD
ENDBRANCH  23  27
ENDBRANCH  22  23
ENDBRANCH  21  22
ENDBRANCH  18  21
ENDBRANCH   2  15
BRANCH   6  29
ATOM     29  C   UNL     1      34.456 -21.918 -19.792  0.00  0.00    +0.117 C 
BRANCH  29  30
ATOM     30  C   UNL     1      35.387 -20.847 -20.268  0.00  0.00    -0.003 C 
ATOM     31  C   UNL     1      35.080 -20.028 -21.367  0.00  0.00    -0.002 C 
ATOM     32  C   UNL     1      36.004 -19.033 -21.769  0.00  0.00    -0.000 C 
ATOM     33  C   UNL     1      36.587 -20.687 -19.575  0.00  0.00    -0.003 C 
ATOM     34  C   UNL     1      33.878 -20.174 -22.077  0.00  0.00    -0.000 C 
ATOM     35  C   UNL     1      37.207 -18.887 -21.059  0.00  0.00    -0.000 C 
ATOM     36  C   UNL     1      37.495 -19.709 -19.969  0.00  0.00    -0.000 C 
ATOM     37  C   UNL     1      35.697 -18.215 -22.868  0.00  0.00    -0.000 C 
ATOM     38  C   UNL     1      33.589 -19.353 -23.167  0.00  0.00    -0.000 C 
ATOM     39  C   UNL     1      34.497 -18.374 -23.561  0.00  0.00    -0.000 C 
ENDBRANCH  29  30
ENDBRANCH   6  29
TORSDOF 9
ENDMDL
MODEL 4
REMARK VINA RESULT:     -10.4      3.908      6.661
REMARK  Name = 46937134
REMARK  9 active torsions:
REMARK  status: ('A' for Active; 'I' for Inactive)
REMARK    1  A    between atoms: N_2  and  C_15
REMARK    2  A    between atoms: N_6  and  C_29
REMARK    3  A    between atoms: C_16  and  O_19
REMARK    4  A    between atoms: C_18  and  C_21
REMARK    5  A    between atoms: C_21  and  O_22
REMARK    6  A    between atoms: O_22  and  P_23
REMARK    7  A    between atoms: P_23  and  O_25
REMARK    8  A    between atoms: P_23  and  O_27
REMARK    9  A    between atoms: C_29  and  C_30
REMARK                            x       y       z     vdW  Elec       q    Type
REMARK                         _______ _______ _______ _____ _____    ______ ____
ROOT
ATOM      1  O   UNL     1      31.547 -20.449 -21.315  0.00  0.00    -0.208 OA
ATOM      2  N   UNL     1      34.526 -22.337 -18.490  0.00  0.00    -0.209 NA
ATOM      3  N   UNL     1      35.417 -20.786 -20.138  0.00  0.00    -0.279 N 
ATOM      4  N   UNL     1      32.368 -22.198 -19.089  0.00  0.00    -0.241 NA
ATOM      5  N   UNL     1      33.764 -19.834 -21.596  0.00  0.00    -0.301 NA
ATOM      6  N   UNL     1      36.030 -19.300 -21.767  0.00  0.00    -0.292 N 
ATOM      7  C   UNL     1      34.447 -21.471 -19.526  0.00  0.00    +0.191 C 
ATOM      8  C   UNL     1      33.234 -22.753 -18.259  0.00  0.00    +0.205 C 
ATOM      9  C   UNL     1      33.133 -21.392 -19.884  0.00  0.00    +0.183 C 
ATOM     10  C   UNL     1      35.013 -19.965 -21.188  0.00  0.00    +0.248 C 
ATOM     11  C   UNL     1      32.721 -20.535 -20.978  0.00  0.00    +0.224 C 
ATOM     12  H   UNL     1      36.360 -20.858 -19.864  0.00  0.00    +0.152 HD
ATOM     13  H   UNL     1      36.940 -19.440 -21.420  0.00  0.00    +0.151 HD
ENDROOT
BRANCH   2  15
ATOM     14  O   UNL     1      35.455 -23.783 -16.750  0.00  0.00    -0.338 OA
ATOM     15  C   UNL     1      35.755 -22.771 -17.731  0.00  0.00    +0.182 C 
ATOM     16  C   UNL     1      37.148 -22.363 -15.870  0.00  0.00    +0.144 C 
ATOM     17  C   UNL     1      36.427 -21.629 -16.977  0.00  0.00    +0.079 C 
ATOM     18  C   UNL     1      36.199 -23.510 -15.545  0.00  0.00    +0.174 C 
BRANCH  16  19
ATOM     19  O   UNL     1      38.367 -22.885 -16.393  0.00  0.00    -0.382 OA
ATOM     20  H   UNL     1      39.077 -22.763 -15.743  0.00  0.00    +0.210 HD
ENDBRANCH  16  19
BRANCH  18  21
ATOM     21  C   UNL     1      35.202 -23.156 -14.450  0.00  0.00    +0.186 C 
BRANCH  21  22
ATOM     22  O   UNL     1      35.803 -23.411 -13.191  0.00  0.00    -0.271 OA
BRANCH  22  23
ATOM     23  P   UNL     1      35.207 -24.609 -12.279  0.00  0.00    +0.473 P 
ATOM     24  O   UNL     1      35.238 -24.354 -10.801  0.00  0.00    -0.227 OA
BRANCH  23  25
ATOM     25  O   UNL     1      33.733 -24.838 -12.902  0.00  0.00    -0.303 OA
ATOM     26  H   UNL     1      33.432 -24.021 -13.331  0.00  0.00    +0.222 HD
ENDBRANCH  23  25
BRANCH  23  27
ATOM     27  O   UNL     1      36.027 -25.912 -12.774  0.00  0.00    -0.303 OA
ATOM     28  H   UNL     1      35.782 -26.120 -13.688  0.00  0.00    +0.222 HD
ENDBRANCH  23  27
ENDBRANCH  22  23
ENDBRANCH  21  22
ENDBRANCH  18  21
ENDBRANCH   2  15
BRANCH   6  29
ATOM     29  C   UNL     1      35.846 -18.392 -22.875  0.00  0.00    +0.117 C 
BRANCH  29  30
ATOM     30  C   UNL     1      35.206 -17.118 -22.417  0.00  0.00    -0.003 C 
ATOM     31  C   UNL     1      34.625 -16.211 -23.318  0.00  0.00    -0.002 C 
ATOM     32  C   UNL     1      34.037 -15.023 -22.822  0.00  0.00    -0.000 C 
ATOM     33  C   UNL     1      35.205 -16.859 -21.047  0.00  0.00    -0.003 C 
ATOM     34  C   UNL     1      34.617 -16.454 -24.701  0.00  0.00    -0.000 C 
ATOM     35  C   UNL     1      34.046 -14.778 -21.439  0.00  0.00    -0.000 C 
ATOM     36  C   UNL     1      34.627 -15.692 -20.558  0.00  0.00    -0.000 C 
ATOM     37  C   UNL     1      33.457 -14.115 -23.723  0.00  0.00    -0.000 C 
ATOM     38  C   UNL     1      34.036 -15.542 -25.582  0.00  0.00    -0.000 C 
ATOM     39  C   UNL     1      33.457 -14.375 -25.093  0.00  0.00    -0.000 C 
ENDBRANCH  29  30
ENDBRANCH   6  29
TORSDOF 9
ENDMDL
MODEL 5
REMARK VINA RESULT:     -10.0     12.233     15.348
REMARK  Name = 46937134
REMARK  9 active torsions:
REMARK  status: ('A' for Active; 'I' for Inactive)
REMARK    1  A    between atoms: N_2  and  C_15
REMARK    2  A    between atoms: N_6  and  C_29
REMARK    3  A    between atoms: C_16  and  O_19
REMARK    4  A    between atoms: C_18  and  C_21
REMARK    5  A    between atoms: C_21  and  O_22
REMARK    6  A    between atoms: O_22  and  P_23
REMARK    7  A    between atoms: P_23  and  O_25
REMARK    8  A    between atoms: P_23  and  O_27
REMARK    9  A    between atoms: C_29  and  C_30
REMARK                            x       y       z     vdW  Elec       q    Type
REMARK                         _______ _______ _______ _____ _____    ______ ____
ROOT
ATOM      1  O   UNL     1      35.265 -10.914 -27.540  0.00  0.00    -0.208 OA
ATOM      2  N   UNL     1      32.963 -12.891 -24.190  0.00  0.00    -0.209 NA
ATOM      3  N   UNL     1      33.759 -10.629 -23.781  0.00  0.00    -0.279 N 
ATOM      4  N   UNL     1      33.768 -13.116 -26.273  0.00  0.00    -0.241 NA
ATOM      5  N   UNL     1      34.971  -9.661 -25.613  0.00  0.00    -0.301 NA
ATOM      6  N   UNL     1      34.601  -8.508 -23.617  0.00  0.00    -0.292 N 
ATOM      7  C   UNL     1      33.596 -11.739 -24.507  0.00  0.00    +0.191 C 
ATOM      8  C   UNL     1      33.094 -13.699 -25.297  0.00  0.00    +0.205 C 
ATOM      9  C   UNL     1      34.082 -11.883 -25.774  0.00  0.00    +0.183 C 
ATOM     10  C   UNL     1      34.469  -9.599 -24.394  0.00  0.00    +0.248 C 
ATOM     11  C   UNL     1      34.820 -10.806 -26.404  0.00  0.00    +0.224 C 
ATOM     12  H   UNL     1      33.399 -10.545 -22.868  0.00  0.00    +0.152 HD
ATOM     13  H   UNL     1      34.205  -8.522 -22.715  0.00  0.00    +0.151 HD
ENDROOT
BRANCH   2  15
ATOM     14  O   UNL     1      31.499 -12.132 -22.384  0.00  0.00    -0.338 OA
ATOM     15  C   UNL     1      32.256 -13.242 -22.905  0.00  0.00    +0.182 C 
ATOM     16  C   UNL     1      32.414 -13.343 -20.553  0.00  0.00    +0.144 C 
ATOM     17  C   UNL     1      33.210 -13.670 -21.795  0.00  0.00    +0.079 C 
ATOM     18  C   UNL     1      31.659 -12.081 -20.952  0.00  0.00    +0.174 C 
BRANCH  16  19
ATOM     19  O   UNL     1      31.488 -14.400 -20.318  0.00  0.00    -0.382 OA
ATOM     20  H   UNL     1      30.656 -14.210 -20.781  0.00  0.00    +0.210 HD
ENDBRANCH  16  19
BRANCH  18  21
ATOM     21  C   UNL     1      32.421 -10.807 -20.611  0.00  0.00    +0.186 C 
BRANCH  21  22
ATOM     22  O   UNL     1      31.989  -9.774 -21.480  0.00  0.00    -0.271 OA
BRANCH  22  23
ATOM     23  P   UNL     1      31.834  -8.277 -20.883  0.00  0.00    +0.473 P 
ATOM     24  O   UNL     1      30.932  -7.372 -21.670  0.00  0.00    -0.227 OA
BRANCH  23  25
ATOM     25  O   UNL     1      31.372  -8.542 -19.357  0.00  0.00    -0.303 OA
ATOM     26  H   UNL     1      32.148  -8.512 -18.774  0.00  0.00    +0.222 HD
ENDBRANCH  23  25
BRANCH  23  27
ATOM     27  O   UNL     1      33.361  -7.767 -20.727  0.00  0.00    -0.303 OA
ATOM     28  H   UNL     1      33.891  -8.105 -21.465  0.00  0.00    +0.222 HD
ENDBRANCH  23  27
ENDBRANCH  22  23
ENDBRANCH  21  22
ENDBRANCH  18  21
ENDBRANCH   2  15
BRANCH   6  29
ATOM     29  C   UNL     1      35.300  -7.318 -24.045  0.00  0.00    +0.117 C 
BRANCH  29  30
ATOM     30  C   UNL     1      34.331  -6.229 -24.389  0.00  0.00    -0.003 C 
ATOM     31  C   UNL     1      34.510  -5.400 -25.508  0.00  0.00    -0.002 C 
ATOM     32  C   UNL     1      33.558  -4.387 -25.779  0.00  0.00    -0.000 C 
ATOM     33  C   UNL     1      33.230  -6.063 -23.550  0.00  0.00    -0.003 C 
ATOM     34  C   UNL     1      35.612  -5.552 -26.365  0.00  0.00    -0.000 C 
ATOM     35  C   UNL     1      32.456  -4.235 -24.922  0.00  0.00    -0.000 C 
ATOM     36  C   UNL     1      32.294  -5.069 -23.815  0.00  0.00    -0.000 C 
ATOM     37  C   UNL     1      33.737  -3.557 -26.898  0.00  0.00    -0.000 C 
ATOM     38  C   UNL     1      35.775  -4.719 -27.472  0.00  0.00    -0.000 C 
ATOM     39  C   UNL     1      34.838  -3.724 -27.738  0.00  0.00    -0.000 C 
ENDBRANCH  29  30
ENDBRANCH   6  29
TORSDOF 9
ENDMDL
MODEL 6
REMARK VINA RESULT:      -9.9     12.364     15.425
REMARK  Name = 46937134
REMARK  9 active torsions:
REMARK  status: ('A' for Active; 'I' for Inactive)
REMARK    1  A    between atoms: N_2  and  C_15
REMARK    2  A    between atoms: N_6  and  C_29
REMARK    3  A    between atoms: C_16  and  O_19
REMARK    4  A    between atoms: C_18  and  C_21
REMARK    5  A    between atoms: C_21  and  O_22
REMARK    6  A    between atoms: O_22  and  P_23
REMARK    7  A    between atoms: P_23  and  O_25
REMARK    8  A    between atoms: P_23  and  O_27
REMARK    9  A    between atoms: C_29  and  C_30
REMARK                            x       y       z     vdW  Elec       q    Type
REMARK                         _______ _______ _______ _____ _____    ______ ____
ROOT
ATOM      1  O   UNL     1      30.484 -10.376 -19.732  0.00  0.00    -0.208 OA
ATOM      2  N   UNL     1      32.775 -13.298 -22.308  0.00  0.00    -0.209 NA
ATOM      3  N   UNL     1      32.669 -10.999 -23.096  0.00  0.00    -0.279 N 
ATOM      4  N   UNL     1      31.574 -13.024 -20.432  0.00  0.00    -0.241 NA
ATOM      5  N   UNL     1      31.432  -9.520 -21.666  0.00  0.00    -0.301 NA
ATOM      6  N   UNL     1      32.439  -8.789 -23.641  0.00  0.00    -0.292 N 
ATOM      7  C   UNL     1      32.409 -11.997 -22.247  0.00  0.00    +0.191 C 
ATOM      8  C   UNL     1      32.243 -13.883 -21.181  0.00  0.00    +0.205 C 
ATOM      9  C   UNL     1      31.681 -11.838 -21.104  0.00  0.00    +0.183 C 
ATOM     10  C   UNL     1      32.146  -9.755 -22.751  0.00  0.00    +0.248 C 
ATOM     11  C   UNL     1      31.140 -10.541 -20.753  0.00  0.00    +0.224 C 
ATOM     12  H   UNL     1      33.198 -11.135 -23.916  0.00  0.00    +0.152 HD
ATOM     13  H   UNL     1      32.975  -9.026 -24.432  0.00  0.00    +0.151 HD
ENDROOT
BRANCH   2  15
ATOM     14  O   UNL     1      34.323 -13.049 -24.185  0.00  0.00    -0.338 OA
ATOM     15  C   UNL     1      33.590 -13.987 -23.374  0.00  0.00    +0.182 C 
ATOM     16  C   UNL     1      33.607 -14.842 -25.573  0.00  0.00    +0.144 C 
ATOM     17  C   UNL     1      32.742 -14.814 -24.334  0.00  0.00    +0.079 C 
ATOM     18  C   UNL     1      34.264 -13.467 -25.563  0.00  0.00    +0.174 C 
BRANCH  16  19
ATOM     19  O   UNL     1      34.603 -15.849 -25.407  0.00  0.00    -0.382 OA
ATOM     20  H   UNL     1      34.226 -16.600 -24.921  0.00  0.00    +0.210 HD
ENDBRANCH  16  19
BRANCH  18  21
ATOM     21  C   UNL     1      33.463 -12.427 -26.335  0.00  0.00    +0.186 C 
BRANCH  21  22
ATOM     22  O   UNL     1      34.367 -11.552 -26.988  0.00  0.00    -0.271 OA
BRANCH  22  23
ATOM     23  P   UNL     1      34.573 -10.064 -26.384  0.00  0.00    +0.473 P 
ATOM     24  O   UNL     1      35.519  -9.192 -27.157  0.00  0.00    -0.227 OA
BRANCH  23  25
ATOM     25  O   UNL     1      33.060  -9.504 -26.278  0.00  0.00    -0.303 OA
ATOM     26  H   UNL     1      33.071  -8.534 -26.318  0.00  0.00    +0.222 HD
ENDBRANCH  23  25
BRANCH  23  27
ATOM     27  O   UNL     1      34.981 -10.330 -24.841  0.00  0.00    -0.303 OA
ATOM     28  H   UNL     1      35.841  -9.921 -24.659  0.00  0.00    +0.222 HD
ENDBRANCH  23  27
ENDBRANCH  22  23
ENDBRANCH  21  22
ENDBRANCH  18  21
ENDBRANCH   2  15
BRANCH   6  29
ATOM     29  C   UNL     1      32.001  -7.420 -23.489  0.00  0.00    +0.117 C 
BRANCH  29  30
ATOM     30  C   UNL     1      32.862  -6.495 -24.293  0.00  0.00    -0.003 C 
ATOM     31  C   UNL     1      32.391  -5.257 -24.759  0.00  0.00    -0.002 C 
ATOM     32  C   UNL     1      33.254  -4.428 -25.515  0.00  0.00    -0.000 C 
ATOM     33  C   UNL     1      34.165  -6.910 -24.567  0.00  0.00    -0.003 C 
ATOM     34  C   UNL     1      31.082  -4.823 -24.493  0.00  0.00    -0.000 C 
ATOM     35  C   UNL     1      34.562  -4.862 -25.782  0.00  0.00    -0.000 C 
ATOM     36  C   UNL     1      35.014  -6.095 -25.310  0.00  0.00    -0.000 C 
ATOM     37  C   UNL     1      32.783  -3.190 -25.982  0.00  0.00    -0.000 C 
ATOM     38  C   UNL     1      30.631  -3.590 -24.964  0.00  0.00    -0.000 C 
ATOM     39  C   UNL     1      31.480  -2.775 -25.707  0.00  0.00    -0.000 C 
ENDBRANCH  29  30
ENDBRANCH   6  29
TORSDOF 9
ENDMDL
MODEL 7
REMARK VINA RESULT:      -9.7     12.046     15.228
REMARK  Name = 46937134
REMARK  9 active torsions:
REMARK  status: ('A' for Active; 'I' for Inactive)
REMARK    1  A    between atoms: N_2  and  C_15
REMARK    2  A    between atoms: N_6  and  C_29
REMARK    3  A    between atoms: C_16  and  O_19
REMARK    4  A    between atoms: C_18  and  C_21
REMARK    5  A    between atoms: C_21  and  O_22
REMARK    6  A    between atoms: O_22  and  P_23
REMARK    7  A    between atoms: P_23  and  O_25
REMARK    8  A    between atoms: P_23  and  O_27
REMARK    9  A    between atoms: C_29  and  C_30
REMARK                            x       y       z     vdW  Elec       q    Type
REMARK                         _______ _______ _______ _____ _____    ______ ____
ROOT
ATOM      1  O   UNL     1      31.398  -8.572 -19.234  0.00  0.00    -0.208 OA
ATOM      2  N   UNL     1      32.113 -11.910 -22.196  0.00  0.00    -0.209 NA
ATOM      3  N   UNL     1      32.477  -9.642 -22.998  0.00  0.00    -0.279 N 
ATOM      4  N   UNL     1      31.507 -11.388 -20.100  0.00  0.00    -0.241 NA
ATOM      5  N   UNL     1      32.073  -7.937 -21.358  0.00  0.00    -0.301 NA
ATOM      6  N   UNL     1      32.758  -7.435 -23.533  0.00  0.00    -0.292 N 
ATOM      7  C   UNL     1      32.152 -10.562 -22.086  0.00  0.00    +0.191 C 
ATOM      8  C   UNL     1      31.714 -12.369 -20.961  0.00  0.00    +0.205 C 
ATOM      9  C   UNL     1      31.784 -10.253 -20.809  0.00  0.00    +0.183 C 
ATOM     10  C   UNL     1      32.420  -8.317 -22.573  0.00  0.00    +0.248 C 
ATOM     11  C   UNL     1      31.726  -8.872 -20.375  0.00  0.00    +0.224 C 
ATOM     12  H   UNL     1      32.741  -9.887 -23.915  0.00  0.00    +0.152 HD
ATOM     13  H   UNL     1      33.007  -7.779 -24.421  0.00  0.00    +0.151 HD
ENDROOT
BRANCH   2  15
ATOM     14  O   UNL     1      32.466 -14.159 -23.089  0.00  0.00    -0.338 OA
ATOM     15  C   UNL     1      32.431 -12.754 -23.405  0.00  0.00    +0.182 C 
ATOM     16  C   UNL     1      34.138 -13.716 -24.721  0.00  0.00    +0.144 C 
ATOM     17  C   UNL     1      33.783 -12.421 -24.028  0.00  0.00    +0.079 C 
ATOM     18  C   UNL     1      33.570 -14.774 -23.783  0.00  0.00    +0.174 C 
BRANCH  16  19
ATOM     19  O   UNL     1      33.449 -13.764 -25.968  0.00  0.00    -0.382 OA
ATOM     20  H   UNL     1      33.369 -14.687 -26.258  0.00  0.00    +0.210 HD
ENDBRANCH  16  19
BRANCH  18  21
ATOM     21  C   UNL     1      34.579 -15.237 -22.741  0.00  0.00    +0.186 C 
BRANCH  21  22
ATOM     22  O   UNL     1      35.392 -16.246 -23.314  0.00  0.00    -0.271 OA
BRANCH  22  23
ATOM     23  P   UNL     1      35.301 -17.747 -22.714  0.00  0.00    +0.473 P 
ATOM     24  O   UNL     1      34.248 -18.616 -23.337  0.00  0.00    -0.227 OA
BRANCH  23  25
ATOM     25  O   UNL     1      36.815 -18.292 -22.869  0.00  0.00    -0.303 OA
ATOM     26  H   UNL     1      36.824 -19.257 -22.766  0.00  0.00    +0.222 HD
ENDBRANCH  23  25
BRANCH  23  27
ATOM     27  O   UNL     1      35.151 -17.513 -21.120  0.00  0.00    -0.303 OA
ATOM     28  H   UNL     1      35.324 -18.345 -20.654  0.00  0.00    +0.222 HD
ENDBRANCH  23  27
ENDBRANCH  22  23
ENDBRANCH  21  22
ENDBRANCH  18  21
ENDBRANCH   2  15
BRANCH   6  29
ATOM     29  C   UNL     1      32.770  -6.006 -23.319  0.00  0.00    +0.117 C 
BRANCH  29  30
ATOM     30  C   UNL     1      33.207  -5.288 -24.557  0.00  0.00    -0.003 C 
ATOM     31  C   UNL     1      32.406  -4.313 -25.175  0.00  0.00    -0.002 C 
ATOM     32  C   UNL     1      32.876  -3.670 -26.345  0.00  0.00    -0.000 C 
ATOM     33  C   UNL     1      34.454  -5.622 -25.085  0.00  0.00    -0.003 C 
ATOM     34  C   UNL     1      31.148  -3.963 -24.658  0.00  0.00    -0.000 C 
ATOM     35  C   UNL     1      34.134  -4.021 -26.863  0.00  0.00    -0.000 C 
ATOM     36  C   UNL     1      34.917  -4.990 -26.235  0.00  0.00    -0.000 C 
ATOM     37  C   UNL     1      32.075  -2.696 -26.964  0.00  0.00    -0.000 C 
ATOM     38  C   UNL     1      30.365  -2.993 -25.285  0.00  0.00    -0.000 C 
ATOM     39  C   UNL     1      30.829  -2.361 -26.435  0.00  0.00    -0.000 C 
ENDBRANCH  29  30
ENDBRANCH   6  29
TORSDOF 9
ENDMDL
MODEL 8
REMARK VINA RESULT:      -9.5     10.335     14.251
REMARK  Name = 46937134
REMARK  9 active torsions:
REMARK  status: ('A' for Active; 'I' for Inactive)
REMARK    1  A    between atoms: N_2  and  C_15
REMARK    2  A    between atoms: N_6  and  C_29
REMARK    3  A    between atoms: C_16  and  O_19
REMARK    4  A    between atoms: C_18  and  C_21
REMARK    5  A    between atoms: C_21  and  O_22
REMARK    6  A    between atoms: O_22  and  P_23
REMARK    7  A    between atoms: P_23  and  O_25
REMARK    8  A    between atoms: P_23  and  O_27
REMARK    9  A    between atoms: C_29  and  C_30
REMARK                            x       y       z     vdW  Elec       q    Type
REMARK                         _______ _______ _______ _____ _____    ______ ____
ROOT
ATOM      1  O   UNL     1      35.481 -11.555 -28.119  0.00  0.00    -0.208 OA
ATOM      2  N   UNL     1      34.429  -8.444 -25.013  0.00  0.00    -0.209 NA
ATOM      3  N   UNL     1      33.858 -10.749 -24.486  0.00  0.00    -0.279 N 
ATOM      4  N   UNL     1      35.340  -8.819 -27.030  0.00  0.00    -0.241 NA
ATOM      5  N   UNL     1      34.452 -12.330 -26.192  0.00  0.00    -0.301 NA
ATOM      6  N   UNL     1      33.414 -12.975 -24.203  0.00  0.00    -0.292 N 
ATOM      7  C   UNL     1      34.358  -9.774 -25.250  0.00  0.00    +0.191 C 
ATOM      8  C   UNL     1      35.035  -7.904 -26.126  0.00  0.00    +0.205 C 
ATOM      9  C   UNL     1      34.914  -9.993 -26.477  0.00  0.00    +0.183 C 
ATOM     10  C   UNL     1      33.932 -12.035 -25.015  0.00  0.00    +0.248 C 
ATOM     11  C   UNL     1      34.986 -11.335 -27.020  0.00  0.00    +0.224 C 
ATOM     12  H   UNL     1      33.461 -10.568 -23.603  0.00  0.00    +0.152 HD
ATOM     13  H   UNL     1      33.039 -12.694 -23.337  0.00  0.00    +0.151 HD
ENDROOT
BRANCH   2  15
ATOM     14  O   UNL     1      33.602  -8.570 -22.716  0.00  0.00    -0.338 OA
ATOM     15  C   UNL     1      33.953  -7.688 -23.799  0.00  0.00    +0.182 C 
ATOM     16  C   UNL     1      32.100  -6.726 -22.698  0.00  0.00    +0.144 C 
ATOM     17  C   UNL     1      32.720  -6.832 -24.072  0.00  0.00    +0.079 C 
ATOM     18  C   UNL     1      32.402  -8.086 -22.080  0.00  0.00    +0.174 C 
BRANCH  16  19
ATOM     19  O   UNL     1      32.784  -5.709 -21.970  0.00  0.00    -0.382 OA
ATOM     20  H   UNL     1      32.930  -6.007 -21.058  0.00  0.00    +0.210 HD
ENDBRANCH  16  19
BRANCH  18  21
ATOM     21  C   UNL     1      31.296  -9.104 -22.330  0.00  0.00    +0.186 C 
BRANCH  21  22
ATOM     22  O   UNL     1      31.865 -10.402 -22.323  0.00  0.00    -0.271 OA
BRANCH  22  23
ATOM     23  P   UNL     1      31.270 -11.501 -21.293  0.00  0.00    +0.473 P 
ATOM     24  O   UNL     1      31.948 -11.548 -19.956  0.00  0.00    -0.227 OA
BRANCH  23  25
ATOM     25  O   UNL     1      29.695 -11.137 -21.247  0.00  0.00    -0.303 OA
ATOM     26  H   UNL     1      29.214 -11.704 -21.871  0.00  0.00    +0.222 HD
ENDBRANCH  23  25
BRANCH  23  27
ATOM     27  O   UNL     1      31.309 -12.879 -22.139  0.00  0.00    -0.303 OA
ATOM     28  H   UNL     1      31.866 -12.761 -22.923  0.00  0.00    +0.222 HD
ENDBRANCH  23  27
ENDBRANCH  22  23
ENDBRANCH  21  22
ENDBRANCH  18  21
ENDBRANCH   2  15
BRANCH   6  29
ATOM     29  C   UNL     1      33.382 -14.379 -24.545  0.00  0.00    +0.117 C 
BRANCH  29  30
ATOM     30  C   UNL     1      33.925 -15.211 -23.424  0.00  0.00    -0.003 C 
ATOM     31  C   UNL     1      34.244 -16.568 -23.591  0.00  0.00    -0.002 C 
ATOM     32  C   UNL     1      34.753 -17.300 -22.492  0.00  0.00    -0.000 C 
ATOM     33  C   UNL     1      34.108 -14.583 -22.192  0.00  0.00    -0.003 C 
ATOM     34  C   UNL     1      34.067 -17.217 -24.824  0.00  0.00    -0.000 C 
ATOM     35  C   UNL     1      34.929 -16.652 -21.258  0.00  0.00    -0.000 C 
ATOM     36  C   UNL     1      34.609 -15.302 -21.111  0.00  0.00    -0.000 C 
ATOM     37  C   UNL     1      35.070 -18.658 -22.658  0.00  0.00    -0.000 C 
ATOM     38  C   UNL     1      34.387 -18.566 -24.972  0.00  0.00    -0.000 C 
ATOM     39  C   UNL     1      34.889 -19.285 -23.890  0.00  0.00    -0.000 C 
ENDBRANCH  29  30
ENDBRANCH   6  29
TORSDOF 9
ENDMDL
MODEL 9
REMARK VINA RESULT:      -9.5     11.813     14.951
REMARK  Name = 46937134
REMARK  9 active torsions:
REMARK  status: ('A' for Active; 'I' for Inactive)
REMARK    1  A    between atoms: N_2  and  C_15
REMARK    2  A    between atoms: N_6  and  C_29
REMARK    3  A    between atoms: C_16  and  O_19
REMARK    4  A    between atoms: C_18  and  C_21
REMARK    5  A    between atoms: C_21  and  O_22
REMARK    6  A    between atoms: O_22  and  P_23
REMARK    7  A    between atoms: P_23  and  O_25
REMARK    8  A    between atoms: P_23  and  O_27
REMARK    9  A    between atoms: C_29  and  C_30
REMARK                            x       y       z     vdW  Elec       q    Type
REMARK                         _______ _______ _______ _____ _____    ______ ____
ROOT
ATOM      1  O   UNL     1      31.247  -8.811 -19.108  0.00  0.00    -0.208 OA
ATOM      2  N   UNL     1      32.047 -11.923 -22.286  0.00  0.00    -0.209 NA
ATOM      3  N   UNL     1      32.484  -9.609 -22.891  0.00  0.00    -0.279 N 
ATOM      4  N   UNL     1      31.352 -11.553 -20.184  0.00  0.00    -0.241 NA
ATOM      5  N   UNL     1      32.030  -8.027 -21.144  0.00  0.00    -0.301 NA
ATOM      6  N   UNL     1      32.824  -7.373 -23.240  0.00  0.00    -0.292 N 
ATOM      7  C   UNL     1      32.102 -10.590 -22.069  0.00  0.00    +0.191 C 
ATOM      8  C   UNL     1      31.584 -12.469 -21.110  0.00  0.00    +0.205 C 
ATOM      9  C   UNL     1      31.679 -10.373 -20.790  0.00  0.00    +0.183 C 
ATOM     10  C   UNL     1      32.428  -8.319 -22.368  0.00  0.00    +0.248 C 
ATOM     11  C   UNL     1      31.623  -9.028 -20.253  0.00  0.00    +0.224 C 
ATOM     12  H   UNL     1      32.787  -9.787 -23.812  0.00  0.00    +0.152 HD
ATOM     13  H   UNL     1      33.109  -7.652 -24.140  0.00  0.00    +0.151 HD
ENDROOT
BRANCH   2  15
ATOM     14  O   UNL     1      32.449 -14.102 -23.323  0.00  0.00    -0.338 OA
ATOM     15  C   UNL     1      32.409 -12.678 -23.540  0.00  0.00    +0.182 C 
ATOM     16  C   UNL     1      34.162 -13.531 -24.871  0.00  0.00    +0.144 C 
ATOM     17  C   UNL     1      33.774 -12.291 -24.099  0.00  0.00    +0.079 C 
ATOM     18  C   UNL     1      33.579 -14.657 -24.025  0.00  0.00    +0.174 C 
BRANCH  16  19
ATOM     19  O   UNL     1      33.508 -13.497 -26.138  0.00  0.00    -0.382 OA
ATOM     20  H   UNL     1      32.731 -14.078 -26.116  0.00  0.00    +0.210 HD
ENDBRANCH  16  19
BRANCH  18  21
ATOM     21  C   UNL     1      34.563 -15.183 -22.989  0.00  0.00    +0.186 C 
BRANCH  21  22
ATOM     22  O   UNL     1      35.204 -16.332 -23.516  0.00  0.00    -0.271 OA
BRANCH  22  23
ATOM     23  P   UNL     1      35.288 -17.661 -22.595  0.00  0.00    +0.473 P 
ATOM     24  O   UNL     1      35.110 -17.424 -21.124  0.00  0.00    -0.227 OA
BRANCH  23  25
ATOM     25  O   UNL     1      34.189 -18.637 -23.268  0.00  0.00    -0.303 OA
ATOM     26  H   UNL     1      33.468 -18.104 -23.640  0.00  0.00    +0.222 HD
ENDBRANCH  23  25
BRANCH  23  27
ATOM     27  O   UNL     1      36.696 -18.334 -23.022  0.00  0.00    -0.303 OA
ATOM     28  H   UNL     1      36.556 -18.921 -23.782  0.00  0.00    +0.222 HD
ENDBRANCH  23  27
ENDBRANCH  22  23
ENDBRANCH  21  22
ENDBRANCH  18  21
ENDBRANCH   2  15
BRANCH   6  29
ATOM     29  C   UNL     1      32.848  -5.965 -22.915  0.00  0.00    +0.117 C 
BRANCH  29  30
ATOM     30  C   UNL     1      32.489  -5.138 -24.110  0.00  0.00    -0.003 C 
ATOM     31  C   UNL     1      33.375  -4.958 -25.185  0.00  0.00    -0.002 C 
ATOM     32  C   UNL     1      32.976  -4.163 -26.286  0.00  0.00    -0.000 C 
ATOM     33  C   UNL     1      31.226  -4.545 -24.123  0.00  0.00    -0.003 C 
ATOM     34  C   UNL     1      34.650  -5.546 -25.191  0.00  0.00    -0.000 C 
ATOM     35  C   UNL     1      31.702  -3.573 -26.280  0.00  0.00    -0.000 C 
ATOM     36  C   UNL     1      30.833  -3.764 -25.205  0.00  0.00    -0.000 C 
ATOM     37  C   UNL     1      33.862  -3.981 -27.360  0.00  0.00    -0.000 C 
ATOM     38  C   UNL     1      35.518  -5.356 -26.266  0.00  0.00    -0.000 C 
ATOM     39  C   UNL     1      35.124  -4.575 -27.349  0.00  0.00    -0.000 C 
ENDBRANCH  29  30
ENDBRANCH   6  29
TORSDOF 9
ENDMDL
