MODEL 1
REMARK VINA RESULT:     -11.9      0.000      0.000
REMARK  Name = 25058128
REMARK  13 active torsions:
REMARK  status: ('A' for Active; 'I' for Inactive)
REMARK    1  A    between atoms: C_1  and  S_11
REMARK    2  A    between atoms: C_9  and  O_27
REMARK    3  A    between atoms: S_11  and  N_14
REMARK    4  A    between atoms: N_14  and  C_16
REMARK    5  A    between atoms: C_16  and  C_18
REMARK    6  A    between atoms: C_16  and  C_21
REMARK    7  A    between atoms: C_18  and  O_19
REMARK    8  A    between atoms: C_21  and  C_22
REMARK    9  A    between atoms: C_22  and  C_24
REMARK   10  A    between atoms: C_24  and  O_25
REMARK   11  A    between atoms: O_27  and  C_28
REMARK   12  A    between atoms: C_28  and  C_30
REMARK   13  A    between atoms: C_35  and  C_37
REMARK                            x       y       z     vdW  Elec       q    Type
REMARK                         _______ _______ _______ _____ _____    ______ ____
ROOT
ATOM      1  C   UNL     1      35.837 -22.930 -16.910  0.00  0.00    +0.122 C 
ATOM      2  C   UNL     1      34.401 -22.046 -18.663  0.00  0.00    +0.002 C 
ATOM      3  C   UNL     1      34.578 -22.809 -17.496  0.00  0.00    +0.020 C 
ATOM      4  C   UNL     1      35.519 -21.398 -19.241  0.00  0.00    +0.003 C 
ATOM      5  C   UNL     1      36.936 -22.292 -17.478  0.00  0.00    +0.020 C 
ATOM      6  C   UNL     1      36.779 -21.530 -18.636  0.00  0.00    +0.001 C 
ATOM      7  C   UNL     1      35.343 -20.635 -20.407  0.00  0.00    +0.037 C 
ATOM      8  C   UNL     1      33.141 -21.913 -19.268  0.00  0.00    +0.003 C 
ATOM      9  C   UNL     1      34.083 -20.514 -20.995  0.00  0.00    +0.139 C 
ATOM     10  C   UNL     1      32.984 -21.152 -20.427  0.00  0.00    +0.037 C 
ENDROOT
BRANCH   1  11
ATOM     11  S   UNL     1      36.038 -23.895 -15.441  0.00  0.00    +0.061 S 
ATOM     12  O   UNL     1      35.542 -23.116 -14.324  0.00  0.00    -0.153 OA
ATOM     13  O   UNL     1      35.487 -25.207 -15.720  0.00  0.00    -0.153 OA
BRANCH  11  14
ATOM     14  N   UNL     1      37.730 -24.020 -15.335  0.00  0.00    -0.170 NA
ATOM     15  H   UNL     1      38.060 -23.178 -14.863  0.00  0.00    +0.149 HD
BRANCH  14  16
ATOM     16  C   UNL     1      38.343 -25.170 -14.635  0.00  0.00    +0.174 C 
BRANCH  16  18
ATOM     17  O   UNL     1      40.746 -24.847 -14.451  0.00  0.00    -0.249 OA
ATOM     18  C   UNL     1      39.783 -25.273 -15.076  0.00  0.00    +0.330 C 
BRANCH  18  19
ATOM     19  O   UNL     1      39.910 -25.923 -16.262  0.00  0.00    -0.479 OA
ATOM     20  H   UNL     1      40.761 -26.125 -16.597  0.00  0.00    +0.295 HD
ENDBRANCH  18  19
ENDBRANCH  16  18
BRANCH  16  21
ATOM     21  C   UNL     1      38.147 -25.041 -13.119  0.00  0.00    +0.040 C 
BRANCH  21  22
ATOM     22  C   UNL     1      37.004 -25.856 -12.508  0.00  0.00    +0.111 C 
BRANCH  22  24
ATOM     23  O   UNL     1      36.391 -24.363 -10.710  0.00  0.00    -0.250 OA
ATOM     24  C   UNL     1      36.051 -25.039 -11.674  0.00  0.00    +0.314 C 
BRANCH  24  25
ATOM     25  O   UNL     1      34.764 -25.142 -12.090  0.00  0.00    -0.480 OA
ATOM     26  H   UNL     1      34.097 -25.408 -11.488  0.00  0.00    +0.295 HD
ENDBRANCH  24  25
ENDBRANCH  22  24
ENDBRANCH  21  22
ENDBRANCH  16  21
ENDBRANCH  14  16
ENDBRANCH  11  14
ENDBRANCH   1  11
BRANCH   9  27
ATOM     27  O   UNL     1      33.928 -19.770 -22.124  0.00  0.00    -0.471 OA
BRANCH  27  28
ATOM     28  C   UNL     1      35.107 -19.217 -22.705  0.00  0.00    +0.234 C 
BRANCH  28  30
ATOM     29  F   UNL     1      35.164 -17.079 -20.851  0.00  0.00    -0.204 F 
ATOM     30  C   UNL     1      34.842 -17.792 -23.092  0.00  0.00    +0.049 C 
ATOM     31  C   UNL     1      34.884 -16.785 -22.128  0.00  0.00    +0.140 C 
ATOM     32  C   UNL     1      34.552 -17.476 -24.419  0.00  0.00    +0.002 C 
ATOM     33  C   UNL     1      34.636 -15.461 -22.492  0.00  0.00    +0.040 C 
ATOM     34  C   UNL     1      34.303 -16.152 -24.782  0.00  0.00    +0.010 C 
ATOM     35  C   UNL     1      34.345 -15.144 -23.819  0.00  0.00    +0.071 C 
BRANCH  35  37
ATOM     36  N   UNL     1      33.887 -12.686 -24.493  0.00  0.00    -0.191 NA
ATOM     37  C   UNL     1      34.093 -13.788 -24.191  0.00  0.00    +0.100 C 
ENDBRANCH  35  37
ENDBRANCH  28  30
ENDBRANCH  27  28
ENDBRANCH   9  27
TORSDOF 13
ENDMDL
MODEL 2
REMARK VINA RESULT:     -11.7      0.979      1.669
REMARK  Name = 25058128
REMARK  13 active torsions:
REMARK  status: ('A' for Active; 'I' for Inactive)
REMARK    1  A    between atoms: C_1  and  S_11
REMARK    2  A    between atoms: C_9  and  O_27
REMARK    3  A    between atoms: S_11  and  N_14
REMARK    4  A    between atoms: N_14  and  C_16
REMARK    5  A    between atoms: C_16  and  C_18
REMARK    6  A    between atoms: C_16  and  C_21
REMARK    7  A    between atoms: C_18  and  O_19
REMARK    8  A    between atoms: C_21  and  C_22
REMARK    9  A    between atoms: C_22  and  C_24
REMARK   10  A    between atoms: C_24  and  O_25
REMARK   11  A    between atoms: O_27  and  C_28
REMARK   12  A    between atoms: C_28  and  C_30
REMARK   13  A    between atoms: C_35  and  C_37
REMARK                            x       y       z     vdW  Elec       q    Type
REMARK                         _______ _______ _______ _____ _____    ______ ____
ROOT
ATOM      1  C   UNL     1      34.380 -23.531 -16.769  0.00  0.00    +0.122 C 
ATOM      2  C   UNL     1      35.068 -22.087 -18.601  0.00  0.00    +0.002 C 
ATOM      3  C   UNL     1      35.382 -22.867 -17.476  0.00  0.00    +0.020 C 
ATOM      4  C   UNL     1      33.718 -21.980 -19.014  0.00  0.00    +0.003 C 
ATOM      5  C   UNL     1      33.053 -23.427 -17.175  0.00  0.00    +0.020 C 
ATOM      6  C   UNL     1      32.723 -22.657 -18.291  0.00  0.00    +0.001 C 
ATOM      7  C   UNL     1      33.404 -21.201 -20.140  0.00  0.00    +0.037 C 
ATOM      8  C   UNL     1      36.063 -21.410 -19.325  0.00  0.00    +0.003 C 
ATOM      9  C   UNL     1      34.406 -20.536 -20.847  0.00  0.00    +0.139 C 
ATOM     10  C   UNL     1      35.732 -20.640 -20.441  0.00  0.00    +0.037 C 
ENDROOT
BRANCH   1  11
ATOM     11  S   UNL     1      34.797 -24.508 -15.355  0.00  0.00    +0.061 S 
ATOM     12  O   UNL     1      33.846 -24.202 -14.304  0.00  0.00    -0.153 OA
ATOM     13  O   UNL     1      34.959 -25.873 -15.818  0.00  0.00    -0.153 OA
BRANCH  11  14
ATOM     14  N   UNL     1      36.321 -23.884 -14.937  0.00  0.00    -0.170 NA
ATOM     15  H   UNL     1      36.155 -23.045 -14.381  0.00  0.00    +0.149 HD
BRANCH  14  16
ATOM     16  C   UNL     1      37.277 -24.718 -14.175  0.00  0.00    +0.174 C 
BRANCH  16  18
ATOM     17  O   UNL     1      39.114 -26.009 -15.109  0.00  0.00    -0.249 OA
ATOM     18  C   UNL     1      38.486 -24.959 -15.046  0.00  0.00    +0.330 C 
BRANCH  18  19
ATOM     19  O   UNL     1      38.806 -23.870 -15.792  0.00  0.00    -0.479 OA
ATOM     20  H   UNL     1      39.161 -23.107 -15.379  0.00  0.00    +0.295 HD
ENDBRANCH  18  19
ENDBRANCH  16  18
BRANCH  16  21
ATOM     21  C   UNL     1      37.587 -24.074 -12.818  0.00  0.00    +0.040 C 
BRANCH  21  22
ATOM     22  C   UNL     1      36.412 -23.410 -12.094  0.00  0.00    +0.111 C 
BRANCH  22  24
ATOM     23  O   UNL     1      35.894 -24.295  -9.907  0.00  0.00    -0.250 OA
ATOM     24  C   UNL     1      35.706 -24.316 -11.117  0.00  0.00    +0.314 C 
BRANCH  24  25
ATOM     25  O   UNL     1      34.847 -25.175 -11.721  0.00  0.00    -0.480 OA
ATOM     26  H   UNL     1      34.803 -25.211 -12.657  0.00  0.00    +0.295 HD
ENDBRANCH  24  25
ENDBRANCH  22  24
ENDBRANCH  21  22
ENDBRANCH  16  21
ENDBRANCH  14  16
ENDBRANCH  11  14
ENDBRANCH   1  11
BRANCH   9  27
ATOM     27  O   UNL     1      34.085 -19.785 -21.936  0.00  0.00    -0.471 OA
BRANCH  27  28
ATOM     28  C   UNL     1      35.166 -19.286 -22.722  0.00  0.00    +0.234 C 
BRANCH  28  30
ATOM     29  F   UNL     1      35.208 -17.131 -20.887  0.00  0.00    -0.204 F 
ATOM     30  C   UNL     1      34.871 -17.869 -23.118  0.00  0.00    +0.049 C 
ATOM     31  C   UNL     1      34.908 -16.853 -22.163  0.00  0.00    +0.140 C 
ATOM     32  C   UNL     1      34.559 -17.570 -24.444  0.00  0.00    +0.002 C 
ATOM     33  C   UNL     1      34.632 -15.537 -22.535  0.00  0.00    +0.040 C 
ATOM     34  C   UNL     1      34.283 -16.253 -24.815  0.00  0.00    +0.010 C 
ATOM     35  C   UNL     1      34.319 -15.237 -23.861  0.00  0.00    +0.071 C 
BRANCH  35  37
ATOM     36  N   UNL     1      33.811 -12.794 -24.551  0.00  0.00    -0.191 NA
ATOM     37  C   UNL     1      34.039 -13.889 -24.241  0.00  0.00    +0.100 C 
ENDBRANCH  35  37
ENDBRANCH  28  30
ENDBRANCH  27  28
ENDBRANCH   9  27
TORSDOF 13
ENDMDL
MODEL 3
REMARK VINA RESULT:     -11.7      1.395      3.015
REMARK  Name = 25058128
REMARK  13 active torsions:
REMARK  status: ('A' for Active; 'I' for Inactive)
REMARK    1  A    between atoms: C_1  and  S_11
REMARK    2  A    between atoms: C_9  and  O_27
REMARK    3  A    between atoms: S_11  and  N_14
REMARK    4  A    between atoms: N_14  and  C_16
REMARK    5  A    between atoms: C_16  and  C_18
REMARK    6  A    between atoms: C_16  and  C_21
REMARK    7  A    between atoms: C_18  and  O_19
REMARK    8  A    between atoms: C_21  and  C_22
REMARK    9  A    between atoms: C_22  and  C_24
REMARK   10  A    between atoms: C_24  and  O_25
REMARK   11  A    between atoms: O_27  and  C_28
REMARK   12  A    between atoms: C_28  and  C_30
REMARK   13  A    between atoms: C_35  and  C_37
REMARK                            x       y       z     vdW  Elec       q    Type
REMARK                         _______ _______ _______ _____ _____    ______ ____
ROOT
ATOM      1  C   UNL     1      35.573 -23.361 -15.864  0.00  0.00    +0.122 C 
ATOM      2  C   UNL     1      34.483 -22.536 -17.875  0.00  0.00    +0.002 C 
ATOM      3  C   UNL     1      34.435 -23.237 -16.659  0.00  0.00    +0.020 C 
ATOM      4  C   UNL     1      35.705 -21.951 -18.288  0.00  0.00    +0.003 C 
ATOM      5  C   UNL     1      36.774 -22.785 -16.269  0.00  0.00    +0.020 C 
ATOM      6  C   UNL     1      36.840 -22.085 -17.474  0.00  0.00    +0.001 C 
ATOM      7  C   UNL     1      35.753 -21.249 -19.504  0.00  0.00    +0.037 C 
ATOM      8  C   UNL     1      33.347 -22.402 -18.691  0.00  0.00    +0.003 C 
ATOM      9  C   UNL     1      34.614 -21.126 -20.301  0.00  0.00    +0.139 C 
ATOM     10  C   UNL     1      33.414 -21.701 -19.895  0.00  0.00    +0.037 C 
ENDROOT
BRANCH   1  11
ATOM     11  S   UNL     1      35.491 -24.248 -14.336  0.00  0.00    +0.061 S 
ATOM     12  O   UNL     1      34.242 -23.905 -13.687  0.00  0.00    -0.153 OA
ATOM     13  O   UNL     1      35.803 -25.633 -14.635  0.00  0.00    -0.153 OA
BRANCH  11  14
ATOM     14  N   UNL     1      36.784 -23.569 -13.468  0.00  0.00    -0.170 NA
ATOM     15  H   UNL     1      36.400 -22.799 -12.920  0.00  0.00    +0.149 HD
BRANCH  14  16
ATOM     16  C   UNL     1      37.569 -24.407 -12.535  0.00  0.00    +0.174 C 
BRANCH  16  18
ATOM     17  O   UNL     1      36.195 -24.306 -10.530  0.00  0.00    -0.249 OA
ATOM     18  C   UNL     1      36.628 -24.943 -11.483  0.00  0.00    +0.330 C 
BRANCH  18  19
ATOM     19  O   UNL     1      36.283 -26.236 -11.715  0.00  0.00    -0.479 OA
ATOM     20  H   UNL     1      36.823 -26.930 -11.393  0.00  0.00    +0.295 HD
ENDBRANCH  18  19
ENDBRANCH  16  18
BRANCH  16  21
ATOM     21  C   UNL     1      38.346 -25.482 -13.303  0.00  0.00    +0.040 C 
BRANCH  21  22
ATOM     22  C   UNL     1      39.322 -24.984 -14.373  0.00  0.00    +0.111 C 
BRANCH  22  24
ATOM     23  O   UNL     1      40.929 -26.777 -14.181  0.00  0.00    -0.250 OA
ATOM     24  C   UNL     1      40.250 -26.051 -14.897  0.00  0.00    +0.314 C 
BRANCH  24  25
ATOM     25  O   UNL     1      40.270 -26.113 -16.251  0.00  0.00    -0.480 OA
ATOM     26  H   UNL     1      39.469 -26.219 -16.726  0.00  0.00    +0.295 HD
ENDBRANCH  24  25
ENDBRANCH  22  24
ENDBRANCH  21  22
ENDBRANCH  16  21
ENDBRANCH  14  16
ENDBRANCH  11  14
ENDBRANCH   1  11
BRANCH   9  27
ATOM     27  O   UNL     1      34.677 -20.441 -21.476  0.00  0.00    -0.471 OA
BRANCH  27  28
ATOM     28  C   UNL     1      35.663 -19.415 -21.578  0.00  0.00    +0.234 C 
BRANCH  28  30
ATOM     29  F   UNL     1      34.759 -20.043 -24.186  0.00  0.00    -0.204 F 
ATOM     30  C   UNL     1      35.190 -18.377 -22.552  0.00  0.00    +0.049 C 
ATOM     31  C   UNL     1      34.758 -18.753 -23.823  0.00  0.00    +0.140 C 
ATOM     32  C   UNL     1      35.184 -17.031 -22.183  0.00  0.00    +0.002 C 
ATOM     33  C   UNL     1      34.319 -17.784 -24.726  0.00  0.00    +0.040 C 
ATOM     34  C   UNL     1      34.746 -16.062 -23.087  0.00  0.00    +0.010 C 
ATOM     35  C   UNL     1      34.314 -16.439 -24.358  0.00  0.00    +0.071 C 
BRANCH  35  37
ATOM     36  N   UNL     1      33.496 -14.641 -26.033  0.00  0.00    -0.191 NA
ATOM     37  C   UNL     1      33.863 -15.447 -25.283  0.00  0.00    +0.100 C 
ENDBRANCH  35  37
ENDBRANCH  28  30
ENDBRANCH  27  28
ENDBRANCH   9  27
TORSDOF 13
ENDMDL
MODEL 4
REMARK VINA RESULT:     -11.3      3.445      5.231
REMARK  Name = 25058128
REMARK  13 active torsions:
REMARK  status: ('A' for Active; 'I' for Inactive)
REMARK    1  A    between atoms: C_1  and  S_11
REMARK    2  A    between atoms: C_9  and  O_27
REMARK    3  A    between atoms: S_11  and  N_14
REMARK    4  A    between atoms: N_14  and  C_16
REMARK    5  A    between atoms: C_16  and  C_18
REMARK    6  A    between atoms: C_16  and  C_21
REMARK    7  A    between atoms: C_18  and  O_19
REMARK    8  A    between atoms: C_21  and  C_22
REMARK    9  A    between atoms: C_22  and  C_24
REMARK   10  A    between atoms: C_24  and  O_25
REMARK   11  A    between atoms: O_27  and  C_28
REMARK   12  A    between atoms: C_28  and  C_30
REMARK   13  A    between atoms: C_35  and  C_37
REMARK                            x       y       z     vdW  Elec       q    Type
REMARK                         _______ _______ _______ _____ _____    ______ ____
ROOT
ATOM      1  C   UNL     1      33.790 -22.091 -19.137  0.00  0.00    +0.122 C 
ATOM      2  C   UNL     1      35.237 -20.623 -20.428  0.00  0.00    +0.002 C 
ATOM      3  C   UNL     1      35.065 -21.641 -19.476  0.00  0.00    +0.020 C 
ATOM      4  C   UNL     1      34.097 -20.054 -21.045  0.00  0.00    +0.003 C 
ATOM      5  C   UNL     1      32.669 -21.533 -19.745  0.00  0.00    +0.020 C 
ATOM      6  C   UNL     1      32.820 -20.521 -20.693  0.00  0.00    +0.001 C 
ATOM      7  C   UNL     1      34.267 -19.037 -21.998  0.00  0.00    +0.037 C 
ATOM      8  C   UNL     1      36.513 -20.156 -20.781  0.00  0.00    +0.003 C 
ATOM      9  C   UNL     1      35.544 -18.585 -22.336  0.00  0.00    +0.139 C 
ATOM     10  C   UNL     1      36.664 -19.143 -21.729  0.00  0.00    +0.037 C 
ENDROOT
BRANCH   1  11
ATOM     11  S   UNL     1      33.596 -23.375 -17.936  0.00  0.00    +0.061 S 
ATOM     12  O   UNL     1      33.361 -24.617 -18.643  0.00  0.00    -0.153 OA
ATOM     13  O   UNL     1      34.709 -23.259 -17.012  0.00  0.00    -0.153 OA
BRANCH  11  14
ATOM     14  N   UNL     1      32.171 -22.897 -17.142  0.00  0.00    -0.170 NA
ATOM     15  H   UNL     1      31.457 -22.782 -17.861  0.00  0.00    +0.149 HD
BRANCH  14  16
ATOM     16  C   UNL     1      31.586 -23.760 -16.092  0.00  0.00    +0.174 C 
BRANCH  16  18
ATOM     17  O   UNL     1      32.978 -25.012 -14.540  0.00  0.00    -0.249 OA
ATOM     18  C   UNL     1      32.616 -23.937 -15.004  0.00  0.00    +0.330 C 
BRANCH  18  19
ATOM     19  O   UNL     1      33.133 -22.751 -14.589  0.00  0.00    -0.479 OA
ATOM     20  H   UNL     1      33.405 -22.644 -13.699  0.00  0.00    +0.295 HD
ENDBRANCH  18  19
ENDBRANCH  16  18
BRANCH  16  21
ATOM     21  C   UNL     1      30.245 -23.189 -15.615  0.00  0.00    +0.040 C 
BRANCH  21  22
ATOM     22  C   UNL     1      28.993 -23.990 -15.983  0.00  0.00    +0.111 C 
BRANCH  22  24
ATOM     23  O   UNL     1      28.125 -22.155 -17.293  0.00  0.00    -0.250 OA
ATOM     24  C   UNL     1      28.163 -23.359 -17.073  0.00  0.00    +0.314 C 
BRANCH  24  25
ATOM     25  O   UNL     1      27.444 -24.266 -17.779  0.00  0.00    -0.480 OA
ATOM     26  H   UNL     1      27.328 -25.134 -17.444  0.00  0.00    +0.295 HD
ENDBRANCH  24  25
ENDBRANCH  22  24
ENDBRANCH  21  22
ENDBRANCH  16  21
ENDBRANCH  14  16
ENDBRANCH  11  14
ENDBRANCH   1  11
BRANCH   9  27
ATOM     27  O   UNL     1      35.693 -17.599 -23.262  0.00  0.00    -0.471 OA
BRANCH  27  28
ATOM     28  C   UNL     1      34.578 -17.331 -24.111  0.00  0.00    +0.234 C 
BRANCH  28  30
ATOM     29  F   UNL     1      34.889 -15.719 -21.805  0.00  0.00    -0.204 F 
ATOM     30  C   UNL     1      34.296 -15.858 -24.100  0.00  0.00    +0.049 C 
ATOM     31  C   UNL     1      34.469 -15.120 -22.928  0.00  0.00    +0.140 C 
ATOM     32  C   UNL     1      33.860 -15.225 -25.264  0.00  0.00    +0.002 C 
ATOM     33  C   UNL     1      34.205 -13.750 -22.922  0.00  0.00    +0.040 C 
ATOM     34  C   UNL     1      33.596 -13.855 -25.256  0.00  0.00    +0.010 C 
ATOM     35  C   UNL     1      33.768 -13.117 -24.085  0.00  0.00    +0.071 C 
BRANCH  35  37
ATOM     36  N   UNL     1      33.281 -10.575 -24.071  0.00  0.00    -0.191 NA
ATOM     37  C   UNL     1      33.500 -11.714 -24.078  0.00  0.00    +0.100 C 
ENDBRANCH  35  37
ENDBRANCH  28  30
ENDBRANCH  27  28
ENDBRANCH   9  27
TORSDOF 13
ENDMDL
MODEL 5
REMARK VINA RESULT:     -11.1      2.507      4.044
REMARK  Name = 25058128
REMARK  13 active torsions:
REMARK  status: ('A' for Active; 'I' for Inactive)
REMARK    1  A    between atoms: C_1  and  S_11
REMARK    2  A    between atoms: C_9  and  O_27
REMARK    3  A    between atoms: S_11  and  N_14
REMARK    4  A    between atoms: N_14  and  C_16
REMARK    5  A    between atoms: C_16  and  C_18
REMARK    6  A    between atoms: C_16  and  C_21
REMARK    7  A    between atoms: C_18  and  O_19
REMARK    8  A    between atoms: C_21  and  C_22
REMARK    9  A    between atoms: C_22  and  C_24
REMARK   10  A    between atoms: C_24  and  O_25
REMARK   11  A    between atoms: O_27  and  C_28
REMARK   12  A    between atoms: C_28  and  C_30
REMARK   13  A    between atoms: C_35  and  C_37
REMARK                            x       y       z     vdW  Elec       q    Type
REMARK                         _______ _______ _______ _____ _____    ______ ____
ROOT
ATOM      1  C   UNL     1      35.348 -22.640 -17.301  0.00  0.00    +0.122 C 
ATOM      2  C   UNL     1      34.079 -21.663 -19.131  0.00  0.00    +0.002 C 
ATOM      3  C   UNL     1      34.130 -22.396 -17.934  0.00  0.00    +0.020 C 
ATOM      4  C   UNL     1      35.281 -21.170 -19.692  0.00  0.00    +0.003 C 
ATOM      5  C   UNL     1      36.530 -22.155 -17.852  0.00  0.00    +0.020 C 
ATOM      6  C   UNL     1      36.498 -21.424 -19.040  0.00  0.00    +0.001 C 
ATOM      7  C   UNL     1      35.230 -20.436 -20.888  0.00  0.00    +0.037 C 
ATOM      8  C   UNL     1      32.861 -21.408 -19.783  0.00  0.00    +0.003 C 
ATOM      9  C   UNL     1      34.011 -20.192 -21.523  0.00  0.00    +0.139 C 
ATOM     10  C   UNL     1      32.830 -20.677 -20.971  0.00  0.00    +0.037 C 
ENDROOT
BRANCH   1  11
ATOM     11  S   UNL     1      35.391 -23.566 -15.794  0.00  0.00    +0.061 S 
ATOM     12  O   UNL     1      35.225 -24.967 -16.126  0.00  0.00    -0.153 OA
ATOM     13  O   UNL     1      36.561 -23.122 -15.060  0.00  0.00    -0.153 OA
BRANCH  11  14
ATOM     14  N   UNL     1      33.998 -23.004 -15.000  0.00  0.00    -0.170 NA
ATOM     15  H   UNL     1      33.765 -22.101 -15.416  0.00  0.00    +0.149 HD
BRANCH  14  16
ATOM     16  C   UNL     1      32.760 -23.814 -15.016  0.00  0.00    +0.174 C 
BRANCH  16  18
ATOM     17  O   UNL     1      33.449 -24.531 -12.797  0.00  0.00    -0.249 OA
ATOM     18  C   UNL     1      32.771 -24.709 -13.801  0.00  0.00    +0.330 C 
BRANCH  18  19
ATOM     19  O   UNL     1      31.911 -25.754 -13.926  0.00  0.00    -0.479 OA
ATOM     20  H   UNL     1      31.983 -26.491 -13.353  0.00  0.00    +0.295 HD
ENDBRANCH  18  19
ENDBRANCH  16  18
BRANCH  16  21
ATOM     21  C   UNL     1      31.528 -22.909 -15.132  0.00  0.00    +0.040 C 
BRANCH  21  22
ATOM     22  C   UNL     1      30.593 -23.177 -16.314  0.00  0.00    +0.111 C 
BRANCH  22  24
ATOM     23  O   UNL     1      28.276 -23.618 -15.795  0.00  0.00    -0.250 OA
ATOM     24  C   UNL     1      29.410 -24.046 -15.972  0.00  0.00    +0.314 C 
BRANCH  24  25
ATOM     25  O   UNL     1      29.734 -25.359 -15.862  0.00  0.00    -0.480 OA
ATOM     26  H   UNL     1      29.691 -25.783 -15.027  0.00  0.00    +0.295 HD
ENDBRANCH  24  25
ENDBRANCH  22  24
ENDBRANCH  21  22
ENDBRANCH  16  21
ENDBRANCH  14  16
ENDBRANCH  11  14
ENDBRANCH   1  11
BRANCH   9  27
ATOM     27  O   UNL     1      33.978 -19.478 -22.681  0.00  0.00    -0.471 OA
BRANCH  27  28
ATOM     28  C   UNL     1      35.174 -18.799 -23.060  0.00  0.00    +0.234 C 
BRANCH  28  30
ATOM     29  F   UNL     1      35.067 -16.867 -20.995  0.00  0.00    -0.204 F 
ATOM     30  C   UNL     1      34.859 -17.354 -23.309  0.00  0.00    +0.049 C 
ATOM     31  C   UNL     1      34.821 -16.452 -22.245  0.00  0.00    +0.140 C 
ATOM     32  C   UNL     1      34.604 -16.913 -24.607  0.00  0.00    +0.002 C 
ATOM     33  C   UNL     1      34.528 -15.109 -22.481  0.00  0.00    +0.040 C 
ATOM     34  C   UNL     1      34.310 -15.569 -24.842  0.00  0.00    +0.010 C 
ATOM     35  C   UNL     1      34.271 -14.667 -23.779  0.00  0.00    +0.071 C 
BRANCH  35  37
ATOM     36  N   UNL     1      33.729 -12.173 -24.215  0.00  0.00    -0.191 NA
ATOM     37  C   UNL     1      33.973 -13.291 -24.019  0.00  0.00    +0.100 C 
ENDBRANCH  35  37
ENDBRANCH  28  30
ENDBRANCH  27  28
ENDBRANCH   9  27
TORSDOF 13
ENDMDL
MODEL 6
REMARK VINA RESULT:     -11.1      2.191      3.330
REMARK  Name = 25058128
REMARK  13 active torsions:
REMARK  status: ('A' for Active; 'I' for Inactive)
REMARK    1  A    between atoms: C_1  and  S_11
REMARK    2  A    between atoms: C_9  and  O_27
REMARK    3  A    between atoms: S_11  and  N_14
REMARK    4  A    between atoms: N_14  and  C_16
REMARK    5  A    between atoms: C_16  and  C_18
REMARK    6  A    between atoms: C_16  and  C_21
REMARK    7  A    between atoms: C_18  and  O_19
REMARK    8  A    between atoms: C_21  and  C_22
REMARK    9  A    between atoms: C_22  and  C_24
REMARK   10  A    between atoms: C_24  and  O_25
REMARK   11  A    between atoms: O_27  and  C_28
REMARK   12  A    between atoms: C_28  and  C_30
REMARK   13  A    between atoms: C_35  and  C_37
REMARK                            x       y       z     vdW  Elec       q    Type
REMARK                         _______ _______ _______ _____ _____    ______ ____
ROOT
ATOM      1  C   UNL     1      33.665 -22.102 -19.130  0.00  0.00    +0.122 C 
ATOM      2  C   UNL     1      35.135 -20.651 -20.414  0.00  0.00    +0.002 C 
ATOM      3  C   UNL     1      34.947 -21.668 -19.464  0.00  0.00    +0.020 C 
ATOM      4  C   UNL     1      34.005 -20.068 -21.035  0.00  0.00    +0.003 C 
ATOM      5  C   UNL     1      32.554 -21.529 -19.741  0.00  0.00    +0.020 C 
ATOM      6  C   UNL     1      32.721 -20.518 -20.688  0.00  0.00    +0.001 C 
ATOM      7  C   UNL     1      34.192 -19.051 -21.986  0.00  0.00    +0.037 C 
ATOM      8  C   UNL     1      36.419 -20.200 -20.762  0.00  0.00    +0.003 C 
ATOM      9  C   UNL     1      35.475 -18.616 -22.320  0.00  0.00    +0.139 C 
ATOM     10  C   UNL     1      36.586 -19.189 -21.709  0.00  0.00    +0.037 C 
ENDROOT
BRANCH   1  11
ATOM     11  S   UNL     1      33.450 -23.384 -17.931  0.00  0.00    +0.061 S 
ATOM     12  O   UNL     1      32.344 -23.011 -17.071  0.00  0.00    -0.153 OA
ATOM     13  O   UNL     1      33.421 -24.639 -18.656  0.00  0.00    -0.153 OA
BRANCH  11  14
ATOM     14  N   UNL     1      34.903 -23.289 -17.055  0.00  0.00    -0.170 NA
ATOM     15  H   UNL     1      35.293 -22.362 -17.229  0.00  0.00    +0.149 HD
BRANCH  14  16
ATOM     16  C   UNL     1      34.896 -23.480 -15.588  0.00  0.00    +0.174 C 
BRANCH  16  18
ATOM     17  O   UNL     1      35.498 -25.818 -15.880  0.00  0.00    -0.249 OA
ATOM     18  C   UNL     1      34.834 -24.962 -15.309  0.00  0.00    +0.330 C 
BRANCH  18  19
ATOM     19  O   UNL     1      33.954 -25.260 -14.317  0.00  0.00    -0.479 OA
ATOM     20  H   UNL     1      34.115 -25.989 -13.751  0.00  0.00    +0.295 HD
ENDBRANCH  18  19
ENDBRANCH  16  18
BRANCH  16  21
ATOM     21  C   UNL     1      36.089 -22.759 -14.947  0.00  0.00    +0.040 C 
BRANCH  21  22
ATOM     22  C   UNL     1      36.829 -23.517 -13.842  0.00  0.00    +0.111 C 
BRANCH  22  24
ATOM     23  O   UNL     1      37.133 -22.441 -11.700  0.00  0.00    -0.250 OA
ATOM     24  C   UNL     1      36.427 -23.107 -12.447  0.00  0.00    +0.314 C 
BRANCH  24  25
ATOM     25  O   UNL     1      35.202 -23.570 -12.094  0.00  0.00    -0.480 OA
ATOM     26  H   UNL     1      35.074 -23.956 -11.250  0.00  0.00    +0.295 HD
ENDBRANCH  24  25
ENDBRANCH  22  24
ENDBRANCH  21  22
ENDBRANCH  16  21
ENDBRANCH  14  16
ENDBRANCH  11  14
ENDBRANCH   1  11
BRANCH   9  27
ATOM     27  O   UNL     1      35.641 -17.631 -23.244  0.00  0.00    -0.471 OA
BRANCH  27  28
ATOM     28  C   UNL     1      34.535 -17.352 -24.101  0.00  0.00    +0.234 C 
BRANCH  28  30
ATOM     29  F   UNL     1      34.837 -15.721 -21.807  0.00  0.00    -0.204 F 
ATOM     30  C   UNL     1      34.283 -15.873 -24.110  0.00  0.00    +0.049 C 
ATOM     31  C   UNL     1      34.449 -15.127 -22.944  0.00  0.00    +0.140 C 
ATOM     32  C   UNL     1      33.880 -15.245 -25.289  0.00  0.00    +0.002 C 
ATOM     33  C   UNL     1      34.213 -13.752 -22.956  0.00  0.00    +0.040 C 
ATOM     34  C   UNL     1      33.643 -13.870 -25.301  0.00  0.00    +0.010 C 
ATOM     35  C   UNL     1      33.809 -13.123 -24.134  0.00  0.00    +0.071 C 
BRANCH  35  37
ATOM     36  N   UNL     1      33.375 -10.571 -24.158  0.00  0.00    -0.191 NA
ATOM     37  C   UNL     1      33.569 -11.715 -24.147  0.00  0.00    +0.100 C 
ENDBRANCH  35  37
ENDBRANCH  28  30
ENDBRANCH  27  28
ENDBRANCH   9  27
TORSDOF 13
ENDMDL
MODEL 7
REMARK VINA RESULT:     -10.8      1.914      3.468
REMARK  Name = 25058128
REMARK  13 active torsions:
REMARK  status: ('A' for Active; 'I' for Inactive)
REMARK    1  A    between atoms: C_1  and  S_11
REMARK    2  A    between atoms: C_9  and  O_27
REMARK    3  A    between atoms: S_11  and  N_14
REMARK    4  A    between atoms: N_14  and  C_16
REMARK    5  A    between atoms: C_16  and  C_18
REMARK    6  A    between atoms: C_16  and  C_21
REMARK    7  A    between atoms: C_18  and  O_19
REMARK    8  A    between atoms: C_21  and  C_22
REMARK    9  A    between atoms: C_22  and  C_24
REMARK   10  A    between atoms: C_24  and  O_25
REMARK   11  A    between atoms: O_27  and  C_28
REMARK   12  A    between atoms: C_28  and  C_30
REMARK   13  A    between atoms: C_35  and  C_37
REMARK                            x       y       z     vdW  Elec       q    Type
REMARK                         _______ _______ _______ _____ _____    ______ ____
ROOT
ATOM      1  C   UNL     1      35.947 -23.558 -14.162  0.00  0.00    +0.122 C 
ATOM      2  C   UNL     1      34.845 -23.128 -16.287  0.00  0.00    +0.002 C 
ATOM      3  C   UNL     1      34.827 -23.657 -14.986  0.00  0.00    +0.020 C 
ATOM      4  C   UNL     1      36.019 -22.491 -16.758  0.00  0.00    +0.003 C 
ATOM      5  C   UNL     1      37.100 -22.931 -14.624  0.00  0.00    +0.020 C 
ATOM      6  C   UNL     1      37.137 -22.400 -15.914  0.00  0.00    +0.001 C 
ATOM      7  C   UNL     1      36.038 -21.962 -18.059  0.00  0.00    +0.037 C 
ATOM      8  C   UNL     1      33.727 -23.219 -17.132  0.00  0.00    +0.003 C 
ATOM      9  C   UNL     1      34.917 -22.061 -18.884  0.00  0.00    +0.139 C 
ATOM     10  C   UNL     1      33.764 -22.688 -18.422  0.00  0.00    +0.037 C 
ENDROOT
BRANCH   1  11
ATOM     11  S   UNL     1      35.902 -24.230 -12.526  0.00  0.00    +0.061 S 
ATOM     12  O   UNL     1      37.129 -23.852 -11.854  0.00  0.00    -0.153 OA
ATOM     13  O   UNL     1      34.617 -23.871 -11.958  0.00  0.00    -0.153 OA
BRANCH  11  14
ATOM     14  N   UNL     1      35.919 -25.901 -12.835  0.00  0.00    -0.170 NA
ATOM     15  H   UNL     1      35.086 -26.107 -13.388  0.00  0.00    +0.149 HD
BRANCH  14  16
ATOM     16  C   UNL     1      37.065 -26.510 -13.546  0.00  0.00    +0.174 C 
BRANCH  16  18
ATOM     17  O   UNL     1      37.370 -27.165 -15.868  0.00  0.00    -0.249 OA
ATOM     18  C   UNL     1      36.627 -26.828 -14.955  0.00  0.00    +0.330 C 
BRANCH  18  19
ATOM     19  O   UNL     1      35.282 -26.717 -15.111  0.00  0.00    -0.479 OA
ATOM     20  H   UNL     1      34.800 -26.099 -14.598  0.00  0.00    +0.295 HD
ENDBRANCH  18  19
ENDBRANCH  16  18
BRANCH  16  21
ATOM     21  C   UNL     1      38.298 -25.604 -13.450  0.00  0.00    +0.040 C 
BRANCH  21  22
ATOM     22  C   UNL     1      39.630 -26.217 -13.892  0.00  0.00    +0.111 C 
BRANCH  22  24
ATOM     23  O   UNL     1      40.970 -24.466 -14.880  0.00  0.00    -0.250 OA
ATOM     24  C   UNL     1      40.295 -25.478 -15.026  0.00  0.00    +0.314 C 
BRANCH  24  25
ATOM     25  O   UNL     1      40.054 -26.042 -16.236  0.00  0.00    -0.480 OA
ATOM     26  H   UNL     1      40.267 -25.575 -17.020  0.00  0.00    +0.295 HD
ENDBRANCH  24  25
ENDBRANCH  22  24
ENDBRANCH  21  22
ENDBRANCH  16  21
ENDBRANCH  14  16
ENDBRANCH  11  14
ENDBRANCH   1  11
BRANCH   9  27
ATOM     27  O   UNL     1      34.951 -21.542 -20.142  0.00  0.00    -0.471 OA
BRANCH  27  28
ATOM     28  C   UNL     1      35.990 -20.609 -20.433  0.00  0.00    +0.234 C 
BRANCH  28  30
ATOM     29  F   UNL     1      37.573 -18.485 -21.429  0.00  0.00    -0.204 F 
ATOM     30  C   UNL     1      35.549 -19.717 -21.555  0.00  0.00    +0.049 C 
ATOM     31  C   UNL     1      36.377 -18.686 -21.998  0.00  0.00    +0.140 C 
ATOM     32  C   UNL     1      34.306 -19.920 -22.155  0.00  0.00    +0.002 C 
ATOM     33  C   UNL     1      35.962 -17.858 -23.042  0.00  0.00    +0.040 C 
ATOM     34  C   UNL     1      33.891 -19.091 -23.198  0.00  0.00    +0.010 C 
ATOM     35  C   UNL     1      34.719 -18.061 -23.642  0.00  0.00    +0.071 C 
BRANCH  35  37
ATOM     36  N   UNL     1      33.952 -16.527 -25.581  0.00  0.00    -0.191 NA
ATOM     37  C   UNL     1      34.296 -17.214 -24.712  0.00  0.00    +0.100 C 
ENDBRANCH  35  37
ENDBRANCH  28  30
ENDBRANCH  27  28
ENDBRANCH   9  27
TORSDOF 13
ENDMDL
MODEL 8
REMARK VINA RESULT:     -10.7      1.943      3.318
REMARK  Name = 25058128
REMARK  13 active torsions:
REMARK  status: ('A' for Active; 'I' for Inactive)
REMARK    1  A    between atoms: C_1  and  S_11
REMARK    2  A    between atoms: C_9  and  O_27
REMARK    3  A    between atoms: S_11  and  N_14
REMARK    4  A    between atoms: N_14  and  C_16
REMARK    5  A    between atoms: C_16  and  C_18
REMARK    6  A    between atoms: C_16  and  C_21
REMARK    7  A    between atoms: C_18  and  O_19
REMARK    8  A    between atoms: C_21  and  C_22
REMARK    9  A    between atoms: C_22  and  C_24
REMARK   10  A    between atoms: C_24  and  O_25
REMARK   11  A    between atoms: O_27  and  C_28
REMARK   12  A    between atoms: C_28  and  C_30
REMARK   13  A    between atoms: C_35  and  C_37
REMARK                            x       y       z     vdW  Elec       q    Type
REMARK                         _______ _______ _______ _____ _____    ______ ____
ROOT
ATOM      1  C   UNL     1      35.897 -22.731 -16.933  0.00  0.00    +0.122 C 
ATOM      2  C   UNL     1      34.428 -21.957 -18.711  0.00  0.00    +0.002 C 
ATOM      3  C   UNL     1      34.633 -22.671 -17.519  0.00  0.00    +0.020 C 
ATOM      4  C   UNL     1      35.523 -21.294 -19.317  0.00  0.00    +0.003 C 
ATOM      5  C   UNL     1      36.973 -22.079 -17.528  0.00  0.00    +0.020 C 
ATOM      6  C   UNL     1      36.789 -21.365 -18.712  0.00  0.00    +0.001 C 
ATOM      7  C   UNL     1      35.320 -20.579 -20.508  0.00  0.00    +0.037 C 
ATOM      8  C   UNL     1      33.163 -21.886 -19.316  0.00  0.00    +0.003 C 
ATOM      9  C   UNL     1      34.055 -20.519 -21.095  0.00  0.00    +0.139 C 
ATOM     10  C   UNL     1      32.979 -21.171 -20.501  0.00  0.00    +0.037 C 
ENDROOT
BRANCH   1  11
ATOM     11  S   UNL     1      36.132 -23.636 -15.432  0.00  0.00    +0.061 S 
ATOM     12  O   UNL     1      36.241 -25.041 -15.769  0.00  0.00    -0.153 OA
ATOM     13  O   UNL     1      37.198 -22.974 -14.704  0.00  0.00    -0.153 OA
BRANCH  11  14
ATOM     14  N   UNL     1      34.662 -23.361 -14.625  0.00  0.00    -0.170 NA
ATOM     15  H   UNL     1      33.986 -23.073 -15.333  0.00  0.00    +0.149 HD
BRANCH  14  16
ATOM     16  C   UNL     1      34.030 -24.450 -13.849  0.00  0.00    +0.174 C 
BRANCH  16  18
ATOM     17  O   UNL     1      34.557 -23.697 -11.597  0.00  0.00    -0.249 OA
ATOM     18  C   UNL     1      34.702 -24.513 -12.498  0.00  0.00    +0.330 C 
BRANCH  18  19
ATOM     19  O   UNL     1      35.493 -25.611 -12.370  0.00  0.00    -0.479 OA
ATOM     20  H   UNL     1      35.280 -26.271 -11.741  0.00  0.00    +0.295 HD
ENDBRANCH  18  19
ENDBRANCH  16  18
BRANCH  16  21
ATOM     21  C   UNL     1      32.509 -24.260 -13.797  0.00  0.00    +0.040 C 
BRANCH  21  22
ATOM     22  C   UNL     1      31.941 -23.093 -14.609  0.00  0.00    +0.111 C 
BRANCH  22  24
ATOM     23  O   UNL     1      31.208 -22.926 -16.905  0.00  0.00    -0.250 OA
ATOM     24  C   UNL     1      31.172 -23.520 -15.834  0.00  0.00    +0.314 C 
BRANCH  24  25
ATOM     25  O   UNL     1      30.417 -24.627 -15.623  0.00  0.00    -0.480 OA
ATOM     26  H   UNL     1      30.052 -24.789 -14.775  0.00  0.00    +0.295 HD
ENDBRANCH  24  25
ENDBRANCH  22  24
ENDBRANCH  21  22
ENDBRANCH  16  21
ENDBRANCH  14  16
ENDBRANCH  11  14
ENDBRANCH   1  11
BRANCH   9  27
ATOM     27  O   UNL     1      33.873 -19.822 -22.250  0.00  0.00    -0.471 OA
BRANCH  27  28
ATOM     28  C   UNL     1      35.039 -19.294 -22.880  0.00  0.00    +0.234 C 
BRANCH  28  30
ATOM     29  F   UNL     1      35.168 -17.179 -21.003  0.00  0.00    -0.204 F 
ATOM     30  C   UNL     1      34.792 -17.860 -23.245  0.00  0.00    +0.049 C 
ATOM     31  C   UNL     1      34.870 -16.865 -22.271  0.00  0.00    +0.140 C 
ATOM     32  C   UNL     1      34.483 -17.523 -24.563  0.00  0.00    +0.002 C 
ATOM     33  C   UNL     1      34.639 -15.532 -22.615  0.00  0.00    +0.040 C 
ATOM     34  C   UNL     1      34.251 -16.190 -24.907  0.00  0.00    +0.010 C 
ATOM     35  C   UNL     1      34.329 -15.195 -23.933  0.00  0.00    +0.071 C 
BRANCH  35  37
ATOM     36  N   UNL     1      33.905 -12.722 -24.571  0.00  0.00    -0.191 NA
ATOM     37  C   UNL     1      34.095 -13.830 -24.285  0.00  0.00    +0.100 C 
ENDBRANCH  35  37
ENDBRANCH  28  30
ENDBRANCH  27  28
ENDBRANCH   9  27
TORSDOF 13
ENDMDL
MODEL 9
REMARK VINA RESULT:     -10.6      3.475     11.091
REMARK  Name = 25058128
REMARK  13 active torsions:
REMARK  status: ('A' for Active; 'I' for Inactive)
REMARK    1  A    between atoms: C_1  and  S_11
REMARK    2  A    between atoms: C_9  and  O_27
REMARK    3  A    between atoms: S_11  and  N_14
REMARK    4  A    between atoms: N_14  and  C_16
REMARK    5  A    between atoms: C_16  and  C_18
REMARK    6  A    between atoms: C_16  and  C_21
REMARK    7  A    between atoms: C_18  and  O_19
REMARK    8  A    between atoms: C_21  and  C_22
REMARK    9  A    between atoms: C_22  and  C_24
REMARK   10  A    between atoms: C_24  and  O_25
REMARK   11  A    between atoms: O_27  and  C_28
REMARK   12  A    between atoms: C_28  and  C_30
REMARK   13  A    between atoms: C_35  and  C_37
REMARK                            x       y       z     vdW  Elec       q    Type
REMARK                         _______ _______ _______ _____ _____    ______ ____
ROOT
ATOM      1  C   UNL     1      34.898 -19.562 -21.880  0.00  0.00    +0.122 C 
ATOM      2  C   UNL     1      33.868 -21.025 -20.232  0.00  0.00    +0.002 C 
ATOM      3  C   UNL     1      33.762 -20.154 -21.330  0.00  0.00    +0.020 C 
ATOM      4  C   UNL     1      35.146 -21.297 -19.687  0.00  0.00    +0.003 C 
ATOM      5  C   UNL     1      36.154 -19.831 -21.345  0.00  0.00    +0.020 C 
ATOM      6  C   UNL     1      36.279 -20.693 -20.255  0.00  0.00    +0.001 C 
ATOM      7  C   UNL     1      35.253 -22.168 -18.590  0.00  0.00    +0.037 C 
ATOM      8  C   UNL     1      32.735 -21.630 -19.663  0.00  0.00    +0.003 C 
ATOM      9  C   UNL     1      34.116 -22.760 -18.038  0.00  0.00    +0.139 C 
ATOM     10  C   UNL     1      32.860 -22.492 -18.573  0.00  0.00    +0.037 C 
ENDROOT
BRANCH   1  11
ATOM     11  S   UNL     1      34.742 -18.470 -23.262  0.00  0.00    +0.061 S 
ATOM     12  O   UNL     1      35.984 -18.513 -24.008  0.00  0.00    -0.153 OA
ATOM     13  O   UNL     1      33.487 -18.790 -23.914  0.00  0.00    -0.153 OA
BRANCH  11  14
ATOM     14  N   UNL     1      34.594 -16.959 -22.498  0.00  0.00    -0.170 NA
ATOM     15  H   UNL     1      35.213 -16.977 -21.686  0.00  0.00    +0.149 HD
BRANCH  14  16
ATOM     16  C   UNL     1      34.905 -15.720 -23.243  0.00  0.00    +0.174 C 
BRANCH  16  18
ATOM     17  O   UNL     1      33.046 -15.216 -24.728  0.00  0.00    -0.249 OA
ATOM     18  C   UNL     1      34.133 -15.748 -24.540  0.00  0.00    +0.330 C 
BRANCH  18  19
ATOM     19  O   UNL     1      34.793 -16.427 -25.515  0.00  0.00    -0.479 OA
ATOM     20  H   UNL     1      35.504 -16.021 -25.970  0.00  0.00    +0.295 HD
ENDBRANCH  18  19
ENDBRANCH  16  18
BRANCH  16  21
ATOM     21  C   UNL     1      34.640 -14.487 -22.370  0.00  0.00    +0.040 C 
BRANCH  21  22
ATOM     22  C   UNL     1      33.568 -14.637 -21.287  0.00  0.00    +0.111 C 
BRANCH  22  24
ATOM     23  O   UNL     1      31.689 -13.342 -20.495  0.00  0.00    -0.250 OA
ATOM     24  C   UNL     1      32.426 -13.661 -21.420  0.00  0.00    +0.314 C 
BRANCH  24  25
ATOM     25  O   UNL     1      32.287 -13.181 -22.680  0.00  0.00    -0.480 OA
ATOM     26  H   UNL     1      32.975 -13.303 -23.306  0.00  0.00    +0.295 HD
ENDBRANCH  24  25
ENDBRANCH  22  24
ENDBRANCH  21  22
ENDBRANCH  16  21
ENDBRANCH  14  16
ENDBRANCH  11  14
ENDBRANCH   1  11
BRANCH   9  27
ATOM     27  O   UNL     1      34.236 -23.603 -16.976  0.00  0.00    -0.471 OA
BRANCH  27  28
ATOM     28  C   UNL     1      34.838 -23.077 -15.794  0.00  0.00    +0.234 C 
BRANCH  28  30
ATOM     29  F   UNL     1      37.410 -21.953 -16.163  0.00  0.00    -0.204 F 
ATOM     30  C   UNL     1      36.106 -23.828 -15.514  0.00  0.00    +0.049 C 
ATOM     31  C   UNL     1      37.343 -23.216 -15.718  0.00  0.00    +0.140 C 
ATOM     32  C   UNL     1      36.046 -25.142 -15.049  0.00  0.00    +0.002 C 
ATOM     33  C   UNL     1      38.520 -23.918 -15.457  0.00  0.00    +0.040 C 
ATOM     34  C   UNL     1      37.224 -25.843 -14.789  0.00  0.00    +0.010 C 
ATOM     35  C   UNL     1      38.461 -25.232 -14.993  0.00  0.00    +0.071 C 
BRANCH  35  37
ATOM     36  N   UNL     1      40.645 -26.532 -14.505  0.00  0.00    -0.191 NA
ATOM     37  C   UNL     1      39.666 -25.949 -14.724  0.00  0.00    +0.100 C 
ENDBRANCH  35  37
ENDBRANCH  28  30
ENDBRANCH  27  28
ENDBRANCH   9  27
TORSDOF 13
ENDMDL
