MODEL 1
REMARK VINA RESULT:     -12.2      0.000      0.000
REMARK  Name = 10200651
REMARK  5 active torsions:
REMARK  status: ('A' for Active; 'I' for Inactive)
REMARK    1  A    between atoms: C_1  and  C_7
REMARK    2  A    between atoms: C_4  and  C_22
REMARK    3  A    between atoms: C_10  and  C_17
REMARK    4  A    between atoms: N_21  and  C_24
REMARK    5  A    between atoms: C_27  and  C_31
REMARK                            x       y       z     vdW  Elec       q    Type
REMARK                         _______ _______ _______ _____ _____    ______ ____
ROOT
ATOM      1  C   UNL     1      35.039 -18.066 -22.428  0.00  0.00    -0.000 C 
ATOM      2  C   UNL     1      34.952 -16.767 -21.926  0.00  0.00    +0.000 C 
ATOM      3  C   UNL     1      34.747 -18.318 -23.768  0.00  0.00    +0.000 C 
ATOM      4  C   UNL     1      34.288 -15.996 -24.087  0.00  0.00    +0.054 C 
ATOM      5  C   UNL     1      34.572 -15.720 -22.765  0.00  0.00    +0.005 C 
ATOM      6  C   UNL     1      34.367 -17.270 -24.607  0.00  0.00    +0.005 C 
ENDROOT
BRANCH   1   7
ATOM      7  C   UNL     1      35.433 -19.153 -21.557  0.00  0.00    -0.004 C 
ATOM      8  C   UNL     1      36.779 -19.474 -21.367  0.00  0.00    -0.022 C 
ATOM      9  C   UNL     1      34.445 -19.887 -20.900  0.00  0.00    +0.004 C 
ATOM     10  C   UNL     1      34.799 -20.940 -20.056  0.00  0.00    +0.055 C 
ATOM     11  C   UNL     1      37.133 -20.527 -20.524  0.00  0.00    -0.004 C 
ATOM     12  C   UNL     1      36.144 -21.259 -19.868  0.00  0.00    +0.004 C 
ATOM     13  C   UNL     1      37.866 -18.712 -22.053  0.00  0.00    +0.031 C 
BRANCH  10  17
ATOM     14  O   UNL     1      34.194 -22.425 -18.310  0.00  0.00    -0.420 OA
ATOM     15  N   UNL     1      32.498 -21.803 -19.629  0.00  0.00    -0.107 NA
ATOM     16  N   UNL     1      31.999 -22.661 -18.667  0.00  0.00    -0.111 NA
ATOM     17  C   UNL     1      33.777 -21.698 -19.378  0.00  0.00    +0.250 A 
ATOM     18  C   UNL     1      33.023 -22.999 -17.920  0.00  0.00    +0.227 A 
ATOM     19  C   UNL     1      33.078 -23.886 -16.753  0.00  0.00    +0.097 C 
ENDBRANCH  10  17
ENDBRANCH   1   7
BRANCH   4  22
ATOM     20  O   UNL     1      33.354 -15.167 -26.049  0.00  0.00    -0.270 OA
ATOM     21  N   UNL     1      34.133 -13.592 -24.486  0.00  0.00    -0.280 N 
ATOM     22  C   UNL     1      33.883 -14.879 -24.980  0.00  0.00    +0.249 C 
ATOM     23  H   UNL     1      34.569 -13.546 -23.604  0.00  0.00    +0.155 HD
BRANCH  21  24
ATOM     24  C   UNL     1      33.840 -12.368 -25.088  0.00  0.00    +0.051 C 
ATOM     25  C   UNL     1      33.683 -11.225 -24.305  0.00  0.00    +0.025 C 
ATOM     26  C   UNL     1      33.703 -12.288 -26.474  0.00  0.00    +0.015 C 
ATOM     27  C   UNL     1      33.389 -10.001 -24.907  0.00  0.00    +0.070 C 
ATOM     28  C   UNL     1      33.410 -11.065 -27.077  0.00  0.00    +0.002 C 
ATOM     29  C   UNL     1      33.252  -9.922 -26.293  0.00  0.00    +0.010 C 
BRANCH  27  31
ATOM     30  N   UNL     1      33.097  -7.878 -23.453  0.00  0.00    -0.191 NA
ATOM     31  C   UNL     1      33.228  -8.830 -24.105  0.00  0.00    +0.100 C 
ENDBRANCH  27  31
ENDBRANCH  21  24
ENDBRANCH   4  22
TORSDOF 5
ENDMDL
MODEL 2
REMARK VINA RESULT:     -11.7      2.167     10.635
REMARK  Name = 10200651
REMARK  5 active torsions:
REMARK  status: ('A' for Active; 'I' for Inactive)
REMARK    1  A    between atoms: C_1  and  C_7
REMARK    2  A    between atoms: C_4  and  C_22
REMARK    3  A    between atoms: C_10  and  C_17
REMARK    4  A    between atoms: N_21  and  C_24
REMARK    5  A    between atoms: C_27  and  C_31
REMARK                            x       y       z     vdW  Elec       q    Type
REMARK                         _______ _______ _______ _____ _____    ______ ____
ROOT
ATOM      1  C   UNL     1      33.853 -13.350 -24.654  0.00  0.00    -0.000 C 
ATOM      2  C   UNL     1      34.357 -13.627 -23.383  0.00  0.00    +0.000 C 
ATOM      3  C   UNL     1      33.592 -14.391 -25.544  0.00  0.00    +0.000 C 
ATOM      4  C   UNL     1      34.333 -15.958 -23.902  0.00  0.00    +0.054 C 
ATOM      5  C   UNL     1      34.600 -14.947 -23.002  0.00  0.00    +0.005 C 
ATOM      6  C   UNL     1      33.835 -15.710 -25.163  0.00  0.00    +0.005 C 
ENDROOT
BRANCH   1   7
ATOM      7  C   UNL     1      33.601 -11.980 -25.049  0.00  0.00    -0.004 C 
ATOM      8  C   UNL     1      33.850 -11.547 -26.352  0.00  0.00    -0.022 C 
ATOM      9  C   UNL     1      33.101 -11.083 -24.103  0.00  0.00    +0.004 C 
ATOM     10  C   UNL     1      32.852  -9.757 -24.458  0.00  0.00    +0.055 C 
ATOM     11  C   UNL     1      33.600 -10.222 -26.708  0.00  0.00    -0.004 C 
ATOM     12  C   UNL     1      33.101  -9.327 -25.762  0.00  0.00    +0.004 C 
ATOM     13  C   UNL     1      34.385 -12.476 -27.393  0.00  0.00    +0.031 C 
BRANCH  10  17
ATOM     14  O   UNL     1      33.198  -8.481 -22.491  0.00  0.00    -0.420 OA
ATOM     15  N   UNL     1      31.160  -8.271 -23.387  0.00  0.00    -0.107 NA
ATOM     16  N   UNL     1      31.213  -7.477 -22.257  0.00  0.00    -0.111 NA
ATOM     17  C   UNL     1      32.336  -8.832 -23.480  0.00  0.00    +0.250 A 
ATOM     18  C   UNL     1      32.420  -7.632 -21.765  0.00  0.00    +0.227 A 
ATOM     19  C   UNL     1      33.030  -7.031 -20.574  0.00  0.00    +0.097 C 
ENDBRANCH  10  17
ENDBRANCH   1   7
BRANCH   4  22
ATOM     20  O   UNL     1      34.533 -18.229 -24.364  0.00  0.00    -0.270 OA
ATOM     21  N   UNL     1      34.905 -17.552 -22.143  0.00  0.00    -0.280 N 
ATOM     22  C   UNL     1      34.592 -17.364 -23.496  0.00  0.00    +0.249 C 
ATOM     23  H   UNL     1      34.906 -16.741 -21.584  0.00  0.00    +0.155 HD
BRANCH  21  24
ATOM     24  C   UNL     1      35.216 -18.746 -21.490  0.00  0.00    +0.051 C 
ATOM     25  C   UNL     1      34.195 -19.588 -21.052  0.00  0.00    +0.025 C 
ATOM     26  C   UNL     1      36.549 -19.096 -21.276  0.00  0.00    +0.015 C 
ATOM     27  C   UNL     1      34.506 -20.781 -20.399  0.00  0.00    +0.070 C 
ATOM     28  C   UNL     1      36.862 -20.288 -20.624  0.00  0.00    +0.002 C 
ATOM     29  C   UNL     1      35.840 -21.130 -20.185  0.00  0.00    +0.010 C 
BRANCH  27  31
ATOM     30  N   UNL     1      32.610 -22.346 -19.584  0.00  0.00    -0.191 NA
ATOM     31  C   UNL     1      33.461 -21.645 -19.950  0.00  0.00    +0.100 C 
ENDBRANCH  27  31
ENDBRANCH  21  24
ENDBRANCH   4  22
TORSDOF 5
ENDMDL
MODEL 3
REMARK VINA RESULT:     -11.4      2.702     11.274
REMARK  Name = 10200651
REMARK  5 active torsions:
REMARK  status: ('A' for Active; 'I' for Inactive)
REMARK    1  A    between atoms: C_1  and  C_7
REMARK    2  A    between atoms: C_4  and  C_22
REMARK    3  A    between atoms: C_10  and  C_17
REMARK    4  A    between atoms: N_21  and  C_24
REMARK    5  A    between atoms: C_27  and  C_31
REMARK                            x       y       z     vdW  Elec       q    Type
REMARK                         _______ _______ _______ _____ _____    ______ ____
ROOT
ATOM      1  C   UNL     1      34.492 -19.776 -21.667  0.00  0.00    -0.000 C 
ATOM      2  C   UNL     1      35.662 -20.318 -21.135  0.00  0.00    +0.000 C 
ATOM      3  C   UNL     1      33.250 -20.180 -21.179  0.00  0.00    +0.000 C 
ATOM      4  C   UNL     1      34.349 -21.646 -19.647  0.00  0.00    +0.054 C 
ATOM      5  C   UNL     1      35.590 -21.263 -20.113  0.00  0.00    +0.005 C 
ATOM      6  C   UNL     1      33.178 -21.126 -20.157  0.00  0.00    +0.005 C 
ENDROOT
BRANCH   1   7
ATOM      7  C   UNL     1      34.567 -18.795 -22.728  0.00  0.00    -0.004 C 
ATOM      8  C   UNL     1      34.774 -19.179 -24.055  0.00  0.00    -0.022 C 
ATOM      9  C   UNL     1      34.430 -17.442 -22.411  0.00  0.00    +0.004 C 
ATOM     10  C   UNL     1      34.500 -16.477 -23.416  0.00  0.00    +0.055 C 
ATOM     11  C   UNL     1      34.844 -18.214 -25.059  0.00  0.00    -0.004 C 
ATOM     12  C   UNL     1      34.706 -16.863 -24.741  0.00  0.00    +0.004 C 
ATOM     13  C   UNL     1      34.926 -20.616 -24.434  0.00  0.00    +0.031 C 
BRANCH  10  17
ATOM     14  O   UNL     1      34.171 -14.243 -24.140  0.00  0.00    -0.420 OA
ATOM     15  N   UNL     1      34.384 -14.480 -21.926  0.00  0.00    -0.107 NA
ATOM     16  N   UNL     1      34.201 -13.137 -22.196  0.00  0.00    -0.111 NA
ATOM     17  C   UNL     1      34.359 -15.080 -23.087  0.00  0.00    +0.250 A 
ATOM     18  C   UNL     1      34.083 -13.045 -23.500  0.00  0.00    +0.227 A 
ATOM     19  C   UNL     1      33.872 -11.861 -24.340  0.00  0.00    +0.097 C 
ENDBRANCH  10  17
ENDBRANCH   1   7
BRANCH   4  22
ATOM     20  O   UNL     1      33.565 -23.640 -18.741  0.00  0.00    -0.270 OA
ATOM     21  N   UNL     1      35.049 -22.378 -17.425  0.00  0.00    -0.280 N 
ATOM     22  C   UNL     1      34.272 -22.655 -18.558  0.00  0.00    +0.249 C 
ATOM     23  H   UNL     1      35.559 -21.535 -17.448  0.00  0.00    +0.155 HD
BRANCH  21  24
ATOM     24  C   UNL     1      35.192 -23.149 -16.271  0.00  0.00    +0.051 C 
ATOM     25  C   UNL     1      36.464 -23.499 -15.819  0.00  0.00    +0.025 C 
ATOM     26  C   UNL     1      34.063 -23.569 -15.569  0.00  0.00    +0.015 C 
ATOM     27  C   UNL     1      36.607 -24.270 -14.665  0.00  0.00    +0.070 C 
ATOM     28  C   UNL     1      34.204 -24.340 -14.416  0.00  0.00    +0.002 C 
ATOM     29  C   UNL     1      35.477 -24.690 -13.964  0.00  0.00    +0.010 C 
BRANCH  27  31
ATOM     30  N   UNL     1      38.969 -24.921 -13.825  0.00  0.00    -0.191 NA
ATOM     31  C   UNL     1      37.910 -24.629 -14.202  0.00  0.00    +0.100 C 
ENDBRANCH  27  31
ENDBRANCH  21  24
ENDBRANCH   4  22
TORSDOF 5
ENDMDL
MODEL 4
REMARK VINA RESULT:     -11.3      2.627     11.165
REMARK  Name = 10200651
REMARK  5 active torsions:
REMARK  status: ('A' for Active; 'I' for Inactive)
REMARK    1  A    between atoms: C_1  and  C_7
REMARK    2  A    between atoms: C_4  and  C_22
REMARK    3  A    between atoms: C_10  and  C_17
REMARK    4  A    between atoms: N_21  and  C_24
REMARK    5  A    between atoms: C_27  and  C_31
REMARK                            x       y       z     vdW  Elec       q    Type
REMARK                         _______ _______ _______ _____ _____    ______ ____
ROOT
ATOM      1  C   UNL     1      34.755 -19.557 -21.744  0.00  0.00    -0.000 C 
ATOM      2  C   UNL     1      36.001 -19.914 -21.228  0.00  0.00    +0.000 C 
ATOM      3  C   UNL     1      33.593 -20.109 -21.206  0.00  0.00    +0.000 C 
ATOM      4  C   UNL     1      34.920 -21.355 -19.660  0.00  0.00    +0.054 C 
ATOM      5  C   UNL     1      36.085 -20.823 -20.174  0.00  0.00    +0.005 C 
ATOM      6  C   UNL     1      33.676 -21.018 -20.152  0.00  0.00    +0.005 C 
ENDROOT
BRANCH   1   7
ATOM      7  C   UNL     1      34.669 -18.613 -22.838  0.00  0.00    -0.004 C 
ATOM      8  C   UNL     1      34.718 -19.041 -24.166  0.00  0.00    -0.022 C 
ATOM      9  C   UNL     1      34.535 -17.253 -22.551  0.00  0.00    +0.004 C 
ATOM     10  C   UNL     1      34.452 -16.324 -23.588  0.00  0.00    +0.055 C 
ATOM     11  C   UNL     1      34.634 -18.112 -25.203  0.00  0.00    -0.004 C 
ATOM     12  C   UNL     1      34.500 -16.754 -24.914  0.00  0.00    +0.004 C 
ATOM     13  C   UNL     1      34.861 -20.487 -24.514  0.00  0.00    +0.031 C 
BRANCH  10  17
ATOM     14  O   UNL     1      34.175 -14.102 -24.365  0.00  0.00    -0.420 OA
ATOM     15  N   UNL     1      34.304 -14.298 -22.141  0.00  0.00    -0.107 NA
ATOM     16  N   UNL     1      34.146 -12.959 -22.442  0.00  0.00    -0.111 NA
ATOM     17  C   UNL     1      34.314 -14.920 -23.290  0.00  0.00    +0.250 A 
ATOM     18  C   UNL     1      34.077 -12.891 -23.751  0.00  0.00    +0.227 A 
ATOM     19  C   UNL     1      33.910 -11.720 -24.620  0.00  0.00    +0.097 C 
ENDBRANCH  10  17
ENDBRANCH   1   7
BRANCH   4  22
ATOM     20  O   UNL     1      34.246 -23.285 -18.550  0.00  0.00    -0.270 OA
ATOM     21  N   UNL     1      35.989 -22.043 -17.576  0.00  0.00    -0.280 N 
ATOM     22  C   UNL     1      35.009 -22.324 -18.537  0.00  0.00    +0.249 C 
ATOM     23  H   UNL     1      36.515 -21.223 -17.723  0.00  0.00    +0.155 HD
BRANCH  21  24
ATOM     24  C   UNL     1      36.314 -22.782 -16.438  0.00  0.00    +0.051 C 
ATOM     25  C   UNL     1      35.323 -23.119 -15.518  0.00  0.00    +0.025 C 
ATOM     26  C   UNL     1      37.632 -23.185 -16.222  0.00  0.00    +0.015 C 
ATOM     27  C   UNL     1      35.648 -23.858 -14.380  0.00  0.00    +0.070 C 
ATOM     28  C   UNL     1      37.958 -23.924 -15.085  0.00  0.00    +0.002 C 
ATOM     29  C   UNL     1      36.966 -24.260 -14.164  0.00  0.00    +0.010 C 
BRANCH  27  31
ATOM     30  N   UNL     1      33.806 -24.483 -12.669  0.00  0.00    -0.191 NA
ATOM     31  C   UNL     1      34.632 -24.202 -13.436  0.00  0.00    +0.100 C 
ENDBRANCH  27  31
ENDBRANCH  21  24
ENDBRANCH   4  22
TORSDOF 5
ENDMDL
MODEL 5
REMARK VINA RESULT:     -10.8      3.509      6.669
REMARK  Name = 10200651
REMARK  5 active torsions:
REMARK  status: ('A' for Active; 'I' for Inactive)
REMARK    1  A    between atoms: C_1  and  C_7
REMARK    2  A    between atoms: C_4  and  C_22
REMARK    3  A    between atoms: C_10  and  C_17
REMARK    4  A    between atoms: N_21  and  C_24
REMARK    5  A    between atoms: C_27  and  C_31
REMARK                            x       y       z     vdW  Elec       q    Type
REMARK                         _______ _______ _______ _____ _____    ______ ____
ROOT
ATOM      1  C   UNL     1      35.496 -22.432 -17.484  0.00  0.00    -0.000 C 
ATOM      2  C   UNL     1      36.648 -21.657 -17.615  0.00  0.00    +0.000 C 
ATOM      3  C   UNL     1      34.522 -22.410 -18.481  0.00  0.00    +0.000 C 
ATOM      4  C   UNL     1      35.847 -20.855 -19.717  0.00  0.00    +0.054 C 
ATOM      5  C   UNL     1      36.826 -20.859 -18.745  0.00  0.00    +0.005 C 
ATOM      6  C   UNL     1      34.700 -21.612 -19.611  0.00  0.00    +0.005 C 
ENDROOT
BRANCH   1   7
ATOM      7  C   UNL     1      35.311 -23.260 -16.311  0.00  0.00    -0.004 C 
ATOM      8  C   UNL     1      36.404 -23.753 -15.596  0.00  0.00    -0.022 C 
ATOM      9  C   UNL     1      34.014 -23.566 -15.894  0.00  0.00    +0.004 C 
ATOM     10  C   UNL     1      33.810 -24.362 -14.767  0.00  0.00    +0.055 C 
ATOM     11  C   UNL     1      36.201 -24.550 -14.470  0.00  0.00    -0.004 C 
ATOM     12  C   UNL     1      34.905 -24.854 -14.054  0.00  0.00    +0.004 C 
ATOM     13  C   UNL     1      37.808 -23.449 -16.011  0.00  0.00    +0.031 C 
BRANCH  10  17
ATOM     14  O   UNL     1      31.505 -24.550 -15.284  0.00  0.00    -0.420 OA
ATOM     15  N   UNL     1      32.027 -25.068 -13.172  0.00  0.00    -0.107 NA
ATOM     16  N   UNL     1      30.662 -25.221 -13.324  0.00  0.00    -0.111 NA
ATOM     17  C   UNL     1      32.470 -24.677 -14.338  0.00  0.00    +0.250 A 
ATOM     18  C   UNL     1      30.402 -24.907 -14.571  0.00  0.00    +0.227 A 
ATOM     19  C   UNL     1      29.119 -24.890 -15.284  0.00  0.00    +0.097 C 
ENDBRANCH  10  17
ENDBRANCH   1   7
BRANCH   4  22
ATOM     20  O   UNL     1      37.184 -19.811 -21.309  0.00  0.00    -0.270 OA
ATOM     21  N   UNL     1      34.859 -19.523 -21.509  0.00  0.00    -0.280 N 
ATOM     22  C   UNL     1      36.037 -20.004 -20.921  0.00  0.00    +0.249 C 
ATOM     23  H   UNL     1      34.019 -19.777 -21.062  0.00  0.00    +0.155 HD
BRANCH  21  24
ATOM     24  C   UNL     1      34.730 -18.730 -22.650  0.00  0.00    +0.051 C 
ATOM     25  C   UNL     1      34.737 -17.340 -22.538  0.00  0.00    +0.025 C 
ATOM     26  C   UNL     1      34.594 -19.328 -23.902  0.00  0.00    +0.015 C 
ATOM     27  C   UNL     1      34.607 -16.547 -23.679  0.00  0.00    +0.070 C 
ATOM     28  C   UNL     1      34.464 -18.537 -25.043  0.00  0.00    +0.002 C 
ATOM     29  C   UNL     1      34.470 -17.147 -24.931  0.00  0.00    +0.010 C 
BRANCH  27  31
ATOM     30  N   UNL     1      34.619 -13.965 -23.473  0.00  0.00    -0.191 NA
ATOM     31  C   UNL     1      34.614 -15.124 -23.565  0.00  0.00    +0.100 C 
ENDBRANCH  27  31
ENDBRANCH  21  24
ENDBRANCH   4  22
TORSDOF 5
ENDMDL
MODEL 6
REMARK VINA RESULT:     -10.7      3.694      7.196
REMARK  Name = 10200651
REMARK  5 active torsions:
REMARK  status: ('A' for Active; 'I' for Inactive)
REMARK    1  A    between atoms: C_1  and  C_7
REMARK    2  A    between atoms: C_4  and  C_22
REMARK    3  A    between atoms: C_10  and  C_17
REMARK    4  A    between atoms: N_21  and  C_24
REMARK    5  A    between atoms: C_27  and  C_31
REMARK                            x       y       z     vdW  Elec       q    Type
REMARK                         _______ _______ _______ _____ _____    ______ ____
ROOT
ATOM      1  C   UNL     1      34.944 -22.587 -17.635  0.00  0.00    -0.000 C 
ATOM      2  C   UNL     1      36.188 -21.971 -17.771  0.00  0.00    +0.000 C 
ATOM      3  C   UNL     1      33.963 -22.402 -18.608  0.00  0.00    +0.000 C 
ATOM      4  C   UNL     1      35.462 -21.002 -19.830  0.00  0.00    +0.054 C 
ATOM      5  C   UNL     1      36.450 -21.169 -18.882  0.00  0.00    +0.005 C 
ATOM      6  C   UNL     1      34.225 -21.600 -19.718  0.00  0.00    +0.005 C 
ENDROOT
BRANCH   1   7
ATOM      7  C   UNL     1      34.672 -23.420 -16.483  0.00  0.00    -0.004 C 
ATOM      8  C   UNL     1      33.363 -23.691 -16.081  0.00  0.00    -0.022 C 
ATOM      9  C   UNL     1      35.743 -23.957 -15.766  0.00  0.00    +0.004 C 
ATOM     10  C   UNL     1      35.507 -24.761 -14.651  0.00  0.00    +0.055 C 
ATOM     11  C   UNL     1      33.126 -24.495 -14.966  0.00  0.00    -0.004 C 
ATOM     12  C   UNL     1      34.198 -25.031 -14.252  0.00  0.00    +0.004 C 
ATOM     13  C   UNL     1      32.190 -23.135 -16.821  0.00  0.00    +0.031 C 
BRANCH  10  17
ATOM     14  O   UNL     1      37.822 -25.259 -14.532  0.00  0.00    -0.420 OA
ATOM     15  N   UNL     1      36.647 -25.868 -12.729  0.00  0.00    -0.107 NA
ATOM     16  N   UNL     1      37.967 -26.220 -12.517  0.00  0.00    -0.111 NA
ATOM     17  C   UNL     1      36.615 -25.314 -13.912  0.00  0.00    +0.250 A 
ATOM     18  C   UNL     1      38.615 -25.847 -13.596  0.00  0.00    +0.227 A 
ATOM     19  C   UNL     1      40.041 -25.971 -13.921  0.00  0.00    +0.097 C 
ENDBRANCH  10  17
ENDBRANCH   1   7
BRANCH   4  22
ATOM     20  O   UNL     1      36.904 -20.065 -21.396  0.00  0.00    -0.270 OA
ATOM     21  N   UNL     1      34.623 -19.529 -21.586  0.00  0.00    -0.280 N 
ATOM     22  C   UNL     1      35.742 -20.146 -21.013  0.00  0.00    +0.249 C 
ATOM     23  H   UNL     1      33.760 -19.704 -21.145  0.00  0.00    +0.155 HD
BRANCH  21  24
ATOM     24  C   UNL     1      34.579 -18.699 -22.707  0.00  0.00    +0.051 C 
ATOM     25  C   UNL     1      34.613 -17.314 -22.552  0.00  0.00    +0.025 C 
ATOM     26  C   UNL     1      34.502 -19.255 -23.984  0.00  0.00    +0.015 C 
ATOM     27  C   UNL     1      34.569 -16.484 -23.673  0.00  0.00    +0.070 C 
ATOM     28  C   UNL     1      34.458 -18.427 -25.105  0.00  0.00    +0.002 C 
ATOM     29  C   UNL     1      34.491 -17.041 -24.949  0.00  0.00    +0.010 C 
BRANCH  27  31
ATOM     30  N   UNL     1      34.630 -13.910 -23.384  0.00  0.00    -0.191 NA
ATOM     31  C   UNL     1      34.603 -15.065 -23.513  0.00  0.00    +0.100 C 
ENDBRANCH  27  31
ENDBRANCH  21  24
ENDBRANCH   4  22
TORSDOF 5
ENDMDL
MODEL 7
REMARK VINA RESULT:     -10.3      2.876     10.841
REMARK  Name = 10200651
REMARK  5 active torsions:
REMARK  status: ('A' for Active; 'I' for Inactive)
REMARK    1  A    between atoms: C_1  and  C_7
REMARK    2  A    between atoms: C_4  and  C_22
REMARK    3  A    between atoms: C_10  and  C_17
REMARK    4  A    between atoms: N_21  and  C_24
REMARK    5  A    between atoms: C_27  and  C_31
REMARK                            x       y       z     vdW  Elec       q    Type
REMARK                         _______ _______ _______ _____ _____    ______ ____
ROOT
ATOM      1  C   UNL     1      34.554 -20.419 -20.576  0.00  0.00    -0.000 C 
ATOM      2  C   UNL     1      35.229 -21.345 -19.779  0.00  0.00    +0.000 C 
ATOM      3  C   UNL     1      33.162 -20.345 -20.532  0.00  0.00    +0.000 C 
ATOM      4  C   UNL     1      33.136 -22.101 -18.914  0.00  0.00    +0.054 C 
ATOM      5  C   UNL     1      34.512 -22.196 -18.939  0.00  0.00    +0.005 C 
ATOM      6  C   UNL     1      32.445 -21.196 -19.691  0.00  0.00    +0.005 C 
ENDROOT
BRANCH   1   7
ATOM      7  C   UNL     1      35.298 -19.537 -21.448  0.00  0.00    -0.004 C 
ATOM      8  C   UNL     1      36.691 -19.461 -21.381  0.00  0.00    -0.022 C 
ATOM      9  C   UNL     1      34.604 -18.750 -22.370  0.00  0.00    +0.004 C 
ATOM     10  C   UNL     1      35.299 -17.890 -23.220  0.00  0.00    +0.055 C 
ATOM     11  C   UNL     1      37.386 -18.601 -22.231  0.00  0.00    -0.004 C 
ATOM     12  C   UNL     1      36.691 -17.817 -23.151  0.00  0.00    +0.004 C 
ATOM     13  C   UNL     1      37.470 -20.286 -20.408  0.00  0.00    +0.031 C 
BRANCH  10  17
ATOM     14  O   UNL     1      34.462 -15.764 -23.851  0.00  0.00    -0.420 OA
ATOM     15  N   UNL     1      34.016 -17.406 -25.303  0.00  0.00    -0.107 NA
ATOM     16  N   UNL     1      33.471 -16.237 -25.800  0.00  0.00    -0.111 NA
ATOM     17  C   UNL     1      34.581 -17.079 -24.171  0.00  0.00    +0.250 A 
ATOM     18  C   UNL     1      33.754 -15.306 -24.919  0.00  0.00    +0.227 A 
ATOM     19  C   UNL     1      33.423 -13.876 -24.929  0.00  0.00    +0.097 C 
ENDBRANCH  10  17
ENDBRANCH   1   7
BRANCH   4  22
ATOM     20  O   UNL     1      32.894 -24.072 -17.702  0.00  0.00    -0.270 OA
ATOM     21  N   UNL     1      31.119 -22.533 -17.608  0.00  0.00    -0.280 N 
ATOM     22  C   UNL     1      32.371 -23.009 -18.019  0.00  0.00    +0.249 C 
ATOM     23  H   UNL     1      30.854 -21.653 -17.962  0.00  0.00    +0.155 HD
BRANCH  21  24
ATOM     24  C   UNL     1      30.202 -23.152 -16.756  0.00  0.00    +0.051 C 
ATOM     25  C   UNL     1      28.903 -22.655 -16.651  0.00  0.00    +0.025 C 
ATOM     26  C   UNL     1      30.585 -24.266 -16.010  0.00  0.00    +0.015 C 
ATOM     27  C   UNL     1      27.987 -23.273 -15.800  0.00  0.00    +0.070 C 
ATOM     28  C   UNL     1      29.670 -24.884 -15.159  0.00  0.00    +0.002 C 
ATOM     29  C   UNL     1      28.371 -24.388 -15.054  0.00  0.00    +0.010 C 
BRANCH  27  31
ATOM     30  N   UNL     1      25.573 -22.353 -15.604  0.00  0.00    -0.191 NA
ATOM     31  C   UNL     1      26.656 -22.766 -15.692  0.00  0.00    +0.100 C 
ENDBRANCH  27  31
ENDBRANCH  21  24
ENDBRANCH   4  22
TORSDOF 5
ENDMDL
MODEL 8
REMARK VINA RESULT:     -10.1      3.489     12.124
REMARK  Name = 10200651
REMARK  5 active torsions:
REMARK  status: ('A' for Active; 'I' for Inactive)
REMARK    1  A    between atoms: C_1  and  C_7
REMARK    2  A    between atoms: C_4  and  C_22
REMARK    3  A    between atoms: C_10  and  C_17
REMARK    4  A    between atoms: N_21  and  C_24
REMARK    5  A    between atoms: C_27  and  C_31
REMARK                            x       y       z     vdW  Elec       q    Type
REMARK                         _______ _______ _______ _____ _____    ______ ____
ROOT
ATOM      1  C   UNL     1      33.286 -10.030 -23.827  0.00  0.00    -0.000 C 
ATOM      2  C   UNL     1      34.082 -10.487 -24.878  0.00  0.00    +0.000 C 
ATOM      3  C   UNL     1      32.588 -10.940 -23.034  0.00  0.00    +0.000 C 
ATOM      4  C   UNL     1      33.480 -12.733 -24.334  0.00  0.00    +0.054 C 
ATOM      5  C   UNL     1      34.180 -11.854 -25.134  0.00  0.00    +0.005 C 
ATOM      6  C   UNL     1      32.686 -12.307 -23.290  0.00  0.00    +0.005 C 
ENDROOT
BRANCH   1   7
ATOM      7  C   UNL     1      33.184  -8.611 -23.561  0.00  0.00    -0.004 C 
ATOM      8  C   UNL     1      32.641  -8.138 -22.365  0.00  0.00    -0.022 C 
ATOM      9  C   UNL     1      33.638  -7.706 -24.524  0.00  0.00    +0.004 C 
ATOM     10  C   UNL     1      33.549  -6.334 -24.291  0.00  0.00    +0.055 C 
ATOM     11  C   UNL     1      32.552  -6.765 -22.133  0.00  0.00    -0.004 C 
ATOM     12  C   UNL     1      33.007  -5.863 -23.095  0.00  0.00    +0.004 C 
ATOM     13  C   UNL     1      32.144  -9.073 -21.311  0.00  0.00    +0.031 C 
BRANCH  10  17
ATOM     14  O   UNL     1      35.154  -5.760 -25.938  0.00  0.00    -0.420 OA
ATOM     15  N   UNL     1      33.524  -4.253 -25.666  0.00  0.00    -0.107 NA
ATOM     16  N   UNL     1      34.377  -3.786 -26.648  0.00  0.00    -0.111 NA
ATOM     17  C   UNL     1      34.018  -5.401 -25.286  0.00  0.00    +0.250 A 
ATOM     18  C   UNL     1      35.314  -4.696 -26.773  0.00  0.00    +0.227 A 
ATOM     19  C   UNL     1      36.477  -4.725 -27.666  0.00  0.00    +0.097 C 
ENDBRANCH  10  17
ENDBRANCH   1   7
BRANCH   4  22
ATOM     20  O   UNL     1      33.098 -14.611 -25.653  0.00  0.00    -0.270 OA
ATOM     21  N   UNL     1      34.260 -14.938 -23.635  0.00  0.00    -0.280 N 
ATOM     22  C   UNL     1      33.584 -14.190 -24.608  0.00  0.00    +0.249 C 
ATOM     23  H   UNL     1      34.587 -14.435 -22.854  0.00  0.00    +0.155 HD
BRANCH  21  24
ATOM     24  C   UNL     1      34.529 -16.307 -23.637  0.00  0.00    +0.051 C 
ATOM     25  C   UNL     1      35.232 -16.882 -22.578  0.00  0.00    +0.025 C 
ATOM     26  C   UNL     1      34.095 -17.102 -24.698  0.00  0.00    +0.015 C 
ATOM     27  C   UNL     1      35.501 -18.251 -22.580  0.00  0.00    +0.070 C 
ATOM     28  C   UNL     1      34.364 -18.470 -24.701  0.00  0.00    +0.002 C 
ATOM     29  C   UNL     1      35.067 -19.044 -23.642  0.00  0.00    +0.010 C 
BRANCH  27  31
ATOM     30  N   UNL     1      36.806 -19.318 -20.613  0.00  0.00    -0.191 NA
ATOM     31  C   UNL     1      36.221 -18.839 -21.496  0.00  0.00    +0.100 C 
ENDBRANCH  27  31
ENDBRANCH  21  24
ENDBRANCH   4  22
TORSDOF 5
ENDMDL
MODEL 9
REMARK VINA RESULT:      -9.7      2.390     11.257
REMARK  Name = 10200651
REMARK  5 active torsions:
REMARK  status: ('A' for Active; 'I' for Inactive)
REMARK    1  A    between atoms: C_1  and  C_7
REMARK    2  A    between atoms: C_4  and  C_22
REMARK    3  A    between atoms: C_10  and  C_17
REMARK    4  A    between atoms: N_21  and  C_24
REMARK    5  A    between atoms: C_27  and  C_31
REMARK                            x       y       z     vdW  Elec       q    Type
REMARK                         _______ _______ _______ _____ _____    ______ ____
ROOT
ATOM      1  C   UNL     1      34.063 -13.226 -23.938  0.00  0.00    -0.000 C 
ATOM      2  C   UNL     1      34.567 -14.429 -24.431  0.00  0.00    +0.000 C 
ATOM      3  C   UNL     1      33.768 -13.096 -22.581  0.00  0.00    +0.000 C 
ATOM      4  C   UNL     1      34.478 -15.349 -22.229  0.00  0.00    +0.054 C 
ATOM      5  C   UNL     1      34.778 -15.503 -23.567  0.00  0.00    +0.005 C 
ATOM      6  C   UNL     1      33.979 -14.170 -21.717  0.00  0.00    +0.005 C 
ENDROOT
BRANCH   1   7
ATOM      7  C   UNL     1      33.844 -12.111 -24.835  0.00  0.00    -0.004 C 
ATOM      8  C   UNL     1      33.555 -12.317 -26.185  0.00  0.00    -0.022 C 
ATOM      9  C   UNL     1      33.926 -10.811 -24.333  0.00  0.00    +0.004 C 
ATOM     10  C   UNL     1      33.721  -9.720 -25.178  0.00  0.00    +0.055 C 
ATOM     11  C   UNL     1      33.350 -11.227 -27.030  0.00  0.00    -0.004 C 
ATOM     12  C   UNL     1      33.432  -9.929 -26.527  0.00  0.00    +0.004 C 
ATOM     13  C   UNL     1      33.460 -13.693 -26.760  0.00  0.00    +0.031 C 
BRANCH  10  17
ATOM     14  O   UNL     1      34.020  -7.403 -25.579  0.00  0.00    -0.420 OA
ATOM     15  N   UNL     1      33.713  -7.941 -23.430  0.00  0.00    -0.107 NA
ATOM     16  N   UNL     1      33.872  -6.570 -23.508  0.00  0.00    -0.111 NA
ATOM     17  C   UNL     1      33.806  -8.378 -24.658  0.00  0.00    +0.250 A 
ATOM     18  C   UNL     1      34.050  -6.301 -24.780  0.00  0.00    +0.227 A 
ATOM     19  C   UNL     1      34.268  -5.010 -25.442  0.00  0.00    +0.097 C 
ENDBRANCH  10  17
ENDBRANCH   1   7
BRANCH   4  22
ATOM     20  O   UNL     1      34.553 -16.298 -20.107  0.00  0.00    -0.270 OA
ATOM     21  N   UNL     1      35.044 -17.705 -21.926  0.00  0.00    -0.280 N 
ATOM     22  C   UNL     1      34.702 -16.494 -21.308  0.00  0.00    +0.249 C 
ATOM     23  H   UNL     1      35.121 -17.681 -22.908  0.00  0.00    +0.155 HD
BRANCH  21  24
ATOM     24  C   UNL     1      35.286 -18.940 -21.323  0.00  0.00    +0.051 C 
ATOM     25  C   UNL     1      34.218 -19.724 -20.888  0.00  0.00    +0.025 C 
ATOM     26  C   UNL     1      36.595 -19.389 -21.155  0.00  0.00    +0.015 C 
ATOM     27  C   UNL     1      34.460 -20.959 -20.285  0.00  0.00    +0.070 C 
ATOM     28  C   UNL     1      36.838 -20.622 -20.552  0.00  0.00    +0.002 C 
ATOM     29  C   UNL     1      35.770 -21.407 -20.117  0.00  0.00    +0.010 C 
BRANCH  27  31
ATOM     30  N   UNL     1      32.478 -22.418 -19.477  0.00  0.00    -0.191 NA
ATOM     31  C   UNL     1      33.367 -21.764 -19.840  0.00  0.00    +0.100 C 
ENDBRANCH  27  31
ENDBRANCH  21  24
ENDBRANCH   4  22
TORSDOF 5
ENDMDL
