MODEL 1
REMARK VINA RESULT:     -11.6      0.000      0.000
REMARK  Name = 24779724
REMARK  3 active torsions:
REMARK  status: ('A' for Active; 'I' for Inactive)
REMARK    1  A    between atoms: C_5  and  C_12
REMARK    2  A    between atoms: C_7  and  S_16
REMARK    3  A    between atoms: S_16  and  C_19
REMARK                            x       y       z     vdW  Elec       q    Type
REMARK                         _______ _______ _______ _____ _____    ______ ____
ROOT
ATOM      1  N   UNL     1      34.366 -21.688 -19.193  0.00  0.00    -0.186 N 
ATOM      2  N   UNL     1      35.395 -22.037 -18.382  0.00  0.00    -0.162 NA
ATOM      3  N   UNL     1      32.355 -21.512 -20.057  0.00  0.00    -0.126 NA
ATOM      4  N   UNL     1      33.229 -20.771 -20.827  0.00  0.00    -0.120 NA
ATOM      5  C   UNL     1      35.046 -22.808 -17.391  0.00  0.00    +0.104 C 
ATOM      6  C   UNL     1      33.046 -22.058 -19.079  0.00  0.00    +0.187 A 
ATOM      7  C   UNL     1      34.426 -20.889 -20.298  0.00  0.00    +0.217 A 
ATOM      8  C   UNL     1      33.651 -23.304 -17.153  0.00  0.00    +0.024 C 
ATOM      9  C   UNL     1      32.701 -22.906 -18.009  0.00  0.00    +0.042 C 
ENDROOT
BRANCH   5  12
ATOM     10  N   UNL     1      37.135 -24.321 -14.835  0.00  0.00    -0.208 N 
ATOM     11  N   UNL     1      38.047 -23.435 -15.272  0.00  0.00    -0.176 NA
ATOM     12  C   UNL     1      36.084 -23.256 -16.427  0.00  0.00    +0.056 C 
ATOM     13  C   UNL     1      35.943 -24.255 -15.494  0.00  0.00    +0.087 C 
ATOM     14  C   UNL     1      37.399 -22.788 -16.244  0.00  0.00    +0.121 C 
ATOM     15  C   UNL     1      37.471 -25.225 -13.761  0.00  0.00    +0.140 C 
ENDBRANCH   5  12
BRANCH   7  16
ATOM     16  S   UNL     1      35.933 -20.138 -20.891  0.00  0.00    -0.051 S 
BRANCH  16  19
ATOM     17  N   UNL     1      33.871 -16.776 -25.345  0.00  0.00    -0.248 NA
ATOM     18  C   UNL     1      34.763 -16.935 -23.112  0.00  0.00    -0.003 C 
ATOM     19  C   UNL     1      35.318 -19.122 -22.219  0.00  0.00    +0.011 C 
ATOM     20  C   UNL     1      34.342 -17.518 -24.325  0.00  0.00    +0.060 C 
ATOM     21  C   UNL     1      35.248 -17.740 -22.068  0.00  0.00    +0.060 C 
ATOM     22  C   UNL     1      34.905 -19.703 -23.410  0.00  0.00    -0.017 C 
ATOM     23  C   UNL     1      34.423 -18.903 -24.449  0.00  0.00    +0.072 C 
ATOM     24  C   UNL     1      34.681 -15.542 -22.988  0.00  0.00    -0.001 C 
ATOM     25  C   UNL     1      34.197 -14.774 -24.037  0.00  0.00    +0.020 C 
ATOM     26  C   UNL     1      33.809 -15.435 -25.185  0.00  0.00    +0.098 C 
ENDBRANCH  16  19
ENDBRANCH   7  16
TORSDOF 3
ENDMDL
MODEL 2
REMARK VINA RESULT:     -10.8      1.153      1.801
REMARK  Name = 24779724
REMARK  3 active torsions:
REMARK  status: ('A' for Active; 'I' for Inactive)
REMARK    1  A    between atoms: C_5  and  C_12
REMARK    2  A    between atoms: C_7  and  S_16
REMARK    3  A    between atoms: S_16  and  C_19
REMARK                            x       y       z     vdW  Elec       q    Type
REMARK                         _______ _______ _______ _____ _____    ______ ____
ROOT
ATOM      1  N   UNL     1      34.360 -22.350 -18.446  0.00  0.00    -0.186 N 
ATOM      2  N   UNL     1      35.336 -22.748 -17.593  0.00  0.00    -0.162 NA
ATOM      3  N   UNL     1      32.388 -22.004 -19.349  0.00  0.00    -0.126 NA
ATOM      4  N   UNL     1      33.350 -21.452 -20.171  0.00  0.00    -0.120 NA
ATOM      5  C   UNL     1      34.891 -23.376 -16.541  0.00  0.00    +0.104 C 
ATOM      6  C   UNL     1      33.005 -22.540 -18.317  0.00  0.00    +0.187 A 
ATOM      7  C   UNL     1      34.521 -21.669 -19.618  0.00  0.00    +0.217 A 
ATOM      8  C   UNL     1      33.445 -23.671 -16.278  0.00  0.00    +0.024 C 
ATOM      9  C   UNL     1      32.554 -23.237 -17.178  0.00  0.00    +0.042 C 
ENDROOT
BRANCH   5  12
ATOM     10  N   UNL     1      36.907 -25.091 -14.055  0.00  0.00    -0.208 N 
ATOM     11  N   UNL     1      37.638 -23.964 -14.092  0.00  0.00    -0.176 NA
ATOM     12  C   UNL     1      35.864 -23.859 -15.527  0.00  0.00    +0.056 C 
ATOM     13  C   UNL     1      35.833 -25.079 -14.896  0.00  0.00    +0.087 C 
ATOM     14  C   UNL     1      36.996 -23.216 -14.993  0.00  0.00    +0.121 C 
ATOM     15  C   UNL     1      37.294 -26.168 -13.176  0.00  0.00    +0.140 C 
ENDBRANCH   5  12
BRANCH   7  16
ATOM     16  S   UNL     1      36.112 -21.169 -20.257  0.00  0.00    -0.051 S 
BRANCH  16  19
ATOM     17  N   UNL     1      34.619 -16.484 -23.605  0.00  0.00    -0.248 NA
ATOM     18  C   UNL     1      34.624 -18.870 -23.267  0.00  0.00    -0.003 C 
ATOM     19  C   UNL     1      35.660 -19.773 -21.267  0.00  0.00    +0.011 C 
ATOM     20  C   UNL     1      34.947 -17.558 -22.863  0.00  0.00    +0.060 C 
ATOM     21  C   UNL     1      34.982 -19.967 -22.467  0.00  0.00    +0.060 C 
ATOM     22  C   UNL     1      35.982 -18.484 -20.863  0.00  0.00    -0.017 C 
ATOM     23  C   UNL     1      35.626 -17.392 -21.658  0.00  0.00    +0.072 C 
ATOM     24  C   UNL     1      33.941 -19.036 -24.479  0.00  0.00    -0.001 C 
ATOM     25  C   UNL     1      33.602 -17.932 -25.247  0.00  0.00    +0.020 C 
ATOM     26  C   UNL     1      33.961 -16.688 -24.769  0.00  0.00    +0.098 C 
ENDBRANCH  16  19
ENDBRANCH   7  16
TORSDOF 3
ENDMDL
MODEL 3
REMARK VINA RESULT:     -10.7      2.913      4.220
REMARK  Name = 24779724
REMARK  3 active torsions:
REMARK  status: ('A' for Active; 'I' for Inactive)
REMARK    1  A    between atoms: C_5  and  C_12
REMARK    2  A    between atoms: C_7  and  S_16
REMARK    3  A    between atoms: S_16  and  C_19
REMARK                            x       y       z     vdW  Elec       q    Type
REMARK                         _______ _______ _______ _____ _____    ______ ____
ROOT
ATOM      1  N   UNL     1      33.710 -23.915 -16.261  0.00  0.00    -0.186 N 
ATOM      2  N   UNL     1      34.886 -24.591 -16.242  0.00  0.00    -0.162 NA
ATOM      3  N   UNL     1      31.923 -22.815 -15.614  0.00  0.00    -0.126 NA
ATOM      4  N   UNL     1      31.892 -22.932 -16.989  0.00  0.00    -0.120 NA
ATOM      5  C   UNL     1      35.381 -24.751 -15.047  0.00  0.00    +0.104 C 
ATOM      6  C   UNL     1      33.018 -23.407 -15.187  0.00  0.00    +0.187 A 
ATOM      7  C   UNL     1      32.966 -23.593 -17.358  0.00  0.00    +0.217 A 
ATOM      8  C   UNL     1      34.729 -24.268 -13.787  0.00  0.00    +0.024 C 
ATOM      9  C   UNL     1      33.569 -23.610 -13.906  0.00  0.00    +0.042 C 
ENDROOT
BRANCH   5  12
ATOM     10  N   UNL     1      38.789 -25.926 -14.606  0.00  0.00    -0.208 N 
ATOM     11  N   UNL     1      38.227 -27.138 -14.751  0.00  0.00    -0.176 NA
ATOM     12  C   UNL     1      36.671 -25.472 -14.894  0.00  0.00    +0.056 C 
ATOM     13  C   UNL     1      37.899 -24.894 -14.685  0.00  0.00    +0.087 C 
ATOM     14  C   UNL     1      36.934 -26.855 -14.925  0.00  0.00    +0.121 C 
ATOM     15  C   UNL     1      40.212 -25.816 -14.392  0.00  0.00    +0.140 C 
ENDBRANCH   5  12
BRANCH   7  16
ATOM     16  S   UNL     1      33.430 -24.027 -19.027  0.00  0.00    -0.051 S 
BRANCH  16  19
ATOM     17  N   UNL     1      34.642 -18.675 -21.322  0.00  0.00    -0.248 NA
ATOM     18  C   UNL     1      35.426 -20.754 -20.390  0.00  0.00    -0.003 C 
ATOM     19  C   UNL     1      33.804 -22.427 -19.714  0.00  0.00    +0.011 C 
ATOM     20  C   UNL     1      34.390 -19.890 -20.801  0.00  0.00    +0.060 C 
ATOM     21  C   UNL     1      35.126 -22.016 -19.850  0.00  0.00    +0.060 C 
ATOM     22  C   UNL     1      32.778 -21.581 -20.115  0.00  0.00    -0.017 C 
ATOM     23  C   UNL     1      33.076 -20.327 -20.652  0.00  0.00    +0.072 C 
ATOM     24  C   UNL     1      36.748 -20.314 -20.539  0.00  0.00    -0.001 C 
ATOM     25  C   UNL     1      37.012 -19.062 -21.076  0.00  0.00    +0.020 C 
ATOM     26  C   UNL     1      35.932 -18.288 -21.448  0.00  0.00    +0.098 C 
ENDBRANCH  16  19
ENDBRANCH   7  16
TORSDOF 3
ENDMDL
MODEL 4
REMARK VINA RESULT:     -10.6      2.909      4.188
REMARK  Name = 24779724
REMARK  3 active torsions:
REMARK  status: ('A' for Active; 'I' for Inactive)
REMARK    1  A    between atoms: C_5  and  C_12
REMARK    2  A    between atoms: C_7  and  S_16
REMARK    3  A    between atoms: S_16  and  C_19
REMARK                            x       y       z     vdW  Elec       q    Type
REMARK                         _______ _______ _______ _____ _____    ______ ____
ROOT
ATOM      1  N   UNL     1      32.732 -23.551 -16.134  0.00  0.00    -0.186 N 
ATOM      2  N   UNL     1      33.819 -24.056 -15.500  0.00  0.00    -0.162 NA
ATOM      3  N   UNL     1      30.754 -22.675 -16.514  0.00  0.00    -0.126 NA
ATOM      4  N   UNL     1      31.386 -22.872 -17.725  0.00  0.00    -0.120 NA
ATOM      5  C   UNL     1      33.707 -24.079 -14.202  0.00  0.00    +0.104 C 
ATOM      6  C   UNL     1      31.570 -23.086 -15.566  0.00  0.00    +0.187 A 
ATOM      7  C   UNL     1      32.565 -23.397 -17.480  0.00  0.00    +0.217 A 
ATOM      8  C   UNL     1      32.494 -23.623 -13.447  0.00  0.00    +0.024 C 
ATOM      9  C   UNL     1      31.470 -23.140 -14.161  0.00  0.00    +0.042 C 
ENDROOT
BRANCH   5  12
ATOM     10  N   UNL     1      36.767 -25.428 -12.786  0.00  0.00    -0.208 N 
ATOM     11  N   UNL     1      36.109 -25.287 -11.622  0.00  0.00    -0.176 NA
ATOM     12  C   UNL     1      34.835 -24.605 -13.391  0.00  0.00    +0.056 C 
ATOM     13  C   UNL     1      36.047 -25.034 -13.876  0.00  0.00    +0.087 C 
ATOM     14  C   UNL     1      34.931 -24.784 -11.998  0.00  0.00    +0.121 C 
ATOM     15  C   UNL     1      38.110 -25.957 -12.792  0.00  0.00    +0.140 C 
ENDBRANCH   5  12
BRANCH   7  16
ATOM     16  S   UNL     1      33.800 -23.855 -18.687  0.00  0.00    -0.051 S 
BRANCH  16  19
ATOM     17  N   UNL     1      34.505 -18.719 -21.604  0.00  0.00    -0.248 NA
ATOM     18  C   UNL     1      35.480 -20.590 -20.440  0.00  0.00    -0.003 C 
ATOM     19  C   UNL     1      34.022 -22.319 -19.560  0.00  0.00    +0.011 C 
ATOM     20  C   UNL     1      34.368 -19.883 -20.942  0.00  0.00    +0.060 C 
ATOM     21  C   UNL     1      35.300 -21.802 -19.753  0.00  0.00    +0.060 C 
ATOM     22  C   UNL     1      32.922 -21.627 -20.050  0.00  0.00    -0.017 C 
ATOM     23  C   UNL     1      33.101 -20.423 -20.734  0.00  0.00    +0.072 C 
ATOM     24  C   UNL     1      36.755 -20.047 -20.650  0.00  0.00    -0.001 C 
ATOM     25  C   UNL     1      36.900 -18.848 -21.332  0.00  0.00    +0.020 C 
ATOM     26  C   UNL     1      35.752 -18.229 -21.785  0.00  0.00    +0.098 C 
ENDBRANCH  16  19
ENDBRANCH   7  16
TORSDOF 3
ENDMDL
MODEL 5
REMARK VINA RESULT:     -10.4      2.245      9.319
REMARK  Name = 24779724
REMARK  3 active torsions:
REMARK  status: ('A' for Active; 'I' for Inactive)
REMARK    1  A    between atoms: C_5  and  C_12
REMARK    2  A    between atoms: C_7  and  S_16
REMARK    3  A    between atoms: S_16  and  C_19
REMARK                            x       y       z     vdW  Elec       q    Type
REMARK                         _______ _______ _______ _____ _____    ______ ____
ROOT
ATOM      1  N   UNL     1      35.180 -20.337 -20.710  0.00  0.00    -0.186 N 
ATOM      2  N   UNL     1      34.499 -19.719 -21.706  0.00  0.00    -0.162 NA
ATOM      3  N   UNL     1      36.785 -20.936 -19.335  0.00  0.00    -0.126 NA
ATOM      4  N   UNL     1      35.644 -21.643 -19.012  0.00  0.00    -0.120 NA
ATOM      5  C   UNL     1      35.212 -18.858 -22.375  0.00  0.00    +0.104 C 
ATOM      6  C   UNL     1      36.496 -20.155 -20.355  0.00  0.00    +0.187 A 
ATOM      7  C   UNL     1      34.696 -21.274 -19.843  0.00  0.00    +0.217 A 
ATOM      8  C   UNL     1      36.660 -18.570 -22.113  0.00  0.00    +0.024 C 
ATOM      9  C   UNL     1      37.247 -19.231 -21.108  0.00  0.00    +0.042 C 
ENDROOT
BRANCH   5  12
ATOM     10  N   UNL     1      33.904 -16.506 -24.814  0.00  0.00    -0.208 N 
ATOM     11  N   UNL     1      33.406 -17.614 -25.389  0.00  0.00    -0.176 NA
ATOM     12  C   UNL     1      34.577 -18.109 -23.490  0.00  0.00    +0.056 C 
ATOM     13  C   UNL     1      34.613 -16.749 -23.674  0.00  0.00    +0.087 C 
ATOM     14  C   UNL     1      33.821 -18.590 -24.577  0.00  0.00    +0.121 C 
ATOM     15  C   UNL     1      33.663 -15.216 -25.414  0.00  0.00    +0.140 C 
ENDBRANCH   5  12
BRANCH   7  16
ATOM     16  S   UNL     1      33.014 -21.873 -19.876  0.00  0.00    -0.051 S 
BRANCH  16  19
ATOM     17  N   UNL     1      32.579 -24.327 -14.474  0.00  0.00    -0.248 NA
ATOM     18  C   UNL     1      31.523 -23.224 -16.339  0.00  0.00    -0.003 C 
ATOM     19  C   UNL     1      32.872 -22.606 -18.259  0.00  0.00    +0.011 C 
ATOM     20  C   UNL     1      32.655 -23.768 -15.697  0.00  0.00    +0.060 C 
ATOM     21  C   UNL     1      31.639 -22.648 -17.615  0.00  0.00    +0.060 C 
ATOM     22  C   UNL     1      33.991 -23.139 -17.632  0.00  0.00    -0.017 C 
ATOM     23  C   UNL     1      33.876 -23.712 -16.364  0.00  0.00    +0.072 C 
ATOM     24  C   UNL     1      30.294 -23.280 -15.667  0.00  0.00    -0.001 C 
ATOM     25  C   UNL     1      30.212 -23.856 -14.408  0.00  0.00    +0.020 C 
ATOM     26  C   UNL     1      31.374 -24.361 -13.861  0.00  0.00    +0.098 C 
ENDBRANCH  16  19
ENDBRANCH   7  16
TORSDOF 3
ENDMDL
MODEL 6
REMARK VINA RESULT:     -10.4      5.957     11.955
REMARK  Name = 24779724
REMARK  3 active torsions:
REMARK  status: ('A' for Active; 'I' for Inactive)
REMARK    1  A    between atoms: C_5  and  C_12
REMARK    2  A    between atoms: C_7  and  S_16
REMARK    3  A    between atoms: S_16  and  C_19
REMARK                            x       y       z     vdW  Elec       q    Type
REMARK                         _______ _______ _______ _____ _____    ______ ____
ROOT
ATOM      1  N   UNL     1      32.239 -11.561 -22.151  0.00  0.00    -0.186 N 
ATOM      2  N   UNL     1      32.426 -10.351 -22.735  0.00  0.00    -0.162 NA
ATOM      3  N   UNL     1      31.589 -13.131 -20.760  0.00  0.00    -0.126 NA
ATOM      4  N   UNL     1      32.322 -13.718 -21.771  0.00  0.00    -0.120 NA
ATOM      5  C   UNL     1      31.859  -9.366 -22.097  0.00  0.00    +0.104 C 
ATOM      6  C   UNL     1      31.545 -11.836 -20.997  0.00  0.00    +0.187 A 
ATOM      7  C   UNL     1      32.704 -12.766 -22.592  0.00  0.00    +0.217 A 
ATOM      8  C   UNL     1      31.087  -9.515 -20.820  0.00  0.00    +0.024 C 
ATOM      9  C   UNL     1      30.958 -10.750 -20.319  0.00  0.00    +0.042 C 
ENDROOT
BRANCH   5  12
ATOM     10  N   UNL     1      31.574  -6.096 -23.650  0.00  0.00    -0.208 N 
ATOM     11  N   UNL     1      32.817  -5.928 -23.168  0.00  0.00    -0.176 NA
ATOM     12  C   UNL     1      31.986  -7.989 -22.640  0.00  0.00    +0.056 C 
ATOM     13  C   UNL     1      31.032  -7.315 -23.361  0.00  0.00    +0.087 C 
ATOM     14  C   UNL     1      33.063  -7.086 -22.552  0.00  0.00    +0.121 C 
ATOM     15  C   UNL     1      30.943  -5.033 -24.396  0.00  0.00    +0.140 C 
ENDBRANCH   5  12
BRANCH   7  16
ATOM     16  S   UNL     1      33.681 -12.964 -24.074  0.00  0.00    -0.051 S 
BRANCH  16  19
ATOM     17  N   UNL     1      34.642 -18.834 -24.091  0.00  0.00    -0.248 NA
ATOM     18  C   UNL     1      34.781 -16.717 -22.950  0.00  0.00    -0.003 C 
ATOM     19  C   UNL     1      33.972 -14.721 -24.069  0.00  0.00    +0.011 C 
ATOM     20  C   UNL     1      34.432 -17.505 -24.066  0.00  0.00    +0.060 C 
ATOM     21  C   UNL     1      34.549 -15.331 -22.959  0.00  0.00    +0.060 C 
ATOM     22  C   UNL     1      33.627 -15.490 -25.172  0.00  0.00    -0.017 C 
ATOM     23  C   UNL     1      33.858 -16.868 -25.163  0.00  0.00    +0.072 C 
ATOM     24  C   UNL     1      35.360 -17.358 -21.846  0.00  0.00    -0.001 C 
ATOM     25  C   UNL     1      35.577 -18.728 -21.868  0.00  0.00    +0.020 C 
ATOM     26  C   UNL     1      35.202 -19.414 -23.006  0.00  0.00    +0.098 C 
ENDBRANCH  16  19
ENDBRANCH   7  16
TORSDOF 3
ENDMDL
MODEL 7
REMARK VINA RESULT:     -10.1      3.981      7.446
REMARK  Name = 24779724
REMARK  3 active torsions:
REMARK  status: ('A' for Active; 'I' for Inactive)
REMARK    1  A    between atoms: C_5  and  C_12
REMARK    2  A    between atoms: C_7  and  S_16
REMARK    3  A    between atoms: S_16  and  C_19
REMARK                            x       y       z     vdW  Elec       q    Type
REMARK                         _______ _______ _______ _____ _____    ______ ____
ROOT
ATOM      1  N   UNL     1      34.216 -16.212 -23.799  0.00  0.00    -0.186 N 
ATOM      2  N   UNL     1      34.735 -16.869 -22.733  0.00  0.00    -0.162 NA
ATOM      3  N   UNL     1      33.430 -15.774 -25.803  0.00  0.00    -0.126 NA
ATOM      4  N   UNL     1      33.396 -14.614 -25.056  0.00  0.00    -0.120 NA
ATOM      5  C   UNL     1      34.962 -18.133 -22.954  0.00  0.00    +0.104 C 
ATOM      6  C   UNL     1      33.923 -16.727 -25.040  0.00  0.00    +0.187 A 
ATOM      7  C   UNL     1      33.870 -14.893 -23.863  0.00  0.00    +0.217 A 
ATOM      8  C   UNL     1      34.710 -18.825 -24.260  0.00  0.00    +0.024 C 
ATOM      9  C   UNL     1      34.195 -18.092 -25.256  0.00  0.00    +0.042 C 
ENDROOT
BRANCH   5  12
ATOM     10  N   UNL     1      35.797 -20.504 -20.333  0.00  0.00    -0.208 N 
ATOM     11  N   UNL     1      36.923 -19.775 -20.243  0.00  0.00    -0.176 NA
ATOM     12  C   UNL     1      35.527 -18.964 -21.860  0.00  0.00    +0.056 C 
ATOM     13  C   UNL     1      34.928 -20.059 -21.286  0.00  0.00    +0.087 C 
ATOM     14  C   UNL     1      36.753 -18.837 -21.178  0.00  0.00    +0.121 C 
ATOM     15  C   UNL     1      35.606 -21.638 -19.461  0.00  0.00    +0.140 C 
ENDBRANCH   5  12
BRANCH   7  16
ATOM     16  S   UNL     1      34.055 -13.758 -22.496  0.00  0.00    -0.051 S 
BRANCH  16  19
ATOM     17  N   UNL     1      32.624  -8.601 -25.092  0.00  0.00    -0.248 NA
ATOM     18  C   UNL     1      32.332 -10.154 -23.273  0.00  0.00    -0.003 C 
ATOM     19  C   UNL     1      33.620 -12.212 -23.264  0.00  0.00    +0.011 C 
ATOM     20  C   UNL     1      32.934  -9.763 -24.488  0.00  0.00    +0.060 C 
ATOM     21  C   UNL     1      32.679 -11.375 -22.671  0.00  0.00    +0.060 C 
ATOM     22  C   UNL     1      34.215 -11.833 -24.461  0.00  0.00    -0.017 C 
ATOM     23  C   UNL     1      33.870 -10.620 -25.060  0.00  0.00    +0.072 C 
ATOM     24  C   UNL     1      31.390  -9.292 -22.698  0.00  0.00    -0.001 C 
ATOM     25  C   UNL     1      31.068  -8.094 -23.318  0.00  0.00    +0.020 C 
ATOM     26  C   UNL     1      31.709  -7.798 -24.504  0.00  0.00    +0.098 C 
ENDBRANCH  16  19
ENDBRANCH   7  16
TORSDOF 3
ENDMDL
MODEL 8
REMARK VINA RESULT:      -9.9      6.110     12.566
REMARK  Name = 24779724
REMARK  3 active torsions:
REMARK  status: ('A' for Active; 'I' for Inactive)
REMARK    1  A    between atoms: C_5  and  C_12
REMARK    2  A    between atoms: C_7  and  S_16
REMARK    3  A    between atoms: S_16  and  C_19
REMARK                            x       y       z     vdW  Elec       q    Type
REMARK                         _______ _______ _______ _____ _____    ______ ____
ROOT
ATOM      1  N   UNL     1      32.425 -10.800 -22.814  0.00  0.00    -0.186 N 
ATOM      2  N   UNL     1      33.117  -9.883 -23.535  0.00  0.00    -0.162 NA
ATOM      3  N   UNL     1      31.075 -11.714 -21.342  0.00  0.00    -0.126 NA
ATOM      4  N   UNL     1      31.653 -12.719 -22.091  0.00  0.00    -0.120 NA
ATOM      5  C   UNL     1      32.886  -8.651 -23.178  0.00  0.00    +0.104 C 
ATOM      6  C   UNL     1      31.545 -10.566 -21.784  0.00  0.00    +0.187 A 
ATOM      7  C   UNL     1      32.457 -12.157 -22.964  0.00  0.00    +0.217 A 
ATOM      8  C   UNL     1      31.967  -8.248 -22.064  0.00  0.00    +0.024 C 
ATOM      9  C   UNL     1      31.328  -9.226 -21.409  0.00  0.00    +0.042 C 
ENDROOT
BRANCH   5  12
ATOM     10  N   UNL     1      33.991  -5.736 -25.042  0.00  0.00    -0.208 N 
ATOM     11  N   UNL     1      35.215  -6.239 -24.805  0.00  0.00    -0.176 NA
ATOM     12  C   UNL     1      33.581  -7.552 -23.897  0.00  0.00    +0.056 C 
ATOM     13  C   UNL     1      32.978  -6.486 -24.519  0.00  0.00    +0.087 C 
ATOM     14  C   UNL     1      34.958  -7.347 -24.106  0.00  0.00    +0.121 C 
ATOM     15  C   UNL     1      33.851  -4.510 -25.790  0.00  0.00    +0.140 C 
ENDBRANCH   5  12
BRANCH   7  16
ATOM     16  S   UNL     1      33.461 -12.991 -24.183  0.00  0.00    -0.051 S 
BRANCH  16  19
ATOM     17  N   UNL     1      35.314 -17.717 -21.084  0.00  0.00    -0.248 NA
ATOM     18  C   UNL     1      34.783 -16.714 -23.209  0.00  0.00    -0.003 C 
ATOM     19  C   UNL     1      34.017 -14.411 -23.265  0.00  0.00    +0.011 C 
ATOM     20  C   UNL     1      34.898 -16.659 -21.804  0.00  0.00    +0.060 C 
ATOM     21  C   UNL     1      34.344 -15.590 -23.929  0.00  0.00    +0.060 C 
ATOM     22  C   UNL     1      34.127 -14.351 -21.882  0.00  0.00    -0.017 C 
ATOM     23  C   UNL     1      34.563 -15.468 -21.165  0.00  0.00    +0.072 C 
ATOM     24  C   UNL     1      35.119 -17.913 -23.851  0.00  0.00    -0.001 C 
ATOM     25  C   UNL     1      35.550 -19.005 -23.112  0.00  0.00    +0.020 C 
ATOM     26  C   UNL     1      35.629 -18.856 -21.742  0.00  0.00    +0.098 C 
ENDBRANCH  16  19
ENDBRANCH   7  16
TORSDOF 3
ENDMDL
MODEL 9
REMARK VINA RESULT:      -9.8      6.432     11.917
REMARK  Name = 24779724
REMARK  3 active torsions:
REMARK  status: ('A' for Active; 'I' for Inactive)
REMARK    1  A    between atoms: C_5  and  C_12
REMARK    2  A    between atoms: C_7  and  S_16
REMARK    3  A    between atoms: S_16  and  C_19
REMARK                            x       y       z     vdW  Elec       q    Type
REMARK                         _______ _______ _______ _____ _____    ______ ____
ROOT
ATOM      1  N   UNL     1      33.943 -10.550 -25.450  0.00  0.00    -0.186 N 
ATOM      2  N   UNL     1      33.133 -10.427 -24.369  0.00  0.00    -0.162 NA
ATOM      3  N   UNL     1      35.521 -10.177 -26.931  0.00  0.00    -0.126 NA
ATOM      4  N   UNL     1      34.846 -11.326 -27.290  0.00  0.00    -0.120 NA
ATOM      5  C   UNL     1      33.401  -9.390 -23.627  0.00  0.00    +0.104 C 
ATOM      6  C   UNL     1      34.972  -9.720 -25.826  0.00  0.00    +0.187 A 
ATOM      7  C   UNL     1      33.906 -11.534 -26.396  0.00  0.00    +0.217 A 
ATOM      8  C   UNL     1      34.479  -8.391 -23.922  0.00  0.00    +0.024 C 
ATOM      9  C   UNL     1      35.227  -8.597 -25.014  0.00  0.00    +0.042 C 
ENDROOT
BRANCH   5  12
ATOM     10  N   UNL     1      31.332  -9.438 -20.643  0.00  0.00    -0.208 N 
ATOM     11  N   UNL     1      31.511  -8.107 -20.683  0.00  0.00    -0.176 NA
ATOM     12  C   UNL     1      32.586  -9.148 -22.408  0.00  0.00    +0.056 C 
ATOM     13  C   UNL     1      31.955 -10.108 -21.655  0.00  0.00    +0.087 C 
ATOM     14  C   UNL     1      32.279  -7.936 -21.762  0.00  0.00    +0.121 C 
ATOM     15  C   UNL     1      30.536 -10.023 -19.591  0.00  0.00    +0.140 C 
ENDBRANCH   5  12
BRANCH   7  16
ATOM     16  S   UNL     1      32.733 -12.881 -26.373  0.00  0.00    -0.051 S 
BRANCH  16  19
ATOM     17  N   UNL     1      35.120 -16.406 -22.218  0.00  0.00    -0.248 NA
ATOM     18  C   UNL     1      34.236 -16.133 -24.443  0.00  0.00    -0.003 C 
ATOM     19  C   UNL     1      33.448 -13.945 -25.137  0.00  0.00    +0.011 C 
ATOM     20  C   UNL     1      34.580 -15.625 -23.173  0.00  0.00    +0.060 C 
ATOM     21  C   UNL     1      33.673 -15.290 -25.415  0.00  0.00    +0.060 C 
ATOM     22  C   UNL     1      33.784 -13.438 -23.888  0.00  0.00    -0.017 C 
ATOM     23  C   UNL     1      34.344 -14.276 -22.921  0.00  0.00    +0.072 C 
ATOM     24  C   UNL     1      34.473 -17.491 -24.696  0.00  0.00    -0.001 C 
ATOM     25  C   UNL     1      35.030 -18.298 -23.715  0.00  0.00    +0.020 C 
ATOM     26  C   UNL     1      35.333 -17.710 -22.503  0.00  0.00    +0.098 C 
ENDBRANCH  16  19
ENDBRANCH   7  16
TORSDOF 3
ENDMDL
