MODEL 1
REMARK VINA RESULT:     -11.5      0.000      0.000
REMARK  Name = 15985904
REMARK  7 active torsions:
REMARK  status: ('A' for Active; 'I' for Inactive)
REMARK    1  A    between atoms: N_1  and  S_6
REMARK    2  A    between atoms: C_4  and  C_21
REMARK    3  A    between atoms: S_6  and  C_9
REMARK    4  A    between atoms: C_10  and  C_17
REMARK    5  A    between atoms: C_22  and  C_25
REMARK    6  A    between atoms: N_24  and  C_27
REMARK    7  A    between atoms: C_28  and  N_33
REMARK                            x       y       z     vdW  Elec       q    Type
REMARK                         _______ _______ _______ _____ _____    ______ ____
ROOT
ATOM      1  N   UNL     1      35.002 -17.211 -22.599  0.00  0.00    -0.167 N 
ATOM      2  C   UNL     1      34.890 -16.221 -23.485  0.00  0.00    +0.089 C 
ATOM      3  C   UNL     1      34.750 -16.850 -21.340  0.00  0.00    +0.089 C 
ATOM      4  C   UNL     1      34.533 -15.110 -22.753  0.00  0.00    +0.018 C 
ATOM      5  C   UNL     1      34.445 -15.508 -21.396  0.00  0.00    +0.019 C 
ENDROOT
BRANCH   1   6
ATOM      6  S   UNL     1      35.438 -18.824 -23.043  0.00  0.00    +0.080 S 
ATOM      7  O   UNL     1      36.887 -18.762 -23.106  0.00  0.00    -0.149 OA
ATOM      8  O   UNL     1      34.622 -19.151 -24.197  0.00  0.00    -0.149 OA
BRANCH   6   9
ATOM      9  C   UNL     1      34.929 -19.831 -21.711  0.00  0.00    +0.126 C 
ATOM     10  C   UNL     1      34.116 -21.443 -19.584  0.00  0.00    +0.003 C 
ATOM     11  C   UNL     1      35.881 -20.462 -20.910  0.00  0.00    +0.020 C 
ATOM     12  C   UNL     1      33.570 -20.006 -21.447  0.00  0.00    +0.020 C 
ATOM     13  C   UNL     1      35.474 -21.268 -19.847  0.00  0.00    +0.001 C 
ATOM     14  C   UNL     1      33.164 -20.812 -20.384  0.00  0.00    +0.001 C 
BRANCH  10  17
ATOM     15  N   UNL     1      33.770 -23.524 -16.707  0.00  0.00    -0.208 N 
ATOM     16  N   UNL     1      32.460 -23.481 -17.006  0.00  0.00    -0.176 NA
ATOM     17  C   UNL     1      33.697 -22.272 -18.489  0.00  0.00    +0.037 C 
ATOM     18  C   UNL     1      34.556 -22.814 -17.567  0.00  0.00    +0.086 C 
ATOM     19  C   UNL     1      32.424 -22.712 -18.097  0.00  0.00    +0.119 C 
ATOM     20  C   UNL     1      34.219 -24.278 -15.561  0.00  0.00    +0.140 C 
ENDBRANCH  10  17
ENDBRANCH   6   9
ENDBRANCH   1   6
BRANCH   4  21
ATOM     21  C   UNL     1      34.304 -13.826 -23.289  0.00  0.00    +0.006 C 
ATOM     22  C   UNL     1      34.099 -13.477 -24.591  0.00  0.00    +0.058 C 
BRANCH  22  25
ATOM     23  O   UNL     1      33.422 -11.766 -26.097  0.00  0.00    -0.270 OA
ATOM     24  N   UNL     1      34.223 -11.185 -23.969  0.00  0.00    -0.279 N 
ATOM     25  C   UNL     1      33.868 -12.053 -24.992  0.00  0.00    +0.250 C 
ATOM     26  H   UNL     1      34.567 -11.600 -23.143  0.00  0.00    +0.155 HD
BRANCH  24  27
ATOM     27  C   UNL     1      34.147  -9.770 -23.977  0.00  0.00    +0.064 C 
ATOM     28  C   UNL     1      33.052  -9.125 -23.425  0.00  0.00    +0.055 C 
ATOM     29  C   UNL     1      35.191  -9.060 -24.547  0.00  0.00    +0.016 C 
ATOM     30  C   UNL     1      33.000  -7.731 -23.445  0.00  0.00    +0.015 C 
ATOM     31  C   UNL     1      35.139  -7.666 -24.567  0.00  0.00    +0.001 C 
ATOM     32  C   UNL     1      34.043  -7.002 -24.016  0.00  0.00    +0.001 C 
BRANCH  28  33
ATOM     33  N   UNL     1      31.986  -9.842 -22.840  0.00  0.00    -0.356 N 
ATOM     34  H   UNL     1      31.855  -9.820 -21.864  0.00  0.00    +0.142 HD
ATOM     35  H   UNL     1      31.373 -10.364 -23.407  0.00  0.00    +0.142 HD
ENDBRANCH  28  33
ENDBRANCH  24  27
ENDBRANCH  22  25
ENDBRANCH   4  21
TORSDOF 7
ENDMDL
MODEL 2
REMARK VINA RESULT:     -11.3      0.577      1.477
REMARK  Name = 15985904
REMARK  7 active torsions:
REMARK  status: ('A' for Active; 'I' for Inactive)
REMARK    1  A    between atoms: N_1  and  S_6
REMARK    2  A    between atoms: C_4  and  C_21
REMARK    3  A    between atoms: S_6  and  C_9
REMARK    4  A    between atoms: C_10  and  C_17
REMARK    5  A    between atoms: C_22  and  C_25
REMARK    6  A    between atoms: N_24  and  C_27
REMARK    7  A    between atoms: C_28  and  N_33
REMARK                            x       y       z     vdW  Elec       q    Type
REMARK                         _______ _______ _______ _____ _____    ______ ____
ROOT
ATOM      1  N   UNL     1      34.996 -17.301 -22.517  0.00  0.00    -0.167 N 
ATOM      2  C   UNL     1      34.837 -16.322 -23.408  0.00  0.00    +0.089 C 
ATOM      3  C   UNL     1      34.796 -16.929 -21.253  0.00  0.00    +0.089 C 
ATOM      4  C   UNL     1      34.502 -15.206 -22.673  0.00  0.00    +0.018 C 
ATOM      5  C   UNL     1      34.476 -15.590 -21.309  0.00  0.00    +0.019 C 
ENDROOT
BRANCH   1   6
ATOM      6  S   UNL     1      35.427 -18.914 -22.963  0.00  0.00    +0.080 S 
ATOM      7  O   UNL     1      36.876 -18.857 -23.026  0.00  0.00    -0.149 OA
ATOM      8  O   UNL     1      34.609 -19.238 -24.117  0.00  0.00    -0.149 OA
BRANCH   6   9
ATOM      9  C   UNL     1      34.916 -19.922 -21.632  0.00  0.00    +0.126 C 
ATOM     10  C   UNL     1      34.099 -21.530 -19.503  0.00  0.00    +0.003 C 
ATOM     11  C   UNL     1      33.557 -20.086 -21.363  0.00  0.00    +0.020 C 
ATOM     12  C   UNL     1      35.866 -20.562 -20.836  0.00  0.00    +0.020 C 
ATOM     13  C   UNL     1      33.149 -20.890 -20.299  0.00  0.00    +0.001 C 
ATOM     14  C   UNL     1      35.458 -21.366 -19.772  0.00  0.00    +0.001 C 
BRANCH  10  17
ATOM     15  N   UNL     1      33.745 -23.593 -16.614  0.00  0.00    -0.208 N 
ATOM     16  N   UNL     1      32.439 -23.575 -16.934  0.00  0.00    -0.176 NA
ATOM     17  C   UNL     1      33.679 -22.358 -18.408  0.00  0.00    +0.037 C 
ATOM     18  C   UNL     1      34.532 -22.876 -17.468  0.00  0.00    +0.086 C 
ATOM     19  C   UNL     1      32.407 -22.817 -18.032  0.00  0.00    +0.119 C 
ATOM     20  C   UNL     1      34.189 -24.328 -15.454  0.00  0.00    +0.140 C 
ENDBRANCH  10  17
ENDBRANCH   6   9
ENDBRANCH   1   6
BRANCH   4  21
ATOM     21  C   UNL     1      34.239 -13.930 -23.212  0.00  0.00    +0.006 C 
ATOM     22  C   UNL     1      34.022 -13.590 -24.515  0.00  0.00    +0.058 C 
BRANCH  22  25
ATOM     23  O   UNL     1      33.599 -11.864 -26.095  0.00  0.00    -0.270 OA
ATOM     24  N   UNL     1      33.714 -11.338 -23.810  0.00  0.00    -0.279 N 
ATOM     25  C   UNL     1      33.753 -12.173 -24.919  0.00  0.00    +0.250 C 
ATOM     26  H   UNL     1      33.862 -11.767 -22.935  0.00  0.00    +0.155 HD
BRANCH  24  27
ATOM     27  C   UNL     1      33.487  -9.941 -23.794  0.00  0.00    +0.064 C 
ATOM     28  C   UNL     1      34.455  -9.068 -24.264  0.00  0.00    +0.055 C 
ATOM     29  C   UNL     1      32.278  -9.477 -23.300  0.00  0.00    +0.016 C 
ATOM     30  C   UNL     1      34.208  -7.696 -24.238  0.00  0.00    +0.015 C 
ATOM     31  C   UNL     1      32.031  -8.105 -23.274  0.00  0.00    +0.001 C 
ATOM     32  C   UNL     1      32.996  -7.214 -23.743  0.00  0.00    +0.001 C 
BRANCH  28  33
ATOM     33  N   UNL     1      35.688  -9.533 -24.771  0.00  0.00    -0.356 N 
ATOM     34  H   UNL     1      35.790 -10.478 -25.026  0.00  0.00    +0.142 HD
ATOM     35  H   UNL     1      36.446  -8.912 -24.870  0.00  0.00    +0.142 HD
ENDBRANCH  28  33
ENDBRANCH  24  27
ENDBRANCH  22  25
ENDBRANCH   4  21
TORSDOF 7
ENDMDL
MODEL 3
REMARK VINA RESULT:     -11.2      2.858     12.084
REMARK  Name = 15985904
REMARK  7 active torsions:
REMARK  status: ('A' for Active; 'I' for Inactive)
REMARK    1  A    between atoms: N_1  and  S_6
REMARK    2  A    between atoms: C_4  and  C_21
REMARK    3  A    between atoms: S_6  and  C_9
REMARK    4  A    between atoms: C_10  and  C_17
REMARK    5  A    between atoms: C_22  and  C_25
REMARK    6  A    between atoms: N_24  and  C_27
REMARK    7  A    between atoms: C_28  and  N_33
REMARK                            x       y       z     vdW  Elec       q    Type
REMARK                         _______ _______ _______ _____ _____    ______ ____
ROOT
ATOM      1  N   UNL     1      35.148 -19.799 -21.504  0.00  0.00    -0.167 N 
ATOM      2  C   UNL     1      35.759 -20.598 -20.630  0.00  0.00    +0.089 C 
ATOM      3  C   UNL     1      33.817 -19.812 -21.422  0.00  0.00    +0.089 C 
ATOM      4  C   UNL     1      34.749 -21.191 -19.905  0.00  0.00    +0.018 C 
ATOM      5  C   UNL     1      33.520 -20.694 -20.406  0.00  0.00    +0.019 C 
ENDROOT
BRANCH   1   6
ATOM      6  S   UNL     1      36.006 -18.829 -22.649  0.00  0.00    +0.080 S 
ATOM      7  O   UNL     1      35.768 -19.521 -23.903  0.00  0.00    -0.149 OA
ATOM      8  O   UNL     1      37.337 -18.652 -22.099  0.00  0.00    -0.149 OA
BRANCH   6   9
ATOM      9  C   UNL     1      35.204 -17.279 -22.647  0.00  0.00    +0.126 C 
ATOM     10  C   UNL     1      33.919 -14.803 -22.644  0.00  0.00    +0.003 C 
ATOM     11  C   UNL     1      34.946 -16.629 -21.441  0.00  0.00    +0.020 C 
ATOM     12  C   UNL     1      34.820 -16.691 -23.852  0.00  0.00    +0.020 C 
ATOM     13  C   UNL     1      34.303 -15.391 -21.439  0.00  0.00    +0.001 C 
ATOM     14  C   UNL     1      34.177 -15.453 -23.851  0.00  0.00    +0.001 C 
BRANCH  10  17
ATOM     15  N   UNL     1      31.928 -11.898 -22.078  0.00  0.00    -0.208 N 
ATOM     16  N   UNL     1      32.591 -11.407 -23.139  0.00  0.00    -0.176 NA
ATOM     17  C   UNL     1      33.258 -13.528 -22.642  0.00  0.00    +0.037 C 
ATOM     18  C   UNL     1      32.292 -13.168 -21.739  0.00  0.00    +0.086 C 
ATOM     19  C   UNL     1      33.404 -12.410 -23.478  0.00  0.00    +0.119 C 
ATOM     20  C   UNL     1      30.936 -11.085 -21.415  0.00  0.00    +0.140 C 
ENDBRANCH  10  17
ENDBRANCH   6   9
ENDBRANCH   1   6
BRANCH   4  21
ATOM     21  C   UNL     1      34.939 -22.120 -18.860  0.00  0.00    +0.006 C 
ATOM     22  C   UNL     1      35.737 -22.005 -17.761  0.00  0.00    +0.058 C 
BRANCH  22  25
ATOM     23  O   UNL     1      34.891 -23.871 -16.555  0.00  0.00    -0.270 OA
ATOM     24  N   UNL     1      37.048 -23.072 -16.087  0.00  0.00    -0.279 N 
ATOM     25  C   UNL     1      35.822 -23.096 -16.738  0.00  0.00    +0.250 C 
ATOM     26  H   UNL     1      37.679 -22.370 -16.369  0.00  0.00    +0.155 HD
BRANCH  24  27
ATOM     27  C   UNL     1      37.494 -23.944 -15.063  0.00  0.00    +0.064 C 
ATOM     28  C   UNL     1      36.848 -23.972 -13.837  0.00  0.00    +0.055 C 
ATOM     29  C   UNL     1      38.583 -24.759 -15.323  0.00  0.00    +0.016 C 
ATOM     30  C   UNL     1      37.305 -24.838 -12.845  0.00  0.00    +0.015 C 
ATOM     31  C   UNL     1      39.040 -25.626 -14.330  0.00  0.00    +0.001 C 
ATOM     32  C   UNL     1      38.402 -25.665 -13.090  0.00  0.00    +0.001 C 
BRANCH  28  33
ATOM     33  N   UNL     1      35.735 -23.145 -13.566  0.00  0.00    -0.356 N 
ATOM     34  H   UNL     1      35.083 -23.409 -12.878  0.00  0.00    +0.142 HD
ATOM     35  H   UNL     1      35.612 -22.306 -14.065  0.00  0.00    +0.142 HD
ENDBRANCH  28  33
ENDBRANCH  24  27
ENDBRANCH  22  25
ENDBRANCH   4  21
TORSDOF 7
ENDMDL
MODEL 4
REMARK VINA RESULT:     -10.7      2.199     11.733
REMARK  Name = 15985904
REMARK  7 active torsions:
REMARK  status: ('A' for Active; 'I' for Inactive)
REMARK    1  A    between atoms: N_1  and  S_6
REMARK    2  A    between atoms: C_4  and  C_21
REMARK    3  A    between atoms: S_6  and  C_9
REMARK    4  A    between atoms: C_10  and  C_17
REMARK    5  A    between atoms: C_22  and  C_25
REMARK    6  A    between atoms: N_24  and  C_27
REMARK    7  A    between atoms: C_28  and  N_33
REMARK                            x       y       z     vdW  Elec       q    Type
REMARK                         _______ _______ _______ _____ _____    ______ ____
ROOT
ATOM      1  N   UNL     1      34.768 -18.291 -23.346  0.00  0.00    -0.167 N 
ATOM      2  C   UNL     1      34.161 -19.295 -22.712  0.00  0.00    +0.089 C 
ATOM      3  C   UNL     1      35.865 -17.841 -22.737  0.00  0.00    +0.089 C 
ATOM      4  C   UNL     1      34.921 -19.532 -21.588  0.00  0.00    +0.018 C 
ATOM      5  C   UNL     1      35.999 -18.612 -21.604  0.00  0.00    +0.019 C 
ENDROOT
BRANCH   1   6
ATOM      6  S   UNL     1      34.181 -17.628 -24.831  0.00  0.00    +0.080 S 
ATOM      7  O   UNL     1      32.905 -18.300 -25.003  0.00  0.00    -0.149 OA
ATOM      8  O   UNL     1      35.267 -17.766 -25.784  0.00  0.00    -0.149 OA
BRANCH   6   9
ATOM      9  C   UNL     1      33.936 -15.927 -24.522  0.00  0.00    +0.126 C 
ATOM     10  C   UNL     1      33.544 -13.210 -24.028  0.00  0.00    +0.003 C 
ATOM     11  C   UNL     1      34.256 -15.392 -23.275  0.00  0.00    +0.020 C 
ATOM     12  C   UNL     1      33.421 -15.103 -25.523  0.00  0.00    +0.020 C 
ATOM     13  C   UNL     1      34.060 -14.034 -23.028  0.00  0.00    +0.001 C 
ATOM     14  C   UNL     1      33.225 -13.745 -25.276  0.00  0.00    +0.001 C 
BRANCH  10  17
ATOM     15  N   UNL     1      32.576  -9.963 -22.911  0.00  0.00    -0.208 N 
ATOM     16  N   UNL     1      33.462  -9.536 -23.827  0.00  0.00    -0.176 NA
ATOM     17  C   UNL     1      33.343 -11.811 -23.774  0.00  0.00    +0.037 C 
ATOM     18  C   UNL     1      32.468 -11.321 -22.838  0.00  0.00    +0.086 C 
ATOM     19  C   UNL     1      33.926 -10.673 -24.351  0.00  0.00    +0.119 C 
ATOM     20  C   UNL     1      31.849  -9.003 -22.115  0.00  0.00    +0.140 C 
ENDBRANCH  10  17
ENDBRANCH   6   9
ENDBRANCH   1   6
BRANCH   4  21
ATOM     21  C   UNL     1      34.647 -20.519 -20.618  0.00  0.00    +0.006 C 
ATOM     22  C   UNL     1      35.531 -21.284 -19.917  0.00  0.00    +0.058 C 
BRANCH  22  25
ATOM     23  O   UNL     1      34.212 -23.128 -19.198  0.00  0.00    -0.270 OA
ATOM     24  N   UNL     1      35.724 -22.133 -17.703  0.00  0.00    -0.279 N 
ATOM     25  C   UNL     1      35.066 -22.295 -18.915  0.00  0.00    +0.250 C 
ATOM     26  H   UNL     1      36.386 -21.404 -17.659  0.00  0.00    +0.155 HD
BRANCH  24  27
ATOM     27  C   UNL     1      35.552 -22.897 -16.523  0.00  0.00    +0.064 C 
ATOM     28  C   UNL     1      36.653 -23.398 -15.846  0.00  0.00    +0.055 C 
ATOM     29  C   UNL     1      34.263 -23.126 -16.070  0.00  0.00    +0.016 C 
ATOM     30  C   UNL     1      36.458 -24.148 -14.686  0.00  0.00    +0.015 C 
ATOM     31  C   UNL     1      34.068 -23.876 -14.910  0.00  0.00    +0.001 C 
ATOM     32  C   UNL     1      35.166 -24.387 -14.219  0.00  0.00    +0.001 C 
BRANCH  28  33
ATOM     33  N   UNL     1      37.970 -23.168 -16.300  0.00  0.00    -0.356 N 
ATOM     34  H   UNL     1      38.693 -23.003 -15.651  0.00  0.00    +0.142 HD
ATOM     35  H   UNL     1      38.167 -23.171 -17.264  0.00  0.00    +0.142 HD
ENDBRANCH  28  33
ENDBRANCH  24  27
ENDBRANCH  22  25
ENDBRANCH   4  21
TORSDOF 7
ENDMDL
MODEL 5
REMARK VINA RESULT:     -10.6      2.380     12.006
REMARK  Name = 15985904
REMARK  7 active torsions:
REMARK  status: ('A' for Active; 'I' for Inactive)
REMARK    1  A    between atoms: N_1  and  S_6
REMARK    2  A    between atoms: C_4  and  C_21
REMARK    3  A    between atoms: S_6  and  C_9
REMARK    4  A    between atoms: C_10  and  C_17
REMARK    5  A    between atoms: C_22  and  C_25
REMARK    6  A    between atoms: N_24  and  C_27
REMARK    7  A    between atoms: C_28  and  N_33
REMARK                            x       y       z     vdW  Elec       q    Type
REMARK                         _______ _______ _______ _____ _____    ______ ____
ROOT
ATOM      1  N   UNL     1      34.714 -19.470 -21.959  0.00  0.00    -0.167 N 
ATOM      2  C   UNL     1      35.119 -20.256 -20.962  0.00  0.00    +0.089 C 
ATOM      3  C   UNL     1      33.394 -19.454 -22.143  0.00  0.00    +0.089 C 
ATOM      4  C   UNL     1      33.970 -20.808 -20.438  0.00  0.00    +0.018 C 
ATOM      5  C   UNL     1      32.878 -20.300 -21.186  0.00  0.00    +0.019 C 
ENDROOT
BRANCH   1   6
ATOM      6  S   UNL     1      35.807 -18.551 -22.933  0.00  0.00    +0.080 S 
ATOM      7  O   UNL     1      35.717 -19.204 -24.226  0.00  0.00    -0.149 OA
ATOM      8  O   UNL     1      37.046 -18.482 -22.181  0.00  0.00    -0.149 OA
BRANCH   6   9
ATOM      9  C   UNL     1      35.128 -16.945 -23.014  0.00  0.00    +0.126 C 
ATOM     10  C   UNL     1      34.043 -14.378 -23.143  0.00  0.00    +0.003 C 
ATOM     11  C   UNL     1      34.792 -16.391 -24.249  0.00  0.00    +0.020 C 
ATOM     12  C   UNL     1      34.920 -16.215 -21.843  0.00  0.00    +0.020 C 
ATOM     13  C   UNL     1      34.250 -15.108 -24.313  0.00  0.00    +0.001 C 
ATOM     14  C   UNL     1      34.378 -14.932 -21.908  0.00  0.00    +0.001 C 
BRANCH  10  17
ATOM     15  N   UNL     1      32.230 -11.326 -22.789  0.00  0.00    -0.208 N 
ATOM     16  N   UNL     1      33.040 -10.894 -23.771  0.00  0.00    -0.176 NA
ATOM     17  C   UNL     1      33.485 -13.056 -23.210  0.00  0.00    +0.037 C 
ATOM     18  C   UNL     1      32.457 -12.618 -22.415  0.00  0.00    +0.086 C 
ATOM     19  C   UNL     1      33.804 -11.959 -24.023  0.00  0.00    +0.119 C 
ATOM     20  C   UNL     1      31.238 -10.436 -22.235  0.00  0.00    +0.140 C 
ENDBRANCH  10  17
ENDBRANCH   6   9
ENDBRANCH   1   6
BRANCH   4  21
ATOM     21  C   UNL     1      33.926 -21.710 -19.355  0.00  0.00    +0.006 C 
ATOM     22  C   UNL     1      32.842 -22.354 -18.834  0.00  0.00    +0.058 C 
BRANCH  22  25
ATOM     23  O   UNL     1      33.967 -23.989 -17.524  0.00  0.00    -0.270 OA
ATOM     24  N   UNL     1      31.852 -23.223 -16.853  0.00  0.00    -0.279 N 
ATOM     25  C   UNL     1      32.972 -23.288 -17.671  0.00  0.00    +0.250 C 
ATOM     26  H   UNL     1      31.144 -22.597 -17.131  0.00  0.00    +0.155 HD
BRANCH  24  27
ATOM     27  C   UNL     1      31.612 -23.956 -15.665  0.00  0.00    +0.064 C 
ATOM     28  C   UNL     1      30.384 -24.560 -15.451  0.00  0.00    +0.055 C 
ATOM     29  C   UNL     1      32.634 -24.050 -14.734  0.00  0.00    +0.016 C 
ATOM     30  C   UNL     1      30.171 -25.276 -14.273  0.00  0.00    +0.015 C 
ATOM     31  C   UNL     1      32.421 -24.766 -13.556  0.00  0.00    +0.001 C 
ATOM     32  C   UNL     1      31.189 -25.378 -13.325  0.00  0.00    +0.001 C 
BRANCH  28  33
ATOM     33  N   UNL     1      29.338 -24.470 -16.397  0.00  0.00    -0.356 N 
ATOM     34  H   UNL     1      28.683 -23.737 -16.338  0.00  0.00    +0.142 HD
ATOM     35  H   UNL     1      29.265 -25.139 -17.114  0.00  0.00    +0.142 HD
ENDBRANCH  28  33
ENDBRANCH  24  27
ENDBRANCH  22  25
ENDBRANCH   4  21
TORSDOF 7
ENDMDL
MODEL 6
REMARK VINA RESULT:     -10.6      2.013      2.927
REMARK  Name = 15985904
REMARK  7 active torsions:
REMARK  status: ('A' for Active; 'I' for Inactive)
REMARK    1  A    between atoms: N_1  and  S_6
REMARK    2  A    between atoms: C_4  and  C_21
REMARK    3  A    between atoms: S_6  and  C_9
REMARK    4  A    between atoms: C_10  and  C_17
REMARK    5  A    between atoms: C_22  and  C_25
REMARK    6  A    between atoms: N_24  and  C_27
REMARK    7  A    between atoms: C_28  and  N_33
REMARK                            x       y       z     vdW  Elec       q    Type
REMARK                         _______ _______ _______ _____ _____    ______ ____
ROOT
ATOM      1  N   UNL     1      34.170 -15.452 -24.053  0.00  0.00    -0.167 N 
ATOM      2  C   UNL     1      34.033 -14.338 -24.773  0.00  0.00    +0.089 C 
ATOM      3  C   UNL     1      34.228 -15.249 -22.737  0.00  0.00    +0.089 C 
ATOM      4  C   UNL     1      33.997 -13.310 -23.857  0.00  0.00    +0.018 C 
ATOM      5  C   UNL     1      34.120 -13.886 -22.569  0.00  0.00    +0.019 C 
ENDROOT
BRANCH   1   6
ATOM      6  S   UNL     1      34.265 -17.024 -24.766  0.00  0.00    +0.080 S 
ATOM      7  O   UNL     1      35.435 -16.922 -25.619  0.00  0.00    -0.149 OA
ATOM      8  O   UNL     1      32.941 -17.302 -25.290  0.00  0.00    -0.149 OA
BRANCH   6   9
ATOM      9  C   UNL     1      34.570 -18.121 -23.443  0.00  0.00    +0.126 C 
ATOM     10  C   UNL     1      35.058 -19.874 -21.327  0.00  0.00    +0.003 C 
ATOM     11  C   UNL     1      33.634 -19.104 -23.122  0.00  0.00    +0.020 C 
ATOM     12  C   UNL     1      35.750 -18.015 -22.706  0.00  0.00    +0.020 C 
ATOM     13  C   UNL     1      33.878 -19.980 -22.064  0.00  0.00    +0.001 C 
ATOM     14  C   UNL     1      35.994 -18.891 -21.649  0.00  0.00    +0.001 C 
BRANCH  10  17
ATOM     15  N   UNL     1      36.286 -21.749 -18.553  0.00  0.00    -0.208 N 
ATOM     16  N   UNL     1      35.138 -22.436 -18.688  0.00  0.00    -0.176 NA
ATOM     17  C   UNL     1      35.308 -20.776 -20.239  0.00  0.00    +0.037 C 
ATOM     18  C   UNL     1      36.436 -20.741 -19.459  0.00  0.00    +0.086 C 
ATOM     19  C   UNL     1      34.546 -21.834 -19.722  0.00  0.00    +0.119 C 
ATOM     20  C   UNL     1      37.219 -22.112 -17.513  0.00  0.00    +0.140 C 
ENDBRANCH  10  17
ENDBRANCH   6   9
ENDBRANCH   1   6
BRANCH   4  21
ATOM     21  C   UNL     1      33.860 -11.943 -24.179  0.00  0.00    +0.006 C 
ATOM     22  C   UNL     1      34.278 -11.292 -25.301  0.00  0.00    +0.058 C 
BRANCH  22  25
ATOM     23  O   UNL     1      34.587  -9.203 -26.394  0.00  0.00    -0.270 OA
ATOM     24  N   UNL     1      33.187  -9.330 -24.514  0.00  0.00    -0.279 N 
ATOM     25  C   UNL     1      34.049  -9.823 -25.484  0.00  0.00    +0.250 C 
ATOM     26  H   UNL     1      32.850  -9.982 -23.856  0.00  0.00    +0.155 HD
BRANCH  24  27
ATOM     27  C   UNL     1      32.738  -7.995 -24.362  0.00  0.00    +0.064 C 
ATOM     28  C   UNL     1      33.490  -7.080 -23.643  0.00  0.00    +0.055 C 
ATOM     29  C   UNL     1      31.536  -7.636 -24.950  0.00  0.00    +0.016 C 
ATOM     30  C   UNL     1      33.027  -5.772 -23.508  0.00  0.00    +0.015 C 
ATOM     31  C   UNL     1      31.073  -6.327 -24.815  0.00  0.00    +0.001 C 
ATOM     32  C   UNL     1      31.818  -5.395 -24.093  0.00  0.00    +0.001 C 
BRANCH  28  33
ATOM     33  N   UNL     1      34.718  -7.438 -23.043  0.00  0.00    -0.356 N 
ATOM     34  H   UNL     1      35.241  -6.762 -22.554  0.00  0.00    +0.142 HD
ATOM     35  H   UNL     1      35.049  -8.362 -23.113  0.00  0.00    +0.142 HD
ENDBRANCH  28  33
ENDBRANCH  24  27
ENDBRANCH  22  25
ENDBRANCH   4  21
TORSDOF 7
ENDMDL
MODEL 7
REMARK VINA RESULT:     -10.5      1.999     11.645
REMARK  Name = 15985904
REMARK  7 active torsions:
REMARK  status: ('A' for Active; 'I' for Inactive)
REMARK    1  A    between atoms: N_1  and  S_6
REMARK    2  A    between atoms: C_4  and  C_21
REMARK    3  A    between atoms: S_6  and  C_9
REMARK    4  A    between atoms: C_10  and  C_17
REMARK    5  A    between atoms: C_22  and  C_25
REMARK    6  A    between atoms: N_24  and  C_27
REMARK    7  A    between atoms: C_28  and  N_33
REMARK                            x       y       z     vdW  Elec       q    Type
REMARK                         _______ _______ _______ _____ _____    ______ ____
ROOT
ATOM      1  N   UNL     1      34.577 -18.331 -23.247  0.00  0.00    -0.167 N 
ATOM      2  C   UNL     1      34.046 -19.440 -22.734  0.00  0.00    +0.089 C 
ATOM      3  C   UNL     1      35.503 -17.759 -22.477  0.00  0.00    +0.089 C 
ATOM      4  C   UNL     1      34.672 -19.621 -21.520  0.00  0.00    +0.018 C 
ATOM      5  C   UNL     1      35.594 -18.557 -21.358  0.00  0.00    +0.019 C 
ENDROOT
BRANCH   1   6
ATOM      6  S   UNL     1      34.105 -17.688 -24.781  0.00  0.00    +0.080 S 
ATOM      7  O   UNL     1      32.810 -18.304 -25.005  0.00  0.00    -0.149 OA
ATOM      8  O   UNL     1      35.234 -17.905 -25.666  0.00  0.00    -0.149 OA
BRANCH   6   9
ATOM      9  C   UNL     1      33.927 -15.969 -24.535  0.00  0.00    +0.126 C 
ATOM     10  C   UNL     1      33.641 -13.222 -24.141  0.00  0.00    +0.003 C 
ATOM     11  C   UNL     1      34.311 -15.394 -23.323  0.00  0.00    +0.020 C 
ATOM     12  C   UNL     1      33.400 -15.169 -25.549  0.00  0.00    +0.020 C 
ATOM     13  C   UNL     1      34.168 -14.021 -23.126  0.00  0.00    +0.001 C 
ATOM     14  C   UNL     1      33.257 -13.796 -25.352  0.00  0.00    +0.001 C 
BRANCH  10  17
ATOM     15  N   UNL     1      32.764  -9.900 -23.180  0.00  0.00    -0.208 N 
ATOM     16  N   UNL     1      33.732  -9.544 -24.042  0.00  0.00    -0.176 NA
ATOM     17  C   UNL     1      33.493 -11.808 -23.938  0.00  0.00    +0.037 C 
ATOM     18  C   UNL     1      32.582 -11.248 -23.080  0.00  0.00    +0.086 C 
ATOM     19  C   UNL     1      34.173 -10.717 -24.502  0.00  0.00    +0.119 C 
ATOM     20  C   UNL     1      32.033  -8.882 -22.463  0.00  0.00    +0.140 C 
ENDBRANCH  10  17
ENDBRANCH   6   9
ENDBRANCH   1   6
BRANCH   4  21
ATOM     21  C   UNL     1      34.419 -20.683 -20.627  0.00  0.00    +0.006 C 
ATOM     22  C   UNL     1      33.219 -21.233 -20.286  0.00  0.00    +0.058 C 
BRANCH  22  25
ATOM     23  O   UNL     1      33.731 -23.418 -19.500  0.00  0.00    -0.270 OA
ATOM     24  N   UNL     1      32.301 -22.042 -18.246  0.00  0.00    -0.279 N 
ATOM     25  C   UNL     1      33.127 -22.368 -19.313  0.00  0.00    +0.250 C 
ATOM     26  H   UNL     1      31.898 -21.143 -18.265  0.00  0.00    +0.155 HD
BRANCH  24  27
ATOM     27  C   UNL     1      31.973 -22.855 -17.134  0.00  0.00    +0.064 C 
ATOM     28  C   UNL     1      32.972 -23.361 -16.317  0.00  0.00    +0.055 C 
ATOM     29  C   UNL     1      30.636 -23.125 -16.889  0.00  0.00    +0.016 C 
ATOM     30  C   UNL     1      32.624 -24.160 -15.228  0.00  0.00    +0.015 C 
ATOM     31  C   UNL     1      30.289 -23.924 -15.800  0.00  0.00    +0.001 C 
ATOM     32  C   UNL     1      31.283 -24.442 -14.970  0.00  0.00    +0.001 C 
BRANCH  28  33
ATOM     33  N   UNL     1      34.336 -23.088 -16.559  0.00  0.00    -0.356 N 
ATOM     34  H   UNL     1      34.620 -22.734 -17.433  0.00  0.00    +0.142 HD
ATOM     35  H   UNL     1      35.004 -23.251 -15.854  0.00  0.00    +0.142 HD
ENDBRANCH  28  33
ENDBRANCH  24  27
ENDBRANCH  22  25
ENDBRANCH   4  21
TORSDOF 7
ENDMDL
MODEL 8
REMARK VINA RESULT:     -10.3      3.148     12.648
REMARK  Name = 15985904
REMARK  7 active torsions:
REMARK  status: ('A' for Active; 'I' for Inactive)
REMARK    1  A    between atoms: N_1  and  S_6
REMARK    2  A    between atoms: C_4  and  C_21
REMARK    3  A    between atoms: S_6  and  C_9
REMARK    4  A    between atoms: C_10  and  C_17
REMARK    5  A    between atoms: C_22  and  C_25
REMARK    6  A    between atoms: N_24  and  C_27
REMARK    7  A    between atoms: C_28  and  N_33
REMARK                            x       y       z     vdW  Elec       q    Type
REMARK                         _______ _______ _______ _____ _____    ______ ____
ROOT
ATOM      1  N   UNL     1      33.897 -12.411 -25.477  0.00  0.00    -0.167 N 
ATOM      2  C   UNL     1      33.944 -13.741 -25.554  0.00  0.00    +0.089 C 
ATOM      3  C   UNL     1      33.834 -11.936 -24.233  0.00  0.00    +0.089 C 
ATOM      4  C   UNL     1      33.910 -14.187 -24.251  0.00  0.00    +0.018 C 
ATOM      5  C   UNL     1      33.840 -13.045 -23.415  0.00  0.00    +0.019 C 
ENDROOT
BRANCH   1   6
ATOM      6  S   UNL     1      33.916 -11.388 -26.871  0.00  0.00    +0.080 S 
ATOM      7  O   UNL     1      32.785 -11.872 -27.642  0.00  0.00    -0.149 OA
ATOM      8  O   UNL     1      35.276 -11.429 -27.374  0.00  0.00    -0.149 OA
BRANCH   6   9
ATOM      9  C   UNL     1      33.602  -9.777 -26.276  0.00  0.00    +0.126 C 
ATOM     10  C   UNL     1      33.100  -7.202 -25.327  0.00  0.00    +0.003 C 
ATOM     11  C   UNL     1      32.301  -9.274 -26.280  0.00  0.00    +0.020 C 
ATOM     12  C   UNL     1      34.652  -8.993 -25.796  0.00  0.00    +0.020 C 
ATOM     13  C   UNL     1      32.051  -7.986 -25.806  0.00  0.00    +0.001 C 
ATOM     14  C   UNL     1      34.401  -7.706 -25.322  0.00  0.00    +0.001 C 
BRANCH  10  17
ATOM     15  N   UNL     1      32.518  -3.723 -24.797  0.00  0.00    -0.208 N 
ATOM     16  N   UNL     1      32.403  -4.081 -23.507  0.00  0.00    -0.176 NA
ATOM     17  C   UNL     1      32.842  -5.877 -24.839  0.00  0.00    +0.037 C 
ATOM     18  C   UNL     1      32.780  -4.765 -25.638  0.00  0.00    +0.086 C 
ATOM     19  C   UNL     1      32.603  -5.401 -23.540  0.00  0.00    +0.119 C 
ATOM     20  C   UNL     1      32.361  -2.338 -25.173  0.00  0.00    +0.140 C 
ENDBRANCH  10  17
ENDBRANCH   6   9
ENDBRANCH   1   6
BRANCH   4  21
ATOM     21  C   UNL     1      33.941 -15.541 -23.857  0.00  0.00    +0.006 C 
ATOM     22  C   UNL     1      34.816 -16.513 -24.240  0.00  0.00    +0.058 C 
BRANCH  22  25
ATOM     23  O   UNL     1      34.346 -18.835 -24.444  0.00  0.00    -0.270 OA
ATOM     24  N   UNL     1      35.056 -17.975 -22.379  0.00  0.00    -0.279 N 
ATOM     25  C   UNL     1      34.706 -17.913 -23.721  0.00  0.00    +0.250 C 
ATOM     26  H   UNL     1      35.322 -17.124 -21.957  0.00  0.00    +0.155 HD
BRANCH  24  27
ATOM     27  C   UNL     1      35.075 -19.121 -21.547  0.00  0.00    +0.064 C 
ATOM     28  C   UNL     1      36.269 -19.582 -21.016  0.00  0.00    +0.055 C 
ATOM     29  C   UNL     1      33.874 -19.760 -21.282  0.00  0.00    +0.016 C 
ATOM     30  C   UNL     1      36.262 -20.713 -20.200  0.00  0.00    +0.015 C 
ATOM     31  C   UNL     1      33.867 -20.891 -20.466  0.00  0.00    +0.001 C 
ATOM     32  C   UNL     1      35.061 -21.368 -19.925  0.00  0.00    +0.001 C 
BRANCH  28  33
ATOM     33  N   UNL     1      37.496 -18.935 -21.280  0.00  0.00    -0.356 N 
ATOM     34  H   UNL     1      38.343 -19.429 -21.185  0.00  0.00    +0.142 HD
ATOM     35  H   UNL     1      37.506 -17.991 -21.559  0.00  0.00    +0.142 HD
ENDBRANCH  28  33
ENDBRANCH  24  27
ENDBRANCH  22  25
ENDBRANCH   4  21
TORSDOF 7
ENDMDL
MODEL 9
REMARK VINA RESULT:     -10.0      2.285     11.399
REMARK  Name = 15985904
REMARK  7 active torsions:
REMARK  status: ('A' for Active; 'I' for Inactive)
REMARK    1  A    between atoms: N_1  and  S_6
REMARK    2  A    between atoms: C_4  and  C_21
REMARK    3  A    between atoms: S_6  and  C_9
REMARK    4  A    between atoms: C_10  and  C_17
REMARK    5  A    between atoms: C_22  and  C_25
REMARK    6  A    between atoms: N_24  and  C_27
REMARK    7  A    between atoms: C_28  and  N_33
REMARK                            x       y       z     vdW  Elec       q    Type
REMARK                         _______ _______ _______ _____ _____    ______ ____
ROOT
ATOM      1  N   UNL     1      34.948 -18.032 -23.173  0.00  0.00    -0.167 N 
ATOM      2  C   UNL     1      34.124 -18.950 -22.668  0.00  0.00    +0.089 C 
ATOM      3  C   UNL     1      36.137 -17.973 -22.573  0.00  0.00    +0.089 C 
ATOM      4  C   UNL     1      34.826 -19.553 -21.648  0.00  0.00    +0.018 C 
ATOM      5  C   UNL     1      36.099 -18.935 -21.587  0.00  0.00    +0.019 C 
ENDROOT
BRANCH   1   6
ATOM      6  S   UNL     1      34.511 -17.003 -24.492  0.00  0.00    +0.080 S 
ATOM      7  O   UNL     1      33.461 -17.755 -25.155  0.00  0.00    -0.149 OA
ATOM      8  O   UNL     1      35.756 -16.656 -25.153  0.00  0.00    -0.149 OA
BRANCH   6   9
ATOM      9  C   UNL     1      33.857 -15.557 -23.764  0.00  0.00    +0.126 C 
ATOM     10  C   UNL     1      32.813 -13.247 -22.601  0.00  0.00    +0.003 C 
ATOM     11  C   UNL     1      33.093 -14.676 -24.529  0.00  0.00    +0.020 C 
ATOM     12  C   UNL     1      34.099 -15.283 -22.418  0.00  0.00    +0.020 C 
ATOM     13  C   UNL     1      32.571 -13.521 -23.948  0.00  0.00    +0.001 C 
ATOM     14  C   UNL     1      33.577 -14.128 -21.837  0.00  0.00    +0.001 C 
BRANCH  10  17
ATOM     15  N   UNL     1      31.675  -9.981 -21.724  0.00  0.00    -0.208 N 
ATOM     16  N   UNL     1      31.303 -10.572 -20.576  0.00  0.00    -0.176 NA
ATOM     17  C   UNL     1      32.276 -12.057 -22.003  0.00  0.00    +0.037 C 
ATOM     18  C   UNL     1      32.263 -10.830 -22.615  0.00  0.00    +0.086 C 
ATOM     19  C   UNL     1      31.674 -11.842 -20.754  0.00  0.00    +0.119 C 
ATOM     20  C   UNL     1      31.434  -8.571 -21.916  0.00  0.00    +0.140 C 
ENDBRANCH  10  17
ENDBRANCH   6   9
ENDBRANCH   1   6
BRANCH   4  21
ATOM     21  C   UNL     1      34.335 -20.594 -20.832  0.00  0.00    +0.006 C 
ATOM     22  C   UNL     1      35.043 -21.538 -20.148  0.00  0.00    +0.058 C 
BRANCH  22  25
ATOM     23  O   UNL     1      33.783 -23.531 -19.839  0.00  0.00    -0.270 OA
ATOM     24  N   UNL     1      34.481 -22.300 -17.966  0.00  0.00    -0.279 N 
ATOM     25  C   UNL     1      34.358 -22.580 -19.320  0.00  0.00    +0.250 C 
ATOM     26  H   UNL     1      34.982 -21.485 -17.732  0.00  0.00    +0.155 HD
BRANCH  24  27
ATOM     27  C   UNL     1      33.967 -23.054 -16.882  0.00  0.00    +0.064 C 
ATOM     28  C   UNL     1      32.599 -23.222 -16.732  0.00  0.00    +0.055 C 
ATOM     29  C   UNL     1      34.864 -23.613 -15.986  0.00  0.00    +0.016 C 
ATOM     30  C   UNL     1      32.117 -23.968 -15.657  0.00  0.00    +0.015 C 
ATOM     31  C   UNL     1      34.381 -24.359 -14.911  0.00  0.00    +0.001 C 
ATOM     32  C   UNL     1      33.008 -24.536 -14.746  0.00  0.00    +0.001 C 
BRANCH  28  33
ATOM     33  N   UNL     1      31.679 -22.657 -17.642  0.00  0.00    -0.356 N 
ATOM     34  H   UNL     1      31.792 -21.725 -17.941  0.00  0.00    +0.142 HD
ATOM     35  H   UNL     1      30.926 -23.193 -17.978  0.00  0.00    +0.142 HD
ENDBRANCH  28  33
ENDBRANCH  24  27
ENDBRANCH  22  25
ENDBRANCH   4  21
TORSDOF 7
ENDMDL
