MODEL 1
REMARK VINA RESULT:     -11.9      0.000      0.000
REMARK  Name = 9865515
REMARK  6 active torsions:
REMARK  status: ('A' for Active; 'I' for Inactive)
REMARK    1  A    between atoms: C_1  and  C_20
REMARK    2  A    between atoms: C_2  and  C_9
REMARK    3  A    between atoms: N_8  and  C_11
REMARK    4  A    between atoms: C_12  and  N_17
REMARK    5  A    between atoms: C_20  and  N_21
REMARK    6  A    between atoms: C_25  and  C_30
REMARK                            x       y       z     vdW  Elec       q    Type
REMARK                         _______ _______ _______ _____ _____    ______ ____
ROOT
ATOM      1  C   UNL     1      33.604 -14.681 -24.551  0.00  0.00    -0.002 C 
ATOM      2  C   UNL     1      34.699 -16.925 -23.308  0.00  0.00    +0.054 C 
ATOM      3  C   UNL     1      34.046 -14.601 -23.231  0.00  0.00    -0.002 C 
ATOM      4  C   UNL     1      33.710 -15.883 -25.250  0.00  0.00    -0.002 C 
ATOM      5  C   UNL     1      34.592 -15.723 -22.608  0.00  0.00    +0.004 C 
ATOM      6  C   UNL     1      34.257 -17.005 -24.629  0.00  0.00    +0.004 C 
ENDROOT
BRANCH   2   9
ATOM      7  O   UNL     1      36.436 -18.422 -22.918  0.00  0.00    -0.270 OA
ATOM      8  N   UNL     1      34.429 -18.758 -21.751  0.00  0.00    -0.279 N 
ATOM      9  C   UNL     1      35.267 -18.096 -22.658  0.00  0.00    +0.250 C 
ATOM     10  H   UNL     1      33.525 -18.382 -21.650  0.00  0.00    +0.155 HD
BRANCH   8  11
ATOM     11  C   UNL     1      34.713 -19.900 -20.960  0.00  0.00    +0.064 C 
ATOM     12  C   UNL     1      33.684 -20.700 -20.492  0.00  0.00    +0.055 C 
ATOM     13  C   UNL     1      36.038 -20.186 -20.672  0.00  0.00    +0.016 C 
ATOM     14  C   UNL     1      33.989 -21.818 -19.715  0.00  0.00    +0.015 C 
ATOM     15  C   UNL     1      36.342 -21.303 -19.896  0.00  0.00    +0.001 C 
ATOM     16  C   UNL     1      35.318 -22.120 -19.417  0.00  0.00    +0.001 C 
BRANCH  12  17
ATOM     17  N   UNL     1      32.332 -20.415 -20.783  0.00  0.00    -0.356 N 
ATOM     18  H   UNL     1      31.759 -19.996 -20.101  0.00  0.00    +0.142 HD
ATOM     19  H   UNL     1      31.962 -20.635 -21.669  0.00  0.00    +0.142 HD
ENDBRANCH  12  17
ENDBRANCH   8  11
ENDBRANCH   2   9
BRANCH   1  20
ATOM     20  C   UNL     1      33.020 -13.480 -25.218  0.00  0.00    +0.124 C 
BRANCH  20  21
ATOM     21  N   UNL     1      34.045 -12.718 -25.899  0.00  0.00    -0.264 N 
ATOM     22  N   UNL     1      33.644 -10.806 -24.598  0.00  0.00    -0.338 NA
ATOM     23  N   UNL     1      35.337 -10.804 -26.312  0.00  0.00    -0.170 NA
ATOM     24  C   UNL     1      34.351 -11.403 -25.594  0.00  0.00    +0.145 C 
ATOM     25  C   UNL     1      33.968  -9.526 -24.327  0.00  0.00    +0.147 C 
ATOM     26  C   UNL     1      34.952  -8.826 -24.996  0.00  0.00    +0.055 C 
ATOM     27  C   UNL     1      35.610  -9.522 -25.989  0.00  0.00    +0.114 C 
ATOM     28  H   UNL     1      34.551 -13.159 -26.619  0.00  0.00    +0.160 HD
BRANCH  25  30
ATOM     29  N   UNL     1      31.355  -9.030 -21.717  0.00  0.00    -0.242 NA
ATOM     30  C   UNL     1      33.206  -8.910 -23.267  0.00  0.00    +0.050 C 
ATOM     31  C   UNL     1      33.548  -7.656 -22.772  0.00  0.00    +0.006 C 
ATOM     32  C   UNL     1      32.110  -9.550 -22.709  0.00  0.00    +0.101 C 
ATOM     33  C   UNL     1      32.794  -7.088 -21.751  0.00  0.00    +0.021 C 
ATOM     34  C   UNL     1      31.717  -7.810 -21.262  0.00  0.00    +0.099 C 
ENDBRANCH  25  30
ENDBRANCH  20  21
ENDBRANCH   1  20
TORSDOF 6
ENDMDL
MODEL 2
REMARK VINA RESULT:     -11.8      0.613      1.579
REMARK  Name = 9865515
REMARK  6 active torsions:
REMARK  status: ('A' for Active; 'I' for Inactive)
REMARK    1  A    between atoms: C_1  and  C_20
REMARK    2  A    between atoms: C_2  and  C_9
REMARK    3  A    between atoms: N_8  and  C_11
REMARK    4  A    between atoms: C_12  and  N_17
REMARK    5  A    between atoms: C_20  and  N_21
REMARK    6  A    between atoms: C_25  and  C_30
REMARK                            x       y       z     vdW  Elec       q    Type
REMARK                         _______ _______ _______ _____ _____    ______ ____
ROOT
ATOM      1  C   UNL     1      33.619 -14.607 -24.613  0.00  0.00    -0.002 C 
ATOM      2  C   UNL     1      34.671 -16.941 -23.506  0.00  0.00    +0.054 C 
ATOM      3  C   UNL     1      33.621 -15.789 -25.352  0.00  0.00    -0.002 C 
ATOM      4  C   UNL     1      34.142 -14.591 -23.320  0.00  0.00    -0.002 C 
ATOM      5  C   UNL     1      34.148 -16.956 -24.799  0.00  0.00    +0.004 C 
ATOM      6  C   UNL     1      34.668 -15.758 -22.767  0.00  0.00    +0.004 C 
ENDROOT
BRANCH   2   9
ATOM      7  O   UNL     1      36.177 -18.714 -23.497  0.00  0.00    -0.270 OA
ATOM      8  N   UNL     1      34.627 -18.595 -21.739  0.00  0.00    -0.279 N 
ATOM      9  C   UNL     1      35.222 -18.158 -22.930  0.00  0.00    +0.250 C 
ATOM     10  H   UNL     1      33.877 -18.049 -21.410  0.00  0.00    +0.155 HD
BRANCH   8  11
ATOM     11  C   UNL     1      34.964 -19.720 -20.946  0.00  0.00    +0.064 C 
ATOM     12  C   UNL     1      36.266 -19.902 -20.508  0.00  0.00    +0.055 C 
ATOM     13  C   UNL     1      33.964 -20.624 -20.629  0.00  0.00    +0.016 C 
ATOM     14  C   UNL     1      36.575 -21.018 -19.730  0.00  0.00    +0.015 C 
ATOM     15  C   UNL     1      34.272 -21.739 -19.851  0.00  0.00    +0.001 C 
ATOM     16  C   UNL     1      35.578 -21.937 -19.401  0.00  0.00    +0.001 C 
BRANCH  12  17
ATOM     17  N   UNL     1      37.290 -18.984 -20.828  0.00  0.00    -0.356 N 
ATOM     18  H   UNL     1      37.890 -18.649 -20.123  0.00  0.00    +0.142 HD
ATOM     19  H   UNL     1      37.406 -18.678 -21.757  0.00  0.00    +0.142 HD
ENDBRANCH  12  17
ENDBRANCH   8  11
ENDBRANCH   2   9
BRANCH   1  20
ATOM     20  C   UNL     1      33.054 -13.358 -25.203  0.00  0.00    +0.124 C 
BRANCH  20  21
ATOM     21  N   UNL     1      34.085 -12.586 -25.863  0.00  0.00    -0.264 N 
ATOM     22  N   UNL     1      33.673 -10.695 -24.536  0.00  0.00    -0.338 NA
ATOM     23  N   UNL     1      35.383 -10.667 -26.233  0.00  0.00    -0.170 NA
ATOM     24  C   UNL     1      34.389 -11.276 -25.534  0.00  0.00    +0.145 C 
ATOM     25  C   UNL     1      33.996  -9.419 -24.242  0.00  0.00    +0.147 C 
ATOM     26  C   UNL     1      34.986  -8.709 -24.890  0.00  0.00    +0.055 C 
ATOM     27  C   UNL     1      35.653  -9.390 -25.887  0.00  0.00    +0.114 C 
ATOM     28  H   UNL     1      34.598 -13.016 -26.584  0.00  0.00    +0.160 HD
BRANCH  25  30
ATOM     29  N   UNL     1      31.366  -8.969 -21.639  0.00  0.00    -0.242 NA
ATOM     30  C   UNL     1      33.224  -8.820 -23.179  0.00  0.00    +0.050 C 
ATOM     31  C   UNL     1      33.553  -7.567 -22.670  0.00  0.00    +0.006 C 
ATOM     32  C   UNL     1      32.131  -9.474 -22.633  0.00  0.00    +0.101 C 
ATOM     33  C   UNL     1      32.791  -7.016 -21.647  0.00  0.00    +0.021 C 
ATOM     34  C   UNL     1      31.717  -7.751 -21.170  0.00  0.00    +0.099 C 
ENDBRANCH  25  30
ENDBRANCH  20  21
ENDBRANCH   1  20
TORSDOF 6
ENDMDL
MODEL 3
REMARK VINA RESULT:     -11.5      4.218     12.771
REMARK  Name = 9865515
REMARK  6 active torsions:
REMARK  status: ('A' for Active; 'I' for Inactive)
REMARK    1  A    between atoms: C_1  and  C_20
REMARK    2  A    between atoms: C_2  and  C_9
REMARK    3  A    between atoms: N_8  and  C_11
REMARK    4  A    between atoms: C_12  and  N_17
REMARK    5  A    between atoms: C_20  and  N_21
REMARK    6  A    between atoms: C_25  and  C_30
REMARK                            x       y       z     vdW  Elec       q    Type
REMARK                         _______ _______ _______ _____ _____    ______ ____
ROOT
ATOM      1  C   UNL     1      35.373 -21.096 -19.900  0.00  0.00    -0.002 C 
ATOM      2  C   UNL     1      34.915 -19.214 -21.906  0.00  0.00    +0.054 C 
ATOM      3  C   UNL     1      34.084 -20.910 -20.401  0.00  0.00    -0.002 C 
ATOM      4  C   UNL     1      36.432 -20.342 -20.402  0.00  0.00    -0.002 C 
ATOM      5  C   UNL     1      33.855 -19.968 -21.403  0.00  0.00    +0.004 C 
ATOM      6  C   UNL     1      36.203 -19.400 -21.405  0.00  0.00    +0.004 C 
ENDROOT
BRANCH   2   9
ATOM      7  O   UNL     1      34.561 -18.613 -24.126  0.00  0.00    -0.270 OA
ATOM      8  N   UNL     1      34.568 -16.899 -22.523  0.00  0.00    -0.279 N 
ATOM      9  C   UNL     1      34.676 -18.230 -22.951  0.00  0.00    +0.250 C 
ATOM     10  H   UNL     1      34.683 -16.749 -21.558  0.00  0.00    +0.155 HD
BRANCH   8  11
ATOM     11  C   UNL     1      34.314 -15.742 -23.302  0.00  0.00    +0.064 C 
ATOM     12  C   UNL     1      34.195 -14.503 -22.694  0.00  0.00    +0.055 C 
ATOM     13  C   UNL     1      34.190 -15.887 -24.674  0.00  0.00    +0.016 C 
ATOM     14  C   UNL     1      33.946 -13.378 -23.480  0.00  0.00    +0.015 C 
ATOM     15  C   UNL     1      33.940 -14.763 -25.460  0.00  0.00    +0.001 C 
ATOM     16  C   UNL     1      33.818 -13.508 -24.863  0.00  0.00    +0.001 C 
BRANCH  12  17
ATOM     17  N   UNL     1      34.322 -14.348 -21.296  0.00  0.00    -0.356 N 
ATOM     18  H   UNL     1      33.561 -14.018 -20.765  0.00  0.00    +0.142 HD
ATOM     19  H   UNL     1      35.172 -14.571 -20.850  0.00  0.00    +0.142 HD
ENDBRANCH  12  17
ENDBRANCH   8  11
ENDBRANCH   2   9
BRANCH   1  20
ATOM     20  C   UNL     1      35.618 -22.105 -18.828  0.00  0.00    +0.124 C 
BRANCH  20  21
ATOM     21  N   UNL     1      34.392 -22.427 -18.130  0.00  0.00    -0.264 N 
ATOM     22  N   UNL     1      35.534 -23.551 -16.415  0.00  0.00    -0.338 NA
ATOM     23  N   UNL     1      33.131 -23.371 -16.391  0.00  0.00    -0.170 NA
ATOM     24  C   UNL     1      34.352 -23.138 -16.943  0.00  0.00    +0.145 C 
ATOM     25  C   UNL     1      35.457 -24.241 -15.259  0.00  0.00    +0.147 C 
ATOM     26  C   UNL     1      34.270 -24.532 -14.617  0.00  0.00    +0.055 C 
ATOM     27  C   UNL     1      33.128 -24.067 -15.235  0.00  0.00    +0.114 C 
ATOM     28  H   UNL     1      33.542 -22.123 -18.520  0.00  0.00    +0.160 HD
BRANCH  25  30
ATOM     29  N   UNL     1      39.136 -24.685 -14.863  0.00  0.00    -0.242 NA
ATOM     30  C   UNL     1      36.723 -24.670 -14.714  0.00  0.00    +0.050 C 
ATOM     31  C   UNL     1      36.783 -25.453 -13.566  0.00  0.00    +0.006 C 
ATOM     32  C   UNL     1      37.919 -24.316 -15.319  0.00  0.00    +0.101 C 
ATOM     33  C   UNL     1      38.017 -25.852 -13.066  0.00  0.00    +0.021 C 
ATOM     34  C   UNL     1      39.154 -25.445 -13.745  0.00  0.00    +0.099 C 
ENDBRANCH  25  30
ENDBRANCH  20  21
ENDBRANCH   1  20
TORSDOF 6
ENDMDL
MODEL 4
REMARK VINA RESULT:     -11.5      4.556     12.960
REMARK  Name = 9865515
REMARK  6 active torsions:
REMARK  status: ('A' for Active; 'I' for Inactive)
REMARK    1  A    between atoms: C_1  and  C_20
REMARK    2  A    between atoms: C_2  and  C_9
REMARK    3  A    between atoms: N_8  and  C_11
REMARK    4  A    between atoms: C_12  and  N_17
REMARK    5  A    between atoms: C_20  and  N_21
REMARK    6  A    between atoms: C_25  and  C_30
REMARK                            x       y       z     vdW  Elec       q    Type
REMARK                         _______ _______ _______ _____ _____    ______ ____
ROOT
ATOM      1  C   UNL     1      34.210 -22.294 -19.271  0.00  0.00    -0.002 C 
ATOM      2  C   UNL     1      34.966 -20.108 -20.830  0.00  0.00    +0.054 C 
ATOM      3  C   UNL     1      33.237 -21.492 -19.867  0.00  0.00    -0.002 C 
ATOM      4  C   UNL     1      35.562 -22.003 -19.455  0.00  0.00    -0.002 C 
ATOM      5  C   UNL     1      33.615 -20.398 -20.646  0.00  0.00    +0.004 C 
ATOM      6  C   UNL     1      35.940 -20.910 -20.235  0.00  0.00    +0.004 C 
ENDROOT
BRANCH   2   9
ATOM      7  O   UNL     1      36.568 -18.743 -21.822  0.00  0.00    -0.270 OA
ATOM      8  N   UNL     1      34.312 -18.210 -22.183  0.00  0.00    -0.279 N 
ATOM      9  C   UNL     1      35.361 -18.966 -21.641  0.00  0.00    +0.250 C 
ATOM     10  H   UNL     1      33.404 -18.509 -21.950  0.00  0.00    +0.155 HD
BRANCH   8  11
ATOM     11  C   UNL     1      34.390 -17.071 -23.022  0.00  0.00    +0.064 C 
ATOM     12  C   UNL     1      34.278 -17.206 -24.397  0.00  0.00    +0.055 C 
ATOM     13  C   UNL     1      34.580 -15.832 -22.433  0.00  0.00    +0.016 C 
ATOM     14  C   UNL     1      34.358 -16.070 -25.203  0.00  0.00    +0.015 C 
ATOM     15  C   UNL     1      34.660 -14.697 -23.238  0.00  0.00    +0.001 C 
ATOM     16  C   UNL     1      34.549 -14.816 -24.624  0.00  0.00    +0.001 C 
BRANCH  12  17
ATOM     17  N   UNL     1      34.083 -18.466 -25.004  0.00  0.00    -0.356 N 
ATOM     18  H   UNL     1      34.700 -18.775 -25.707  0.00  0.00    +0.142 HD
ATOM     19  H   UNL     1      33.331 -19.037 -24.724  0.00  0.00    +0.142 HD
ENDBRANCH  12  17
ENDBRANCH   8  11
ENDBRANCH   2   9
BRANCH   1  20
ATOM     20  C   UNL     1      33.807 -23.464 -18.439  0.00  0.00    +0.124 C 
BRANCH  20  21
ATOM     21  N   UNL     1      32.672 -23.137 -17.602  0.00  0.00    -0.264 N 
ATOM     22  N   UNL     1      33.721 -23.953 -15.668  0.00  0.00    -0.338 NA
ATOM     23  N   UNL     1      31.502 -23.021 -15.572  0.00  0.00    -0.170 NA
ATOM     24  C   UNL     1      32.631 -23.378 -16.240  0.00  0.00    +0.145 C 
ATOM     25  C   UNL     1      33.647 -24.173 -14.340  0.00  0.00    +0.147 C 
ATOM     26  C   UNL     1      32.549 -23.849 -13.569  0.00  0.00    +0.055 C 
ATOM     27  C   UNL     1      31.495 -23.270 -14.245  0.00  0.00    +0.114 C 
ATOM     28  H   UNL     1      31.887 -22.721 -18.026  0.00  0.00    +0.160 HD
BRANCH  25  30
ATOM     29  N   UNL     1      36.053 -25.385 -11.765  0.00  0.00    -0.242 NA
ATOM     30  C   UNL     1      34.815 -24.785 -13.753  0.00  0.00    +0.050 C 
ATOM     31  C   UNL     1      35.808 -25.348 -14.549  0.00  0.00    +0.006 C 
ATOM     32  C   UNL     1      34.984 -24.830 -12.378  0.00  0.00    +0.101 C 
ATOM     33  C   UNL     1      36.922 -25.929 -13.954  0.00  0.00    +0.021 C 
ATOM     34  C   UNL     1      36.997 -25.922 -12.570  0.00  0.00    +0.099 C 
ENDBRANCH  25  30
ENDBRANCH  20  21
ENDBRANCH   1  20
TORSDOF 6
ENDMDL
MODEL 5
REMARK VINA RESULT:     -11.4      4.001     12.462
REMARK  Name = 9865515
REMARK  6 active torsions:
REMARK  status: ('A' for Active; 'I' for Inactive)
REMARK    1  A    between atoms: C_1  and  C_20
REMARK    2  A    between atoms: C_2  and  C_9
REMARK    3  A    between atoms: N_8  and  C_11
REMARK    4  A    between atoms: C_12  and  N_17
REMARK    5  A    between atoms: C_20  and  N_21
REMARK    6  A    between atoms: C_25  and  C_30
REMARK                            x       y       z     vdW  Elec       q    Type
REMARK                         _______ _______ _______ _____ _____    ______ ____
ROOT
ATOM      1  C   UNL     1      34.688 -21.317 -19.959  0.00  0.00    -0.002 C 
ATOM      2  C   UNL     1      35.101 -19.119 -21.626  0.00  0.00    +0.054 C 
ATOM      3  C   UNL     1      35.982 -20.852 -20.192  0.00  0.00    -0.002 C 
ATOM      4  C   UNL     1      33.600 -20.684 -20.559  0.00  0.00    -0.002 C 
ATOM      5  C   UNL     1      36.189 -19.753 -21.026  0.00  0.00    +0.004 C 
ATOM      6  C   UNL     1      33.807 -19.585 -21.393  0.00  0.00    +0.004 C 
ENDROOT
BRANCH   2   9
ATOM      7  O   UNL     1      36.371 -17.903 -23.149  0.00  0.00    -0.270 OA
ATOM      8  N   UNL     1      34.274 -17.039 -22.548  0.00  0.00    -0.279 N 
ATOM      9  C   UNL     1      35.316 -17.975 -22.498  0.00  0.00    +0.250 C 
ATOM     10  H   UNL     1      33.498 -17.232 -21.974  0.00  0.00    +0.155 HD
BRANCH   8  11
ATOM     11  C   UNL     1      34.192 -15.852 -23.318  0.00  0.00    +0.064 C 
ATOM     12  C   UNL     1      34.272 -14.614 -22.703  0.00  0.00    +0.055 C 
ATOM     13  C   UNL     1      34.029 -15.968 -24.689  0.00  0.00    +0.016 C 
ATOM     14  C   UNL     1      34.188 -13.459 -23.481  0.00  0.00    +0.015 C 
ATOM     15  C   UNL     1      33.945 -14.814 -25.466  0.00  0.00    +0.001 C 
ATOM     16  C   UNL     1      34.024 -13.558 -24.863  0.00  0.00    +0.001 C 
BRANCH  12  17
ATOM     17  N   UNL     1      34.439 -14.489 -21.306  0.00  0.00    -0.356 N 
ATOM     18  H   UNL     1      34.252 -15.255 -20.717  0.00  0.00    +0.142 HD
ATOM     19  H   UNL     1      34.744 -13.635 -20.921  0.00  0.00    +0.142 HD
ENDBRANCH  12  17
ENDBRANCH   8  11
ENDBRANCH   2   9
BRANCH   1  20
ATOM     20  C   UNL     1      34.466 -22.492 -19.066  0.00  0.00    +0.124 C 
BRANCH  20  21
ATOM     21  N   UNL     1      33.072 -22.603 -18.695  0.00  0.00    -0.264 N 
ATOM     22  N   UNL     1      33.589 -23.486 -16.583  0.00  0.00    -0.338 NA
ATOM     23  N   UNL     1      31.301 -23.143 -17.254  0.00  0.00    -0.170 NA
ATOM     24  C   UNL     1      32.641 -23.093 -17.474  0.00  0.00    +0.145 C 
ATOM     25  C   UNL     1      33.135 -23.957 -15.404  0.00  0.00    +0.147 C 
ATOM     26  C   UNL     1      31.796 -24.051 -15.081  0.00  0.00    +0.055 C 
ATOM     27  C   UNL     1      30.915 -23.625 -16.054  0.00  0.00    +0.114 C 
ATOM     28  H   UNL     1      32.393 -22.315 -19.347  0.00  0.00    +0.160 HD
BRANCH  25  30
ATOM     29  N   UNL     1      34.903 -24.573 -12.182  0.00  0.00    -0.242 NA
ATOM     30  C   UNL     1      34.157 -24.370 -14.472  0.00  0.00    +0.050 C 
ATOM     31  C   UNL     1      35.346 -24.940 -14.917  0.00  0.00    +0.006 C 
ATOM     32  C   UNL     1      33.987 -24.210 -13.107  0.00  0.00    +0.101 C 
ATOM     33  C   UNL     1      36.312 -25.327 -13.996  0.00  0.00    +0.021 C 
ATOM     34  C   UNL     1      36.045 -25.123 -12.651  0.00  0.00    +0.099 C 
ENDBRANCH  25  30
ENDBRANCH  20  21
ENDBRANCH   1  20
TORSDOF 6
ENDMDL
MODEL 6
REMARK VINA RESULT:     -11.2      4.071     12.130
REMARK  Name = 9865515
REMARK  6 active torsions:
REMARK  status: ('A' for Active; 'I' for Inactive)
REMARK    1  A    between atoms: C_1  and  C_20
REMARK    2  A    between atoms: C_2  and  C_9
REMARK    3  A    between atoms: N_8  and  C_11
REMARK    4  A    between atoms: C_12  and  N_17
REMARK    5  A    between atoms: C_20  and  N_21
REMARK    6  A    between atoms: C_25  and  C_30
REMARK                            x       y       z     vdW  Elec       q    Type
REMARK                         _______ _______ _______ _____ _____    ______ ____
ROOT
ATOM      1  C   UNL     1      34.982 -21.168 -19.964  0.00  0.00    -0.002 C 
ATOM      2  C   UNL     1      35.248 -18.999 -21.698  0.00  0.00    +0.054 C 
ATOM      3  C   UNL     1      33.854 -20.621 -20.574  0.00  0.00    -0.002 C 
ATOM      4  C   UNL     1      36.244 -20.631 -20.221  0.00  0.00    -0.002 C 
ATOM      5  C   UNL     1      33.987 -19.536 -21.441  0.00  0.00    +0.004 C 
ATOM      6  C   UNL     1      36.377 -19.547 -21.088  0.00  0.00    +0.004 C 
ENDROOT
BRANCH   2   9
ATOM      7  O   UNL     1      36.392 -17.790 -23.323  0.00  0.00    -0.270 OA
ATOM      8  N   UNL     1      34.329 -16.946 -22.591  0.00  0.00    -0.279 N 
ATOM      9  C   UNL     1      35.386 -17.866 -22.600  0.00  0.00    +0.250 C 
ATOM     10  H   UNL     1      33.599 -17.139 -21.961  0.00  0.00    +0.155 HD
BRANCH   8  11
ATOM     11  C   UNL     1      34.177 -15.772 -23.370  0.00  0.00    +0.064 C 
ATOM     12  C   UNL     1      34.224 -14.524 -22.771  0.00  0.00    +0.055 C 
ATOM     13  C   UNL     1      33.979 -15.910 -24.735  0.00  0.00    +0.016 C 
ATOM     14  C   UNL     1      34.071 -13.382 -23.559  0.00  0.00    +0.015 C 
ATOM     15  C   UNL     1      33.826 -14.770 -25.522  0.00  0.00    +0.001 C 
ATOM     16  C   UNL     1      33.872 -13.505 -24.934  0.00  0.00    +0.001 C 
BRANCH  12  17
ATOM     17  N   UNL     1      34.427 -14.376 -21.382  0.00  0.00    -0.356 N 
ATOM     18  H   UNL     1      33.972 -13.653 -20.892  0.00  0.00    +0.142 HD
ATOM     19  H   UNL     1      35.022 -14.997 -20.901  0.00  0.00    +0.142 HD
ENDBRANCH  12  17
ENDBRANCH   8  11
ENDBRANCH   2   9
BRANCH   1  20
ATOM     20  C   UNL     1      34.841 -22.330 -19.038  0.00  0.00    +0.124 C 
BRANCH  20  21
ATOM     21  N   UNL     1      35.912 -22.349 -18.066  0.00  0.00    -0.264 N 
ATOM     22  N   UNL     1      34.486 -23.066 -16.345  0.00  0.00    -0.338 NA
ATOM     23  N   UNL     1      36.829 -22.685 -15.932  0.00  0.00    -0.170 NA
ATOM     24  C   UNL     1      35.736 -22.711 -16.741  0.00  0.00    +0.145 C 
ATOM     25  C   UNL     1      34.351 -23.413 -15.049  0.00  0.00    +0.147 C 
ATOM     26  C   UNL     1      35.394 -23.420 -14.145  0.00  0.00    +0.055 C 
ATOM     27  C   UNL     1      36.622 -23.044 -14.647  0.00  0.00    +0.114 C 
ATOM     28  H   UNL     1      36.815 -22.090 -18.362  0.00  0.00    +0.160 HD
BRANCH  25  30
ATOM     29  N   UNL     1      31.571 -25.285 -13.420  0.00  0.00    -0.242 NA
ATOM     30  C   UNL     1      33.015 -23.786 -14.649  0.00  0.00    +0.050 C 
ATOM     31  C   UNL     1      31.908 -23.059 -15.075  0.00  0.00    +0.006 C 
ATOM     32  C   UNL     1      32.794 -24.881 -13.830  0.00  0.00    +0.101 C 
ATOM     33  C   UNL     1      30.634 -23.443 -14.675  0.00  0.00    +0.021 C 
ATOM     34  C   UNL     1      30.520 -24.554 -13.854  0.00  0.00    +0.099 C 
ENDBRANCH  25  30
ENDBRANCH  20  21
ENDBRANCH   1  20
TORSDOF 6
ENDMDL
MODEL 7
REMARK VINA RESULT:     -11.0      3.075     11.761
REMARK  Name = 9865515
REMARK  6 active torsions:
REMARK  status: ('A' for Active; 'I' for Inactive)
REMARK    1  A    between atoms: C_1  and  C_20
REMARK    2  A    between atoms: C_2  and  C_9
REMARK    3  A    between atoms: N_8  and  C_11
REMARK    4  A    between atoms: C_12  and  N_17
REMARK    5  A    between atoms: C_20  and  N_21
REMARK    6  A    between atoms: C_25  and  C_30
REMARK                            x       y       z     vdW  Elec       q    Type
REMARK                         _______ _______ _______ _____ _____    ______ ____
ROOT
ATOM      1  C   UNL     1      34.899 -19.782 -21.501  0.00  0.00    -0.002 C 
ATOM      2  C   UNL     1      34.749 -17.688 -23.338  0.00  0.00    +0.054 C 
ATOM      3  C   UNL     1      34.286 -19.982 -22.738  0.00  0.00    -0.002 C 
ATOM      4  C   UNL     1      35.437 -18.536 -21.183  0.00  0.00    -0.002 C 
ATOM      5  C   UNL     1      34.210 -18.935 -23.656  0.00  0.00    +0.004 C 
ATOM      6  C   UNL     1      35.363 -17.489 -22.101  0.00  0.00    +0.004 C 
ENDROOT
BRANCH   2   9
ATOM      7  O   UNL     1      35.033 -16.790 -25.465  0.00  0.00    -0.270 OA
ATOM      8  N   UNL     1      34.148 -15.390 -23.803  0.00  0.00    -0.279 N 
ATOM      9  C   UNL     1      34.669 -16.595 -24.294  0.00  0.00    +0.250 C 
ATOM     10  H   UNL     1      33.903 -15.387 -22.850  0.00  0.00    +0.155 HD
BRANCH   8  11
ATOM     11  C   UNL     1      33.930 -14.175 -24.500  0.00  0.00    +0.064 C 
ATOM     12  C   UNL     1      34.083 -12.961 -23.852  0.00  0.00    +0.055 C 
ATOM     13  C   UNL     1      33.562 -14.240 -25.834  0.00  0.00    +0.016 C 
ATOM     14  C   UNL     1      33.862 -11.778 -24.559  0.00  0.00    +0.015 C 
ATOM     15  C   UNL     1      33.342 -13.058 -26.540  0.00  0.00    +0.001 C 
ATOM     16  C   UNL     1      33.491 -11.826 -25.902  0.00  0.00    +0.001 C 
BRANCH  12  17
ATOM     17  N   UNL     1      34.459 -12.888 -22.493  0.00  0.00    -0.356 N 
ATOM     18  H   UNL     1      33.828 -12.531 -21.826  0.00  0.00    +0.142 HD
ATOM     19  H   UNL     1      35.351 -13.194 -22.211  0.00  0.00    +0.142 HD
ENDBRANCH  12  17
ENDBRANCH   8  11
ENDBRANCH   2   9
BRANCH   1  20
ATOM     20  C   UNL     1      34.981 -20.903 -20.519  0.00  0.00    +0.124 C 
BRANCH  20  21
ATOM     21  N   UNL     1      33.663 -21.292 -20.068  0.00  0.00    -0.264 N 
ATOM     22  N   UNL     1      34.516 -22.414 -18.191  0.00  0.00    -0.338 NA
ATOM     23  N   UNL     1      32.145 -22.332 -18.612  0.00  0.00    -0.170 NA
ATOM     24  C   UNL     1      33.435 -22.035 -18.922  0.00  0.00    +0.145 C 
ATOM     25  C   UNL     1      34.258 -23.136 -17.082  0.00  0.00    +0.147 C 
ATOM     26  C   UNL     1      32.987 -23.492 -16.678  0.00  0.00    +0.055 C 
ATOM     27  C   UNL     1      31.959 -23.058 -17.489  0.00  0.00    +0.114 C 
ATOM     28  H   UNL     1      32.886 -21.013 -20.604  0.00  0.00    +0.160 HD
BRANCH  25  30
ATOM     29  N   UNL     1      36.433 -25.046 -14.736  0.00  0.00    -0.242 NA
ATOM     30  C   UNL     1      35.419 -23.528 -16.320  0.00  0.00    +0.050 C 
ATOM     31  C   UNL     1      36.610 -22.814 -16.408  0.00  0.00    +0.006 C 
ATOM     32  C   UNL     1      35.384 -24.627 -15.477  0.00  0.00    +0.101 C 
ATOM     33  C   UNL     1      37.712 -23.215 -15.661  0.00  0.00    +0.021 C 
ATOM     34  C   UNL     1      37.573 -24.328 -14.847  0.00  0.00    +0.099 C 
ENDBRANCH  25  30
ENDBRANCH  20  21
ENDBRANCH   1  20
TORSDOF 6
ENDMDL
MODEL 8
REMARK VINA RESULT:     -11.0      1.582      3.244
REMARK  Name = 9865515
REMARK  6 active torsions:
REMARK  status: ('A' for Active; 'I' for Inactive)
REMARK    1  A    between atoms: C_1  and  C_20
REMARK    2  A    between atoms: C_2  and  C_9
REMARK    3  A    between atoms: N_8  and  C_11
REMARK    4  A    between atoms: C_12  and  N_17
REMARK    5  A    between atoms: C_20  and  N_21
REMARK    6  A    between atoms: C_25  and  C_30
REMARK                            x       y       z     vdW  Elec       q    Type
REMARK                         _______ _______ _______ _____ _____    ______ ____
ROOT
ATOM      1  C   UNL     1      33.876 -13.753 -23.645  0.00  0.00    -0.002 C 
ATOM      2  C   UNL     1      34.654 -16.367 -23.057  0.00  0.00    +0.054 C 
ATOM      3  C   UNL     1      33.923 -14.712 -24.657  0.00  0.00    -0.002 C 
ATOM      4  C   UNL     1      34.218 -14.102 -22.339  0.00  0.00    -0.002 C 
ATOM      5  C   UNL     1      34.313 -16.018 -24.364  0.00  0.00    +0.004 C 
ATOM      6  C   UNL     1      34.607 -15.408 -22.045  0.00  0.00    +0.004 C 
ENDROOT
BRANCH   2   9
ATOM      7  O   UNL     1      35.755 -18.350 -23.574  0.00  0.00    -0.270 OA
ATOM      8  N   UNL     1      34.650 -18.227 -21.508  0.00  0.00    -0.279 N 
ATOM      9  C   UNL     1      35.063 -17.729 -22.752  0.00  0.00    +0.250 C 
ATOM     10  H   UNL     1      34.103 -17.617 -20.963  0.00  0.00    +0.155 HD
BRANCH   8  11
ATOM     11  C   UNL     1      34.915 -19.496 -20.935  0.00  0.00    +0.064 C 
ATOM     12  C   UNL     1      36.208 -19.847 -20.583  0.00  0.00    +0.055 C 
ATOM     13  C   UNL     1      33.853 -20.364 -20.741  0.00  0.00    +0.016 C 
ATOM     14  C   UNL     1      36.445 -21.102 -20.021  0.00  0.00    +0.015 C 
ATOM     15  C   UNL     1      34.091 -21.618 -20.179  0.00  0.00    +0.001 C 
ATOM     16  C   UNL     1      35.387 -21.987 -19.819  0.00  0.00    +0.001 C 
BRANCH  12  17
ATOM     17  N   UNL     1      37.294 -18.966 -20.777  0.00  0.00    -0.356 N 
ATOM     18  H   UNL     1      37.721 -18.532 -20.003  0.00  0.00    +0.142 HD
ATOM     19  H   UNL     1      37.626 -18.785 -21.687  0.00  0.00    +0.142 HD
ENDBRANCH  12  17
ENDBRANCH   8  11
ENDBRANCH   2   9
BRANCH   1  20
ATOM     20  C   UNL     1      33.458 -12.356 -23.958  0.00  0.00    +0.124 C 
BRANCH  20  21
ATOM     21  N   UNL     1      32.584 -11.835 -22.929  0.00  0.00    -0.264 N 
ATOM     22  N   UNL     1      33.053  -9.608 -23.503  0.00  0.00    -0.338 NA
ATOM     23  N   UNL     1      31.536 -10.129 -21.705  0.00  0.00    -0.170 NA
ATOM     24  C   UNL     1      32.385 -10.483 -22.706  0.00  0.00    +0.145 C 
ATOM     25  C   UNL     1      32.836  -8.300 -23.259  0.00  0.00    +0.147 C 
ATOM     26  C   UNL     1      31.995  -7.834 -22.268  0.00  0.00    +0.055 C 
ATOM     27  C   UNL     1      31.365  -8.804 -21.515  0.00  0.00    +0.114 C 
ATOM     28  H   UNL     1      32.105 -12.477 -22.357  0.00  0.00    +0.160 HD
BRANCH  25  30
ATOM     29  N   UNL     1      35.276  -7.035 -25.775  0.00  0.00    -0.242 NA
ATOM     30  C   UNL     1      33.554  -7.387 -24.117  0.00  0.00    +0.050 C 
ATOM     31  C   UNL     1      33.251  -6.029 -24.132  0.00  0.00    +0.006 C 
ATOM     32  C   UNL     1      34.566  -7.835 -24.950  0.00  0.00    +0.101 C 
ATOM     33  C   UNL     1      33.961  -5.174 -24.968  0.00  0.00    +0.021 C 
ATOM     34  C   UNL     1      34.955  -5.722 -25.763  0.00  0.00    +0.099 C 
ENDBRANCH  25  30
ENDBRANCH  20  21
ENDBRANCH   1  20
TORSDOF 6
ENDMDL
MODEL 9
REMARK VINA RESULT:     -10.7      4.067     12.270
REMARK  Name = 9865515
REMARK  6 active torsions:
REMARK  status: ('A' for Active; 'I' for Inactive)
REMARK    1  A    between atoms: C_1  and  C_20
REMARK    2  A    between atoms: C_2  and  C_9
REMARK    3  A    between atoms: N_8  and  C_11
REMARK    4  A    between atoms: C_12  and  N_17
REMARK    5  A    between atoms: C_20  and  N_21
REMARK    6  A    between atoms: C_25  and  C_30
REMARK                            x       y       z     vdW  Elec       q    Type
REMARK                         _______ _______ _______ _____ _____    ______ ____
ROOT
ATOM      1  C   UNL     1      34.487 -21.627 -19.883  0.00  0.00    -0.002 C 
ATOM      2  C   UNL     1      35.043 -19.373 -21.428  0.00  0.00    +0.054 C 
ATOM      3  C   UNL     1      35.808 -21.232 -20.091  0.00  0.00    -0.002 C 
ATOM      4  C   UNL     1      33.443 -20.894 -20.447  0.00  0.00    -0.002 C 
ATOM      5  C   UNL     1      36.086 -20.106 -20.864  0.00  0.00    +0.004 C 
ATOM      6  C   UNL     1      33.721 -19.767 -21.220  0.00  0.00    +0.004 C 
ENDROOT
BRANCH   2   9
ATOM      7  O   UNL     1      36.458 -18.082 -22.748  0.00  0.00    -0.270 OA
ATOM      8  N   UNL     1      34.279 -17.289 -22.394  0.00  0.00    -0.279 N 
ATOM      9  C   UNL     1      35.333 -18.199 -22.237  0.00  0.00    +0.250 C 
ATOM     10  H   UNL     1      33.443 -17.517 -21.927  0.00  0.00    +0.155 HD
BRANCH   8  11
ATOM     11  C   UNL     1      34.259 -16.083 -23.138  0.00  0.00    +0.064 C 
ATOM     12  C   UNL     1      34.295 -14.860 -22.488  0.00  0.00    +0.055 C 
ATOM     13  C   UNL     1      34.203 -16.164 -24.520  0.00  0.00    +0.016 C 
ATOM     14  C   UNL     1      34.275 -13.686 -23.242  0.00  0.00    +0.015 C 
ATOM     15  C   UNL     1      34.182 -14.990 -25.273  0.00  0.00    +0.001 C 
ATOM     16  C   UNL     1      34.218 -13.751 -24.634  0.00  0.00    +0.001 C 
BRANCH  12  17
ATOM     17  N   UNL     1      34.354 -14.770 -21.080  0.00  0.00    -0.356 N 
ATOM     18  H   UNL     1      33.820 -14.092 -20.607  0.00  0.00    +0.142 HD
ATOM     19  H   UNL     1      34.929 -15.387 -20.571  0.00  0.00    +0.142 HD
ENDBRANCH  12  17
ENDBRANCH   8  11
ENDBRANCH   2   9
BRANCH   1  20
ATOM     20  C   UNL     1      34.188 -22.831 -19.054  0.00  0.00    +0.124 C 
BRANCH  20  21
ATOM     21  N   UNL     1      34.952 -22.815 -17.825  0.00  0.00    -0.264 N 
ATOM     22  N   UNL     1      33.116 -23.519 -16.544  0.00  0.00    -0.338 NA
ATOM     23  N   UNL     1      35.253 -23.097 -15.515  0.00  0.00    -0.170 NA
ATOM     24  C   UNL     1      34.424 -23.154 -16.591  0.00  0.00    +0.145 C 
ATOM     25  C   UNL     1      32.634 -23.843 -15.327  0.00  0.00    +0.147 C 
ATOM     26  C   UNL     1      33.389 -23.817 -14.172  0.00  0.00    +0.055 C 
ATOM     27  C   UNL     1      34.705 -23.433 -14.328  0.00  0.00    +0.114 C 
ATOM     28  H   UNL     1      35.899 -22.549 -17.869  0.00  0.00    +0.160 HD
BRANCH  25  30
ATOM     29  N   UNL     1      28.989 -23.884 -16.102  0.00  0.00    -0.242 NA
ATOM     30  C   UNL     1      31.243 -24.228 -15.300  0.00  0.00    +0.050 C 
ATOM     31  C   UNL     1      30.802 -25.267 -14.486  0.00  0.00    +0.006 C 
ATOM     32  C   UNL     1      30.304 -23.575 -16.082  0.00  0.00    +0.101 C 
ATOM     33  C   UNL     1      29.456 -25.615 -14.480  0.00  0.00    +0.021 C 
ATOM     34  C   UNL     1      28.598 -24.899 -15.299  0.00  0.00    +0.099 C 
ENDBRANCH  25  30
ENDBRANCH  20  21
ENDBRANCH   1  20
TORSDOF 6
ENDMDL
