MODEL 1
REMARK VINA RESULT:     -13.1      0.000      0.000
REMARK  Name = 9800765
REMARK  5 active torsions:
REMARK  status: ('A' for Active; 'I' for Inactive)
REMARK    1  A    between atoms: C_3  and  C_17
REMARK    2  A    between atoms: C_5  and  N_8
REMARK    3  A    between atoms: N_8  and  C_14
REMARK    4  A    between atoms: C_17  and  C_20
REMARK    5  A    between atoms: C_23  and  C_26
REMARK                            x       y       z     vdW  Elec       q    Type
REMARK                         _______ _______ _______ _____ _____    ______ ____
ROOT
ATOM      1  O   UNL     1      36.349 -22.780 -16.089  0.00  0.00    -0.337 OA
ATOM      2  N   UNL     1      35.655 -22.785 -17.292  0.00  0.00    -0.079 NA
ATOM      3  C   UNL     1      34.399 -23.100 -16.966  0.00  0.00    +0.106 C 
ATOM      4  C   UNL     1      34.242 -23.304 -15.584  0.00  0.00    +0.076 C 
ATOM      5  C   UNL     1      35.494 -23.090 -15.088  0.00  0.00    +0.252 C 
ENDROOT
BRANCH   3   6
ATOM      6  C   UNL     1      33.370 -23.196 -18.014  0.00  0.00    +0.066 C 
ATOM      7  C   UNL     1      31.921 -23.169 -17.471  0.00  0.00    +0.011 C 
BRANCH   6   9
ATOM      8  F   UNL     1      36.559 -20.676 -20.680  0.00  0.00    -0.204 F 
ATOM      9  C   UNL     1      33.683 -22.124 -19.063  0.00  0.00    -0.015 C 
ATOM     10  C   UNL     1      34.997 -21.892 -19.392  0.00  0.00    +0.026 C 
ATOM     11  C   UNL     1      32.637 -21.437 -19.634  0.00  0.00    -0.004 C 
ATOM     12  C   UNL     1      34.245 -20.201 -20.945  0.00  0.00    +0.027 C 
ATOM     13  C   UNL     1      35.282 -20.916 -20.348  0.00  0.00    +0.140 C 
ATOM     14  C   UNL     1      32.922 -20.462 -20.588  0.00  0.00    +0.002 C 
BRANCH  12  15
ATOM     15  C   UNL     1      34.535 -19.189 -21.938  0.00  0.00    +0.002 C 
ATOM     16  C   UNL     1      34.296 -19.449 -23.288  0.00  0.00    +0.000 C 
ATOM     17  C   UNL     1      35.053 -17.955 -21.546  0.00  0.00    +0.000 C 
ATOM     18  C   UNL     1      34.574 -18.474 -24.245  0.00  0.00    +0.000 C 
ATOM     19  C   UNL     1      35.331 -16.980 -22.504  0.00  0.00    +0.000 C 
ATOM     20  C   UNL     1      35.093 -17.239 -23.854  0.00  0.00    +0.000 C 
ENDBRANCH  12  15
ENDBRANCH   6   9
ENDBRANCH   3   6
BRANCH   5  21
ATOM     21  N   UNL     1      35.933 -23.151 -13.800  0.00  0.00    -0.147 NA
BRANCH  21  29
ATOM     22  O   UNL     1      38.911 -26.822 -14.737  0.00  0.00    -0.350 OA
ATOM     23  N   UNL     1      37.004 -25.175 -13.513  0.00  0.00    -0.277 N 
ATOM     24  N   UNL     1      35.095 -24.885 -12.337  0.00  0.00    -0.373 N 
ATOM     25  C   UNL     1      36.846 -26.627 -13.481  0.00  0.00    +0.125 C 
ATOM     26  C   UNL     1      38.379 -24.708 -13.674  0.00  0.00    +0.125 C 
ATOM     27  C   UNL     1      37.544 -27.237 -14.690  0.00  0.00    +0.164 C 
ATOM     28  C   UNL     1      39.009 -25.402 -14.875  0.00  0.00    +0.164 C 
ATOM     29  C   UNL     1      35.985 -24.332 -13.235  0.00  0.00    +0.182 C 
ATOM     30  H   UNL     1      35.250 -25.791 -11.985  0.00  0.00    +0.158 HD
ATOM     31  H   UNL     1      34.304 -24.374 -12.049  0.00  0.00    +0.158 HD
ENDBRANCH  21  29
ENDBRANCH   5  21
TORSDOF 5
ENDMDL
MODEL 2
REMARK VINA RESULT:     -12.8      0.954      1.308
REMARK  Name = 9800765
REMARK  5 active torsions:
REMARK  status: ('A' for Active; 'I' for Inactive)
REMARK    1  A    between atoms: C_3  and  C_17
REMARK    2  A    between atoms: C_5  and  N_8
REMARK    3  A    between atoms: N_8  and  C_14
REMARK    4  A    between atoms: C_17  and  C_20
REMARK    5  A    between atoms: C_23  and  C_26
REMARK                            x       y       z     vdW  Elec       q    Type
REMARK                         _______ _______ _______ _____ _____    ______ ____
ROOT
ATOM      1  O   UNL     1      36.816 -22.684 -16.172  0.00  0.00    -0.337 OA
ATOM      2  N   UNL     1      36.093 -22.802 -17.352  0.00  0.00    -0.079 NA
ATOM      3  C   UNL     1      34.835 -23.028 -16.966  0.00  0.00    +0.106 C 
ATOM      4  C   UNL     1      34.704 -23.063 -15.567  0.00  0.00    +0.076 C 
ATOM      5  C   UNL     1      35.975 -22.842 -15.125  0.00  0.00    +0.252 C 
ENDROOT
BRANCH   3   6
ATOM      6  C   UNL     1      33.778 -23.205 -17.975  0.00  0.00    +0.066 C 
ATOM      7  C   UNL     1      32.349 -23.251 -17.381  0.00  0.00    +0.011 C 
BRANCH   6   9
ATOM      8  F   UNL     1      32.014 -19.986 -21.162  0.00  0.00    -0.204 F 
ATOM      9  C   UNL     1      33.991 -22.139 -19.055  0.00  0.00    -0.015 C 
ATOM     10  C   UNL     1      32.888 -21.546 -19.619  0.00  0.00    +0.026 C 
ATOM     11  C   UNL     1      35.279 -21.819 -19.417  0.00  0.00    -0.004 C 
ATOM     12  C   UNL     1      34.374 -20.227 -20.992  0.00  0.00    +0.027 C 
ATOM     13  C   UNL     1      33.081 -20.575 -20.602  0.00  0.00    +0.140 C 
ATOM     14  C   UNL     1      35.473 -20.849 -20.399  0.00  0.00    +0.002 C 
BRANCH  12  15
ATOM     15  C   UNL     1      34.581 -19.219 -22.010  0.00  0.00    +0.002 C 
ATOM     16  C   UNL     1      34.228 -19.485 -23.334  0.00  0.00    +0.000 C 
ATOM     17  C   UNL     1      35.130 -17.984 -21.668  0.00  0.00    +0.000 C 
ATOM     18  C   UNL     1      34.426 -18.514 -24.315  0.00  0.00    +0.000 C 
ATOM     19  C   UNL     1      35.328 -17.014 -22.651  0.00  0.00    +0.000 C 
ATOM     20  C   UNL     1      34.977 -17.278 -23.975  0.00  0.00    +0.000 C 
ENDBRANCH  12  15
ENDBRANCH   6   9
ENDBRANCH   3   6
BRANCH   5  21
ATOM     21  N   UNL     1      36.443 -22.770 -13.847  0.00  0.00    -0.147 NA
BRANCH  21  29
ATOM     22  O   UNL     1      38.459 -27.071 -14.656  0.00  0.00    -0.350 OA
ATOM     23  N   UNL     1      37.155 -24.923 -13.420  0.00  0.00    -0.277 N 
ATOM     24  N   UNL     1      35.588 -24.095 -12.015  0.00  0.00    -0.373 N 
ATOM     25  C   UNL     1      36.739 -26.293 -13.134  0.00  0.00    +0.125 C 
ATOM     26  C   UNL     1      38.537 -24.778 -13.869  0.00  0.00    +0.125 C 
ATOM     27  C   UNL     1      37.073 -27.180 -14.327  0.00  0.00    +0.164 C 
ATOM     28  C   UNL     1      38.791 -25.731 -15.030  0.00  0.00    +0.164 C 
ATOM     29  C   UNL     1      36.380 -23.856 -13.119  0.00  0.00    +0.182 C 
ATOM     30  H   UNL     1      35.635 -24.964 -11.553  0.00  0.00    +0.158 HD
ATOM     31  H   UNL     1      34.973 -23.398 -11.689  0.00  0.00    +0.158 HD
ENDBRANCH  21  29
ENDBRANCH   5  21
TORSDOF 5
ENDMDL
MODEL 3
REMARK VINA RESULT:     -12.1      1.520      2.110
REMARK  Name = 9800765
REMARK  5 active torsions:
REMARK  status: ('A' for Active; 'I' for Inactive)
REMARK    1  A    between atoms: C_3  and  C_17
REMARK    2  A    between atoms: C_5  and  N_8
REMARK    3  A    between atoms: N_8  and  C_14
REMARK    4  A    between atoms: C_17  and  C_20
REMARK    5  A    between atoms: C_23  and  C_26
REMARK                            x       y       z     vdW  Elec       q    Type
REMARK                         _______ _______ _______ _____ _____    ______ ____
ROOT
ATOM      1  O   UNL     1      37.149 -21.616 -17.071  0.00  0.00    -0.337 OA
ATOM      2  N   UNL     1      36.299 -21.519 -18.166  0.00  0.00    -0.079 NA
ATOM      3  C   UNL     1      35.327 -22.404 -17.928  0.00  0.00    +0.106 C 
ATOM      4  C   UNL     1      35.510 -23.081 -16.710  0.00  0.00    +0.076 C 
ATOM      5  C   UNL     1      36.664 -22.546 -16.219  0.00  0.00    +0.252 C 
ENDROOT
BRANCH   3   6
ATOM      6  C   UNL     1      34.233 -22.572 -18.898  0.00  0.00    +0.066 C 
ATOM      7  C   UNL     1      32.840 -22.741 -18.244  0.00  0.00    +0.011 C 
BRANCH   6   9
ATOM      8  F   UNL     1      36.884 -19.569 -21.651  0.00  0.00    -0.204 F 
ATOM      9  C   UNL     1      34.334 -21.423 -19.906  0.00  0.00    -0.015 C 
ATOM     10  C   UNL     1      35.581 -21.020 -20.319  0.00  0.00    +0.026 C 
ATOM     11  C   UNL     1      33.173 -20.840 -20.357  0.00  0.00    -0.004 C 
ATOM     12  C   UNL     1      34.516 -19.362 -21.715  0.00  0.00    +0.027 C 
ATOM     13  C   UNL     1      35.674 -19.975 -21.238  0.00  0.00    +0.140 C 
ATOM     14  C   UNL     1      33.265 -19.795 -21.275  0.00  0.00    +0.002 C 
BRANCH  12  15
ATOM     15  C   UNL     1      34.606 -18.277 -22.669  0.00  0.00    +0.002 C 
ATOM     16  C   UNL     1      34.376 -18.521 -24.024  0.00  0.00    +0.000 C 
ATOM     17  C   UNL     1      34.922 -16.990 -22.235  0.00  0.00    +0.000 C 
ATOM     18  C   UNL     1      34.462 -17.476 -24.944  0.00  0.00    +0.000 C 
ATOM     19  C   UNL     1      35.008 -15.946 -23.156  0.00  0.00    +0.000 C 
ATOM     20  C   UNL     1      34.779 -16.188 -24.511  0.00  0.00    +0.000 C 
ENDBRANCH  12  15
ENDBRANCH   6   9
ENDBRANCH   3   6
BRANCH   5  21
ATOM     21  N   UNL     1      37.321 -22.830 -15.060  0.00  0.00    -0.147 NA
BRANCH  21  29
ATOM     22  O   UNL     1      36.086 -25.927 -11.582  0.00  0.00    -0.350 OA
ATOM     23  N   UNL     1      37.133 -24.839 -13.941  0.00  0.00    -0.277 N 
ATOM     24  N   UNL     1      38.724 -24.738 -15.545  0.00  0.00    -0.373 N 
ATOM     25  C   UNL     1      37.855 -25.899 -13.241  0.00  0.00    +0.125 C 
ATOM     26  C   UNL     1      35.694 -24.807 -13.697  0.00  0.00    +0.125 C 
ATOM     27  C   UNL     1      37.503 -25.855 -11.759  0.00  0.00    +0.164 C 
ATOM     28  C   UNL     1      35.437 -24.811 -12.195  0.00  0.00    +0.164 C 
ATOM     29  C   UNL     1      37.722 -24.063 -14.879  0.00  0.00    +0.182 C 
ATOM     30  H   UNL     1      38.929 -25.673 -15.309  0.00  0.00    +0.158 HD
ATOM     31  H   UNL     1      39.235 -24.287 -16.255  0.00  0.00    +0.158 HD
ENDBRANCH  21  29
ENDBRANCH   5  21
TORSDOF 5
ENDMDL
MODEL 4
REMARK VINA RESULT:     -11.7      1.628      2.441
REMARK  Name = 9800765
REMARK  5 active torsions:
REMARK  status: ('A' for Active; 'I' for Inactive)
REMARK    1  A    between atoms: C_3  and  C_17
REMARK    2  A    between atoms: C_5  and  N_8
REMARK    3  A    between atoms: N_8  and  C_14
REMARK    4  A    between atoms: C_17  and  C_20
REMARK    5  A    between atoms: C_23  and  C_26
REMARK                            x       y       z     vdW  Elec       q    Type
REMARK                         _______ _______ _______ _____ _____    ______ ____
ROOT
ATOM      1  O   UNL     1      35.485 -23.427 -15.346  0.00  0.00    -0.337 OA
ATOM      2  N   UNL     1      34.452 -22.781 -16.013  0.00  0.00    -0.079 NA
ATOM      3  C   UNL     1      33.885 -23.725 -16.769  0.00  0.00    +0.106 C 
ATOM      4  C   UNL     1      34.512 -24.974 -16.622  0.00  0.00    +0.076 C 
ATOM      5  C   UNL     1      35.504 -24.726 -15.720  0.00  0.00    +0.252 C 
ENDROOT
BRANCH   3   6
ATOM      6  C   UNL     1      32.735 -23.389 -17.624  0.00  0.00    +0.066 C 
ATOM      7  C   UNL     1      31.489 -22.914 -16.837  0.00  0.00    +0.011 C 
BRANCH   6   9
ATOM      8  F   UNL     1      36.317 -21.511 -20.320  0.00  0.00    -0.204 F 
ATOM      9  C   UNL     1      33.230 -22.410 -18.694  0.00  0.00    -0.015 C 
ATOM     10  C   UNL     1      34.566 -22.412 -19.018  0.00  0.00    +0.026 C 
ATOM     11  C   UNL     1      32.319 -21.568 -19.287  0.00  0.00    -0.004 C 
ATOM     12  C   UNL     1      34.119 -20.654 -20.612  0.00  0.00    +0.027 C 
ATOM     13  C   UNL     1      35.017 -21.521 -19.992  0.00  0.00    +0.140 C 
ATOM     14  C   UNL     1      32.770 -20.677 -20.260  0.00  0.00    +0.002 C 
BRANCH  12  15
ATOM     15  C   UNL     1      34.581 -19.728 -21.625  0.00  0.00    +0.002 C 
ATOM     16  C   UNL     1      35.681 -18.908 -21.368  0.00  0.00    +0.000 C 
ATOM     17  C   UNL     1      33.930 -19.657 -22.855  0.00  0.00    +0.000 C 
ATOM     18  C   UNL     1      36.128 -18.017 -22.343  0.00  0.00    +0.000 C 
ATOM     19  C   UNL     1      34.378 -18.766 -23.831  0.00  0.00    +0.000 C 
ATOM     20  C   UNL     1      35.477 -17.945 -23.575  0.00  0.00    +0.000 C 
ENDBRANCH  12  15
ENDBRANCH   6   9
ENDBRANCH   3   6
BRANCH   5  21
ATOM     21  N   UNL     1      36.432 -25.579 -15.203  0.00  0.00    -0.147 NA
BRANCH  21  29
ATOM     22  O   UNL     1      36.444 -24.036 -10.638  0.00  0.00    -0.350 OA
ATOM     23  N   UNL     1      37.279 -24.840 -13.188  0.00  0.00    -0.277 N 
ATOM     24  N   UNL     1      38.658 -24.664 -14.971  0.00  0.00    -0.373 N 
ATOM     25  C   UNL     1      37.973 -23.754 -12.499  0.00  0.00    +0.125 C 
ATOM     26  C   UNL     1      36.590 -25.784 -12.313  0.00  0.00    +0.125 C 
ATOM     27  C   UNL     1      37.011 -23.075 -11.532  0.00  0.00    +0.164 C 
ATOM     28  C   UNL     1      35.689 -25.016 -11.354  0.00  0.00    +0.164 C 
ATOM     29  C   UNL     1      37.416 -25.056 -14.515  0.00  0.00    +0.182 C 
ATOM     30  H   UNL     1      39.314 -24.279 -14.345  0.00  0.00    +0.158 HD
ATOM     31  H   UNL     1      38.889 -24.767 -15.923  0.00  0.00    +0.158 HD
ENDBRANCH  21  29
ENDBRANCH   5  21
TORSDOF 5
ENDMDL
MODEL 5
REMARK VINA RESULT:     -11.6      3.788      6.952
REMARK  Name = 9800765
REMARK  5 active torsions:
REMARK  status: ('A' for Active; 'I' for Inactive)
REMARK    1  A    between atoms: C_3  and  C_17
REMARK    2  A    between atoms: C_5  and  N_8
REMARK    3  A    between atoms: N_8  and  C_14
REMARK    4  A    between atoms: C_17  and  C_20
REMARK    5  A    between atoms: C_23  and  C_26
REMARK                            x       y       z     vdW  Elec       q    Type
REMARK                         _______ _______ _______ _____ _____    ______ ____
ROOT
ATOM      1  O   UNL     1      35.852 -19.381 -20.770  0.00  0.00    -0.337 OA
ATOM      2  N   UNL     1      36.116 -18.614 -21.899  0.00  0.00    -0.079 NA
ATOM      3  C   UNL     1      35.108 -18.874 -22.736  0.00  0.00    +0.106 C 
ATOM      4  C   UNL     1      34.187 -19.788 -22.196  0.00  0.00    +0.076 C 
ATOM      5  C   UNL     1      34.705 -20.069 -20.966  0.00  0.00    +0.252 C 
ENDROOT
BRANCH   3   6
ATOM      6  C   UNL     1      35.062 -18.221 -24.054  0.00  0.00    +0.066 C 
ATOM      7  C   UNL     1      34.293 -19.031 -25.126  0.00  0.00    +0.011 C 
BRANCH   6   9
ATOM      8  F   UNL     1      34.533 -14.283 -21.255  0.00  0.00    -0.204 F 
ATOM      9  C   UNL     1      34.552 -16.792 -23.841  0.00  0.00    -0.015 C 
ATOM     10  C   UNL     1      34.781 -16.188 -22.628  0.00  0.00    +0.026 C 
ATOM     11  C   UNL     1      33.885 -16.171 -24.871  0.00  0.00    -0.004 C 
ATOM     12  C   UNL     1      33.637 -14.229 -23.457  0.00  0.00    +0.027 C 
ATOM     13  C   UNL     1      34.318 -14.887 -22.433  0.00  0.00    +0.140 C 
ATOM     14  C   UNL     1      33.421 -14.871 -24.676  0.00  0.00    +0.002 C 
BRANCH  12  15
ATOM     15  C   UNL     1      33.155 -12.878 -23.260  0.00  0.00    +0.002 C 
ATOM     16  C   UNL     1      32.159 -12.625 -22.316  0.00  0.00    +0.000 C 
ATOM     17  C   UNL     1      33.686 -11.831 -24.012  0.00  0.00    +0.000 C 
ATOM     18  C   UNL     1      31.695 -11.324 -22.125  0.00  0.00    +0.000 C 
ATOM     19  C   UNL     1      33.221 -10.530 -23.821  0.00  0.00    +0.000 C 
ATOM     20  C   UNL     1      32.225 -10.276 -22.878  0.00  0.00    +0.000 C 
ENDBRANCH  12  15
ENDBRANCH   6   9
ENDBRANCH   3   6
BRANCH   5  21
ATOM     21  N   UNL     1      34.226 -20.900 -19.998  0.00  0.00    -0.147 NA
BRANCH  21  29
ATOM     22  O   UNL     1      33.540 -23.665 -16.112  0.00  0.00    -0.350 OA
ATOM     23  N   UNL     1      34.679 -22.483 -18.381  0.00  0.00    -0.277 N 
ATOM     24  N   UNL     1      36.462 -21.684 -19.520  0.00  0.00    -0.373 N 
ATOM     25  C   UNL     1      35.519 -22.828 -17.237  0.00  0.00    +0.125 C 
ATOM     26  C   UNL     1      33.449 -23.262 -18.502  0.00  0.00    +0.125 C 
ATOM     27  C   UNL     1      34.675 -22.808 -15.969  0.00  0.00    +0.164 C 
ATOM     28  C   UNL     1      32.697 -23.222 -17.178  0.00  0.00    +0.164 C 
ATOM     29  C   UNL     1      35.094 -21.637 -19.351  0.00  0.00    +0.182 C 
ATOM     30  H   UNL     1      37.007 -22.287 -18.962  0.00  0.00    +0.158 HD
ATOM     31  H   UNL     1      36.896 -21.115 -20.196  0.00  0.00    +0.158 HD
ENDBRANCH  21  29
ENDBRANCH   5  21
TORSDOF 5
ENDMDL
MODEL 6
REMARK VINA RESULT:     -11.4      9.443     13.453
REMARK  Name = 9800765
REMARK  5 active torsions:
REMARK  status: ('A' for Active; 'I' for Inactive)
REMARK    1  A    between atoms: C_3  and  C_17
REMARK    2  A    between atoms: C_5  and  N_8
REMARK    3  A    between atoms: N_8  and  C_14
REMARK    4  A    between atoms: C_17  and  C_20
REMARK    5  A    between atoms: C_23  and  C_26
REMARK                            x       y       z     vdW  Elec       q    Type
REMARK                         _______ _______ _______ _____ _____    ______ ____
ROOT
ATOM      1  O   UNL     1      32.083 -13.405 -20.938  0.00  0.00    -0.337 OA
ATOM      2  N   UNL     1      31.541 -12.309 -20.279  0.00  0.00    -0.079 NA
ATOM      3  C   UNL     1      31.523 -11.332 -21.190  0.00  0.00    +0.106 C 
ATOM      4  C   UNL     1      32.036 -11.749 -22.430  0.00  0.00    +0.076 C 
ATOM      5  C   UNL     1      32.369 -13.053 -22.212  0.00  0.00    +0.252 C 
ENDROOT
BRANCH   3   6
ATOM      6  C   UNL     1      31.001 -10.004 -20.831  0.00  0.00    +0.066 C 
ATOM      7  C   UNL     1      31.155  -9.657 -19.329  0.00  0.00    +0.011 C 
BRANCH   6   9
ATOM      8  F   UNL     1      31.118  -7.753 -25.137  0.00  0.00    -0.204 F 
ATOM      9  C   UNL     1      31.629  -8.989 -21.792  0.00  0.00    -0.015 C 
ATOM     10  C   UNL     1      31.075  -8.837 -23.040  0.00  0.00    +0.026 C 
ATOM     11  C   UNL     1      32.723  -8.272 -21.367  0.00  0.00    -0.004 C 
ATOM     12  C   UNL     1      32.757  -7.170 -23.516  0.00  0.00    +0.027 C 
ATOM     13  C   UNL     1      31.647  -7.914 -23.915  0.00  0.00    +0.140 C 
ATOM     14  C   UNL     1      33.295  -7.349 -22.242  0.00  0.00    +0.002 C 
BRANCH  12  15
ATOM     15  C   UNL     1      33.353  -6.209 -24.419  0.00  0.00    +0.002 C 
ATOM     16  C   UNL     1      32.722  -4.986 -24.650  0.00  0.00    +0.000 C 
ATOM     17  C   UNL     1      34.557  -6.505 -25.058  0.00  0.00    +0.000 C 
ATOM     18  C   UNL     1      33.297  -4.060 -25.520  0.00  0.00    +0.000 C 
ATOM     19  C   UNL     1      35.131  -5.578 -25.928  0.00  0.00    +0.000 C 
ATOM     20  C   UNL     1      34.500  -4.355 -26.160  0.00  0.00    +0.000 C 
ENDBRANCH  12  15
ENDBRANCH   6   9
ENDBRANCH   3   6
BRANCH   5  21
ATOM     21  N   UNL     1      32.915 -13.959 -23.072  0.00  0.00    -0.147 NA
BRANCH  21  29
ATOM     22  O   UNL     1      34.626 -18.200 -24.591  0.00  0.00    -0.350 OA
ATOM     23  N   UNL     1      34.400 -15.706 -23.337  0.00  0.00    -0.277 N 
ATOM     24  N   UNL     1      34.800 -14.315 -21.599  0.00  0.00    -0.373 N 
ATOM     25  C   UNL     1      35.104 -16.798 -22.670  0.00  0.00    +0.125 C 
ATOM     26  C   UNL     1      34.354 -15.798 -24.793  0.00  0.00    +0.125 C 
ATOM     27  C   UNL     1      34.552 -18.130 -23.165  0.00  0.00    +0.164 C 
ATOM     28  C   UNL     1      33.835 -17.173 -25.195  0.00  0.00    +0.164 C 
ATOM     29  C   UNL     1      33.981 -14.605 -22.671  0.00  0.00    +0.182 C 
ATOM     30  H   UNL     1      35.577 -14.887 -21.403  0.00  0.00    +0.158 HD
ATOM     31  H   UNL     1      34.606 -13.536 -21.029  0.00  0.00    +0.158 HD
ENDBRANCH  21  29
ENDBRANCH   5  21
TORSDOF 5
ENDMDL
MODEL 7
REMARK VINA RESULT:     -11.2      5.807     11.286
REMARK  Name = 9800765
REMARK  5 active torsions:
REMARK  status: ('A' for Active; 'I' for Inactive)
REMARK    1  A    between atoms: C_3  and  C_17
REMARK    2  A    between atoms: C_5  and  N_8
REMARK    3  A    between atoms: N_8  and  C_14
REMARK    4  A    between atoms: C_17  and  C_20
REMARK    5  A    between atoms: C_23  and  C_26
REMARK                            x       y       z     vdW  Elec       q    Type
REMARK                         _______ _______ _______ _____ _____    ______ ____
ROOT
ATOM      1  O   UNL     1      34.938 -16.021 -21.818  0.00  0.00    -0.337 OA
ATOM      2  N   UNL     1      34.780 -17.395 -21.686  0.00  0.00    -0.079 NA
ATOM      3  C   UNL     1      34.508 -17.831 -22.918  0.00  0.00    +0.106 C 
ATOM      4  C   UNL     1      34.482 -16.788 -23.860  0.00  0.00    +0.076 C 
ATOM      5  C   UNL     1      34.758 -15.681 -23.114  0.00  0.00    +0.252 C 
ENDROOT
BRANCH   3   6
ATOM      6  C   UNL     1      34.278 -19.266 -23.155  0.00  0.00    +0.066 C 
ATOM      7  C   UNL     1      35.019 -19.820 -24.396  0.00  0.00    +0.011 C 
BRANCH   6   9
ATOM      8  F   UNL     1      32.782 -21.580 -19.151  0.00  0.00    -0.204 F 
ATOM      9  C   UNL     1      34.579 -20.000 -21.845  0.00  0.00    -0.015 C 
ATOM     10  C   UNL     1      33.525 -20.458 -21.091  0.00  0.00    +0.026 C 
ATOM     11  C   UNL     1      35.893 -20.173 -21.475  0.00  0.00    -0.004 C 
ATOM     12  C   UNL     1      35.120 -21.318 -19.494  0.00  0.00    +0.027 C 
ATOM     13  C   UNL     1      33.800 -21.127 -19.898  0.00  0.00    +0.140 C 
ATOM     14  C   UNL     1      36.167 -20.841 -20.283  0.00  0.00    +0.002 C 
BRANCH  12  15
ATOM     15  C   UNL     1      35.410 -22.013 -18.259  0.00  0.00    +0.002 C 
ATOM     16  C   UNL     1      36.682 -21.924 -17.692  0.00  0.00    +0.000 C 
ATOM     17  C   UNL     1      34.420 -22.771 -17.634  0.00  0.00    +0.000 C 
ATOM     18  C   UNL     1      36.962 -22.593 -16.500  0.00  0.00    +0.000 C 
ATOM     19  C   UNL     1      34.700 -23.439 -16.443  0.00  0.00    +0.000 C 
ATOM     20  C   UNL     1      35.972 -23.351 -15.875  0.00  0.00    +0.000 C 
ENDBRANCH  12  15
ENDBRANCH   6   9
ENDBRANCH   3   6
BRANCH   5  21
ATOM     21  N   UNL     1      34.862 -14.380 -23.507  0.00  0.00    -0.147 NA
BRANCH  21  29
ATOM     22  O   UNL     1      33.571 -10.245 -25.616  0.00  0.00    -0.350 OA
ATOM     23  N   UNL     1      33.560 -12.545 -24.018  0.00  0.00    -0.277 N 
ATOM     24  N   UNL     1      33.047 -13.626 -22.099  0.00  0.00    -0.373 N 
ATOM     25  C   UNL     1      32.982 -11.302 -23.514  0.00  0.00    +0.125 C 
ATOM     26  C   UNL     1      33.592 -12.666 -25.473  0.00  0.00    +0.125 C 
ATOM     27  C   UNL     1      33.660 -10.119 -24.195  0.00  0.00    +0.164 C 
ATOM     28  C   UNL     1      34.243 -11.424 -26.068  0.00  0.00    +0.164 C 
ATOM     29  C   UNL     1      33.874 -13.577 -23.203  0.00  0.00    +0.182 C 
ATOM     30  H   UNL     1      32.335 -12.954 -21.987  0.00  0.00    +0.158 HD
ATOM     31  H   UNL     1      33.168 -14.331 -21.423  0.00  0.00    +0.158 HD
ENDBRANCH  21  29
ENDBRANCH   5  21
TORSDOF 5
ENDMDL
MODEL 8
REMARK VINA RESULT:     -11.0      4.307      9.480
REMARK  Name = 9800765
REMARK  5 active torsions:
REMARK  status: ('A' for Active; 'I' for Inactive)
REMARK    1  A    between atoms: C_3  and  C_17
REMARK    2  A    between atoms: C_5  and  N_8
REMARK    3  A    between atoms: N_8  and  C_14
REMARK    4  A    between atoms: C_17  and  C_20
REMARK    5  A    between atoms: C_23  and  C_26
REMARK                            x       y       z     vdW  Elec       q    Type
REMARK                         _______ _______ _______ _____ _____    ______ ____
ROOT
ATOM      1  O   UNL     1      36.057 -19.479 -20.895  0.00  0.00    -0.337 OA
ATOM      2  N   UNL     1      36.680 -20.237 -19.911  0.00  0.00    -0.079 NA
ATOM      3  C   UNL     1      35.767 -21.136 -19.537  0.00  0.00    +0.106 C 
ATOM      4  C   UNL     1      34.559 -20.995 -20.242  0.00  0.00    +0.076 C 
ATOM      5  C   UNL     1      34.801 -19.944 -21.077  0.00  0.00    +0.252 C 
ENDROOT
BRANCH   3   6
ATOM      6  C   UNL     1      36.091 -22.121 -18.493  0.00  0.00    +0.066 C 
ATOM      7  C   UNL     1      37.157 -21.632 -17.482  0.00  0.00    +0.011 C 
BRANCH   6   9
ATOM      8  F   UNL     1      33.517 -23.609 -14.647  0.00  0.00    -0.204 F 
ATOM      9  C   UNL     1      34.770 -22.574 -17.863  0.00  0.00    -0.015 C 
ATOM     10  C   UNL     1      34.753 -22.888 -16.526  0.00  0.00    +0.026 C 
ATOM     11  C   UNL     1      33.653 -22.651 -18.663  0.00  0.00    -0.004 C 
ATOM     12  C   UNL     1      32.400 -23.388 -16.734  0.00  0.00    +0.027 C 
ATOM     13  C   UNL     1      33.551 -23.300 -15.952  0.00  0.00    +0.140 C 
ATOM     14  C   UNL     1      32.451 -23.063 -18.090  0.00  0.00    +0.002 C 
BRANCH  12  15
ATOM     15  C   UNL     1      31.149 -23.814 -16.144  0.00  0.00    +0.002 C 
ATOM     16  C   UNL     1      31.112 -24.950 -15.335  0.00  0.00    +0.000 C 
ATOM     17  C   UNL     1      29.982 -23.090 -16.383  0.00  0.00    +0.000 C 
ATOM     18  C   UNL     1      29.908 -25.361 -14.764  0.00  0.00    +0.000 C 
ATOM     19  C   UNL     1      28.777 -23.501 -15.812  0.00  0.00    +0.000 C 
ATOM     20  C   UNL     1      28.739 -24.637 -15.003  0.00  0.00    +0.000 C 
ENDBRANCH  12  15
ENDBRANCH   6   9
ENDBRANCH   3   6
BRANCH   5  21
ATOM     21  N   UNL     1      33.977 -19.365 -21.995  0.00  0.00    -0.147 NA
BRANCH  21  29
ATOM     22  O   UNL     1      34.503 -15.007 -23.982  0.00  0.00    -0.350 OA
ATOM     23  N   UNL     1      34.714 -17.753 -23.472  0.00  0.00    -0.277 N 
ATOM     24  N   UNL     1      34.873 -19.895 -24.176  0.00  0.00    -0.373 N 
ATOM     25  C   UNL     1      34.660 -17.266 -24.848  0.00  0.00    +0.125 C 
ATOM     26  C   UNL     1      35.212 -16.787 -22.495  0.00  0.00    +0.125 C 
ATOM     27  C   UNL     1      33.909 -15.941 -24.885  0.00  0.00    +0.164 C 
ATOM     28  C   UNL     1      34.436 -15.484 -22.635  0.00  0.00    +0.164 C 
ATOM     29  C   UNL     1      34.494 -19.049 -23.156  0.00  0.00    +0.182 C 
ATOM     30  H   UNL     1      35.252 -19.526 -25.008  0.00  0.00    +0.158 HD
ATOM     31  H   UNL     1      34.766 -20.869 -24.076  0.00  0.00    +0.158 HD
ENDBRANCH  21  29
ENDBRANCH   5  21
TORSDOF 5
ENDMDL
MODEL 9
REMARK VINA RESULT:     -11.0     10.036     14.631
REMARK  Name = 9800765
REMARK  5 active torsions:
REMARK  status: ('A' for Active; 'I' for Inactive)
REMARK    1  A    between atoms: C_3  and  C_17
REMARK    2  A    between atoms: C_5  and  N_8
REMARK    3  A    between atoms: N_8  and  C_14
REMARK    4  A    between atoms: C_17  and  C_20
REMARK    5  A    between atoms: C_23  and  C_26
REMARK                            x       y       z     vdW  Elec       q    Type
REMARK                         _______ _______ _______ _____ _____    ______ ____
ROOT
ATOM      1  O   UNL     1      35.936  -9.651 -25.408  0.00  0.00    -0.337 OA
ATOM      2  N   UNL     1      35.344 -10.754 -26.011  0.00  0.00    -0.079 NA
ATOM      3  C   UNL     1      34.091 -10.769 -25.549  0.00  0.00    +0.106 C 
ATOM      4  C   UNL     1      33.838  -9.711 -24.659  0.00  0.00    +0.076 C 
ATOM      5  C   UNL     1      35.027  -9.046 -24.611  0.00  0.00    +0.252 C 
ENDROOT
BRANCH   3   6
ATOM      6  C   UNL     1      33.159 -11.821 -25.987  0.00  0.00    +0.066 C 
ATOM      7  C   UNL     1      33.029 -11.939 -27.525  0.00  0.00    +0.011 C 
BRANCH   6   9
ATOM      8  F   UNL     1      34.625 -14.192 -22.004  0.00  0.00    -0.204 F 
ATOM      9  C   UNL     1      33.563 -13.116 -25.275  0.00  0.00    -0.015 C 
ATOM     10  C   UNL     1      33.913 -13.055 -23.948  0.00  0.00    +0.026 C 
ATOM     11  C   UNL     1      33.561 -14.289 -25.994  0.00  0.00    -0.004 C 
ATOM     12  C   UNL     1      34.289 -15.440 -24.000  0.00  0.00    +0.027 C 
ATOM     13  C   UNL     1      34.281 -14.234 -23.300  0.00  0.00    +0.140 C 
ATOM     14  C   UNL     1      33.929 -15.468 -25.347  0.00  0.00    +0.002 C 
BRANCH  12  15
ATOM     15  C   UNL     1      34.669 -16.667 -23.332  0.00  0.00    +0.002 C 
ATOM     16  C   UNL     1      34.694 -17.868 -24.043  0.00  0.00    +0.000 C 
ATOM     17  C   UNL     1      35.010 -16.649 -21.980  0.00  0.00    +0.000 C 
ATOM     18  C   UNL     1      35.060 -19.050 -23.400  0.00  0.00    +0.000 C 
ATOM     19  C   UNL     1      35.376 -17.832 -21.338  0.00  0.00    +0.000 C 
ATOM     20  C   UNL     1      35.401 -19.033 -22.047  0.00  0.00    +0.000 C 
ENDBRANCH  12  15
ENDBRANCH   6   9
ENDBRANCH   3   6
BRANCH   5  21
ATOM     21  N   UNL     1      35.364  -7.932 -23.903  0.00  0.00    -0.147 NA
BRANCH  21  29
ATOM     22  O   UNL     1      31.098  -7.547 -21.696  0.00  0.00    -0.350 OA
ATOM     23  N   UNL     1      33.447  -6.935 -23.094  0.00  0.00    -0.277 N 
ATOM     24  N   UNL     1      34.564  -5.792 -24.693  0.00  0.00    -0.373 N 
ATOM     25  C   UNL     1      32.193  -6.274 -23.446  0.00  0.00    +0.125 C 
ATOM     26  C   UNL     1      33.521  -7.427 -21.721  0.00  0.00    +0.125 C 
ATOM     27  C   UNL     1      31.025  -7.180 -23.076  0.00  0.00    +0.164 C 
ATOM     28  C   UNL     1      32.295  -8.282 -21.426  0.00  0.00    +0.164 C 
ATOM     29  C   UNL     1      34.521  -6.930 -23.915  0.00  0.00    +0.182 C 
ATOM     30  H   UNL     1      33.860  -5.108 -24.606  0.00  0.00    +0.158 HD
ATOM     31  H   UNL     1      35.297  -5.662 -25.338  0.00  0.00    +0.158 HD
ENDBRANCH  21  29
ENDBRANCH   5  21
TORSDOF 5
ENDMDL
