MODEL 1
REMARK VINA RESULT:     -11.9      0.000      0.000
REMARK  Name = 51039095
REMARK  7 active torsions:
REMARK  status: ('A' for Active; 'I' for Inactive)
REMARK    1  A    between atoms: C_5  and  C_16
REMARK    2  A    between atoms: C_6  and  C_27
REMARK    3  A    between atoms: C_11  and  N_17
REMARK    4  A    between atoms: C_27  and  C_28
REMARK    5  A    between atoms: C_28  and  C_29
REMARK    6  A    between atoms: C_32  and  O_35
REMARK    7  A    between atoms: C_33  and  O_37
REMARK                            x       y       z     vdW  Elec       q    Type
REMARK                         _______ _______ _______ _____ _____    ______ ____
ROOT
ATOM      1  O   UNL     1      33.784 -21.490 -20.060  0.00  0.00    -0.270 OA
ATOM      2  N   UNL     1      35.854 -20.392 -20.182  0.00  0.00    -0.265 N 
ATOM      3  N   UNL     1      36.156 -18.264 -22.909  0.00  0.00    -0.239 N 
ATOM      4  N   UNL     1      36.694 -18.805 -21.802  0.00  0.00    -0.166 NA
ATOM      5  C   UNL     1      34.918 -21.264 -19.609  0.00  0.00    +0.251 C 
ATOM      6  C   UNL     1      34.887 -18.693 -23.170  0.00  0.00    +0.046 C 
ATOM      7  C   UNL     1      35.724 -19.605 -21.352  0.00  0.00    +0.153 C 
ATOM      8  C   UNL     1      34.575 -19.575 -22.165  0.00  0.00    +0.048 C 
ATOM      9  H   UNL     1      36.714 -20.316 -19.709  0.00  0.00    +0.157 HD
ATOM     10  H   UNL     1      36.633 -17.617 -23.477  0.00  0.00    +0.174 HD
ENDROOT
BRANCH   5  16
ATOM     11  C   UNL     1      36.185 -23.297 -16.105  0.00  0.00    +0.048 C 
ATOM     12  C   UNL     1      34.886 -23.471 -16.581  0.00  0.00    +0.015 C 
ATOM     13  C   UNL     1      37.070 -22.456 -16.780  0.00  0.00    +0.015 C 
ATOM     14  C   UNL     1      34.470 -22.803 -17.732  0.00  0.00    +0.006 C 
ATOM     15  C   UNL     1      36.652 -21.788 -17.932  0.00  0.00    +0.006 C 
ATOM     16  C   UNL     1      35.354 -21.962 -18.409  0.00  0.00    +0.054 C 
BRANCH  11  17
ATOM     17  N   UNL     1      36.604 -23.966 -14.950  0.00  0.00    -0.312 N 
ATOM     18  N   UNL     1      37.540 -25.126 -12.520  0.00  0.00    +0.389 N 
ATOM     19  C   UNL     1      38.061 -25.596 -13.807  0.00  0.00    -0.042 C 
ATOM     20  C   UNL     1      36.136 -24.720 -12.648  0.00  0.00    -0.042 C 
ATOM     21  C   UNL     1      37.973 -24.488 -14.868  0.00  0.00    +0.069 C 
ATOM     22  C   UNL     1      35.991 -23.584 -13.670  0.00  0.00    +0.069 C 
ATOM     23  C   UNL     1      35.616 -24.282 -11.280  0.00  0.00    -0.022 C 
ATOM     24  C   UNL     1      39.509 -26.049 -13.625  0.00  0.00    -0.022 C 
ATOM     25  H   UNL     1      38.092 -24.327 -12.206  0.00  0.00    -0.084 HD
ATOM     26  H   UNL     1      37.602 -25.886 -11.843  0.00  0.00    -0.084 HD
ENDBRANCH  11  17
ENDBRANCH   5  16
BRANCH   6  27
ATOM     27  C   UNL     1      34.124 -18.218 -24.335  0.00  0.00    +0.047 C 
BRANCH  27  28
ATOM     28  C   UNL     1      34.777 -17.042 -25.103  0.00  0.00    +0.033 C 
BRANCH  28  29
ATOM     29  C   UNL     1      34.225 -15.696 -24.697  0.00  0.00    -0.016 C 
ATOM     30  C   UNL     1      34.130 -15.358 -23.347  0.00  0.00    +0.033 C 
ATOM     31  C   UNL     1      33.814 -14.789 -25.673  0.00  0.00    +0.033 C 
ATOM     32  C   UNL     1      33.305 -13.545 -25.300  0.00  0.00    +0.141 C 
ATOM     33  C   UNL     1      33.622 -14.115 -22.973  0.00  0.00    +0.141 C 
ATOM     34  C   UNL     1      33.209 -13.208 -23.949  0.00  0.00    +0.074 C 
BRANCH  32  35
ATOM     35  O   UNL     1      32.903 -12.659 -26.251  0.00  0.00    -0.471 OA
ATOM     36  C   UNL     1      33.877 -12.252 -27.211  0.00  0.00    +0.252 C 
ENDBRANCH  32  35
BRANCH  33  37
ATOM     37  O   UNL     1      33.529 -13.785 -21.656  0.00  0.00    -0.471 OA
ATOM     38  C   UNL     1      32.237 -13.428 -21.165  0.00  0.00    +0.252 C 
ENDBRANCH  33  37
ENDBRANCH  28  29
ENDBRANCH  27  28
ENDBRANCH   6  27
TORSDOF 7
ENDMDL
MODEL 2
REMARK VINA RESULT:     -11.9      0.258      2.684
REMARK  Name = 51039095
REMARK  7 active torsions:
REMARK  status: ('A' for Active; 'I' for Inactive)
REMARK    1  A    between atoms: C_5  and  C_16
REMARK    2  A    between atoms: C_6  and  C_27
REMARK    3  A    between atoms: C_11  and  N_17
REMARK    4  A    between atoms: C_27  and  C_28
REMARK    5  A    between atoms: C_28  and  C_29
REMARK    6  A    between atoms: C_32  and  O_35
REMARK    7  A    between atoms: C_33  and  O_37
REMARK                            x       y       z     vdW  Elec       q    Type
REMARK                         _______ _______ _______ _____ _____    ______ ____
ROOT
ATOM      1  O   UNL     1      33.867 -21.511 -19.996  0.00  0.00    -0.270 OA
ATOM      2  N   UNL     1      35.930 -20.404 -20.147  0.00  0.00    -0.265 N 
ATOM      3  N   UNL     1      36.204 -18.314 -22.905  0.00  0.00    -0.239 N 
ATOM      4  N   UNL     1      36.752 -18.836 -21.795  0.00  0.00    -0.166 NA
ATOM      5  C   UNL     1      35.003 -21.273 -19.555  0.00  0.00    +0.251 C 
ATOM      6  C   UNL     1      34.935 -18.752 -23.152  0.00  0.00    +0.046 C 
ATOM      7  C   UNL     1      35.789 -19.634 -21.328  0.00  0.00    +0.153 C 
ATOM      8  C   UNL     1      34.634 -19.622 -22.132  0.00  0.00    +0.048 C 
ATOM      9  H   UNL     1      36.793 -20.318 -19.681  0.00  0.00    +0.157 HD
ATOM     10  H   UNL     1      36.674 -17.673 -23.486  0.00  0.00    +0.174 HD
ENDROOT
BRANCH   5  16
ATOM     11  C   UNL     1      36.309 -23.255 -16.037  0.00  0.00    +0.048 C 
ATOM     12  C   UNL     1      37.184 -22.419 -16.732  0.00  0.00    +0.015 C 
ATOM     13  C   UNL     1      35.005 -23.439 -16.496  0.00  0.00    +0.015 C 
ATOM     14  C   UNL     1      36.754 -21.768 -17.888  0.00  0.00    +0.006 C 
ATOM     15  C   UNL     1      34.576 -22.787 -17.653  0.00  0.00    +0.006 C 
ATOM     16  C   UNL     1      35.450 -21.951 -18.348  0.00  0.00    +0.054 C 
BRANCH  11  17
ATOM     17  N   UNL     1      36.739 -23.909 -14.876  0.00  0.00    -0.312 N 
ATOM     18  N   UNL     1      37.553 -25.441 -12.615  0.00  0.00    +0.389 N 
ATOM     19  C   UNL     1      36.499 -24.430 -12.478  0.00  0.00    -0.042 C 
ATOM     20  C   UNL     1      38.542 -25.024 -13.615  0.00  0.00    -0.042 C 
ATOM     21  C   UNL     1      35.773 -24.214 -13.814  0.00  0.00    +0.069 C 
ATOM     22  C   UNL     1      37.878 -24.830 -14.986  0.00  0.00    +0.069 C 
ATOM     23  C   UNL     1      39.645 -26.078 -13.696  0.00  0.00    -0.022 C 
ATOM     24  C   UNL     1      35.514 -24.878 -11.399  0.00  0.00    -0.022 C 
ATOM     25  H   UNL     1      37.133 -26.324 -12.907  0.00  0.00    -0.084 HD
ATOM     26  H   UNL     1      38.021 -25.552 -11.716  0.00  0.00    -0.084 HD
ENDBRANCH  11  17
ENDBRANCH   5  16
BRANCH   6  27
ATOM     27  C   UNL     1      34.162 -18.297 -24.318  0.00  0.00    +0.047 C 
BRANCH  27  28
ATOM     28  C   UNL     1      34.803 -17.127 -25.106  0.00  0.00    +0.033 C 
BRANCH  28  29
ATOM     29  C   UNL     1      34.243 -15.780 -24.717  0.00  0.00    -0.016 C 
ATOM     30  C   UNL     1      33.793 -14.900 -25.702  0.00  0.00    +0.033 C 
ATOM     31  C   UNL     1      34.172 -15.416 -23.373  0.00  0.00    +0.033 C 
ATOM     32  C   UNL     1      33.654 -14.172 -23.013  0.00  0.00    +0.141 C 
ATOM     33  C   UNL     1      33.275 -13.657 -25.343  0.00  0.00    +0.141 C 
ATOM     34  C   UNL     1      33.206 -13.292 -23.998  0.00  0.00    +0.074 C 
BRANCH  32  35
ATOM     35  O   UNL     1      33.585 -13.816 -21.701  0.00  0.00    -0.471 OA
ATOM     36  C   UNL     1      32.311 -13.406 -21.207  0.00  0.00    +0.252 C 
ENDBRANCH  32  35
BRANCH  33  37
ATOM     37  O   UNL     1      32.835 -12.798 -26.303  0.00  0.00    -0.471 OA
ATOM     38  C   UNL     1      33.825 -12.197 -27.138  0.00  0.00    +0.252 C 
ENDBRANCH  33  37
ENDBRANCH  28  29
ENDBRANCH  27  28
ENDBRANCH   6  27
TORSDOF 7
ENDMDL
MODEL 3
REMARK VINA RESULT:     -11.2      4.468     13.685
REMARK  Name = 51039095
REMARK  7 active torsions:
REMARK  status: ('A' for Active; 'I' for Inactive)
REMARK    1  A    between atoms: C_5  and  C_16
REMARK    2  A    between atoms: C_6  and  C_27
REMARK    3  A    between atoms: C_11  and  N_17
REMARK    4  A    between atoms: C_27  and  C_28
REMARK    5  A    between atoms: C_28  and  C_29
REMARK    6  A    between atoms: C_32  and  O_35
REMARK    7  A    between atoms: C_33  and  O_37
REMARK                            x       y       z     vdW  Elec       q    Type
REMARK                         _______ _______ _______ _____ _____    ______ ____
ROOT
ATOM      1  O   UNL     1      34.683 -13.999 -22.499  0.00  0.00    -0.270 OA
ATOM      2  N   UNL     1      33.732 -14.630 -24.549  0.00  0.00    -0.265 N 
ATOM      3  N   UNL     1      33.763 -18.055 -25.117  0.00  0.00    -0.239 N 
ATOM      4  N   UNL     1      33.445 -16.819 -25.537  0.00  0.00    -0.166 NA
ATOM      5  C   UNL     1      34.129 -13.707 -23.571  0.00  0.00    +0.251 C 
ATOM      6  C   UNL     1      34.366 -18.082 -23.893  0.00  0.00    +0.046 C 
ATOM      7  C   UNL     1      33.865 -16.040 -24.538  0.00  0.00    +0.153 C 
ATOM      8  C   UNL     1      34.448 -16.773 -23.486  0.00  0.00    +0.048 C 
ATOM      9  H   UNL     1      33.305 -14.248 -25.350  0.00  0.00    +0.157 HD
ATOM     10  H   UNL     1      33.577 -18.866 -25.643  0.00  0.00    +0.174 HD
ENDROOT
BRANCH   5  16
ATOM     11  C   UNL     1      33.404  -9.625 -24.479  0.00  0.00    +0.048 C 
ATOM     12  C   UNL     1      32.737 -10.232 -23.414  0.00  0.00    +0.015 C 
ATOM     13  C   UNL     1      34.310 -10.359 -25.244  0.00  0.00    +0.015 C 
ATOM     14  C   UNL     1      32.976 -11.574 -23.116  0.00  0.00    +0.006 C 
ATOM     15  C   UNL     1      34.549 -11.701 -24.945  0.00  0.00    +0.006 C 
ATOM     16  C   UNL     1      33.882 -12.308 -23.882  0.00  0.00    +0.054 C 
BRANCH  11  17
ATOM     17  N   UNL     1      33.166  -8.279 -24.779  0.00  0.00    -0.312 N 
ATOM     18  N   UNL     1      32.808  -5.484 -25.202  0.00  0.00    +0.389 N 
ATOM     19  C   UNL     1      31.645  -6.349 -24.981  0.00  0.00    -0.042 C 
ATOM     20  C   UNL     1      33.861  -6.207 -25.922  0.00  0.00    -0.042 C 
ATOM     21  C   UNL     1      32.033  -7.585 -24.156  0.00  0.00    +0.069 C 
ATOM     22  C   UNL     1      34.318  -7.436 -25.124  0.00  0.00    +0.069 C 
ATOM     23  C   UNL     1      35.034  -5.261 -26.174  0.00  0.00    -0.022 C 
ATOM     24  C   UNL     1      30.555  -5.550 -24.268  0.00  0.00    -0.022 C 
ATOM     25  H   UNL     1      33.171  -5.175 -24.299  0.00  0.00    -0.084 HD
ATOM     26  H   UNL     1      32.519  -4.681 -25.760  0.00  0.00    -0.084 HD
ENDBRANCH  11  17
ENDBRANCH   5  16
BRANCH   6  27
ATOM     27  C   UNL     1      34.792 -19.339 -23.257  0.00  0.00    +0.047 C 
BRANCH  27  28
ATOM     28  C   UNL     1      35.620 -19.160 -21.959  0.00  0.00    +0.033 C 
BRANCH  28  29
ATOM     29  C   UNL     1      35.282 -20.182 -20.900  0.00  0.00    -0.016 C 
ATOM     30  C   UNL     1      36.297 -20.753 -20.131  0.00  0.00    +0.033 C 
ATOM     31  C   UNL     1      33.955 -20.554 -20.689  0.00  0.00    +0.033 C 
ATOM     32  C   UNL     1      33.641 -21.497 -19.711  0.00  0.00    +0.141 C 
ATOM     33  C   UNL     1      35.983 -21.695 -19.153  0.00  0.00    +0.141 C 
ATOM     34  C   UNL     1      34.656 -22.068 -18.942  0.00  0.00    +0.074 C 
BRANCH  32  35
ATOM     35  O   UNL     1      32.345 -21.860 -19.504  0.00  0.00    -0.471 OA
ATOM     36  C   UNL     1      32.026 -22.427 -18.234  0.00  0.00    +0.252 C 
ENDBRANCH  32  35
BRANCH  33  37
ATOM     37  O   UNL     1      36.973 -22.252 -18.402  0.00  0.00    -0.471 OA
ATOM     38  C   UNL     1      36.881 -22.093 -16.986  0.00  0.00    +0.252 C 
ENDBRANCH  33  37
ENDBRANCH  28  29
ENDBRANCH  27  28
ENDBRANCH   6  27
TORSDOF 7
ENDMDL
MODEL 4
REMARK VINA RESULT:     -11.1      4.388     13.635
REMARK  Name = 51039095
REMARK  7 active torsions:
REMARK  status: ('A' for Active; 'I' for Inactive)
REMARK    1  A    between atoms: C_5  and  C_16
REMARK    2  A    between atoms: C_6  and  C_27
REMARK    3  A    between atoms: C_11  and  N_17
REMARK    4  A    between atoms: C_27  and  C_28
REMARK    5  A    between atoms: C_28  and  C_29
REMARK    6  A    between atoms: C_32  and  O_35
REMARK    7  A    between atoms: C_33  and  O_37
REMARK                            x       y       z     vdW  Elec       q    Type
REMARK                         _______ _______ _______ _____ _____    ______ ____
ROOT
ATOM      1  O   UNL     1      33.758 -14.189 -22.109  0.00  0.00    -0.270 OA
ATOM      2  N   UNL     1      34.009 -14.701 -24.385  0.00  0.00    -0.265 N 
ATOM      3  N   UNL     1      34.608 -18.063 -25.011  0.00  0.00    -0.239 N 
ATOM      4  N   UNL     1      34.437 -16.815 -25.479  0.00  0.00    -0.166 NA
ATOM      5  C   UNL     1      33.788 -13.841 -23.301  0.00  0.00    +0.251 C 
ATOM      6  C   UNL     1      34.523 -18.158 -23.652  0.00  0.00    +0.046 C 
ATOM      7  C   UNL     1      34.238 -16.099 -24.370  0.00  0.00    +0.153 C 
ATOM      8  C   UNL     1      34.281 -16.882 -23.202  0.00  0.00    +0.048 C 
ATOM      9  H   UNL     1      34.005 -14.278 -25.274  0.00  0.00    +0.157 HD
ATOM     10  H   UNL     1      34.777 -18.837 -25.594  0.00  0.00    +0.174 HD
ENDROOT
BRANCH   5  16
ATOM     11  C   UNL     1      33.265  -9.741 -24.267  0.00  0.00    +0.048 C 
ATOM     12  C   UNL     1      32.583 -10.295 -23.183  0.00  0.00    +0.015 C 
ATOM     13  C   UNL     1      34.120 -10.534 -25.032  0.00  0.00    +0.015 C 
ATOM     14  C   UNL     1      32.755 -11.642 -22.866  0.00  0.00    +0.006 C 
ATOM     15  C   UNL     1      34.292 -11.881 -24.714  0.00  0.00    +0.006 C 
ATOM     16  C   UNL     1      33.610 -12.435 -23.631  0.00  0.00    +0.054 C 
BRANCH  11  17
ATOM     17  N   UNL     1      33.094  -8.390 -24.586  0.00  0.00    -0.312 N 
ATOM     18  N   UNL     1      32.867  -5.586 -25.045  0.00  0.00    +0.389 N 
ATOM     19  C   UNL     1      31.661  -6.401 -24.859  0.00  0.00    -0.042 C 
ATOM     20  C   UNL     1      33.913  -6.359 -25.721  0.00  0.00    -0.042 C 
ATOM     21  C   UNL     1      31.969  -7.643 -24.010  0.00  0.00    +0.069 C 
ATOM     22  C   UNL     1      34.291  -7.598 -24.897  0.00  0.00    +0.069 C 
ATOM     23  C   UNL     1      35.133  -5.464 -25.938  0.00  0.00    -0.022 C 
ATOM     24  C   UNL     1      30.581  -5.551 -24.192  0.00  0.00    -0.022 C 
ATOM     25  H   UNL     1      33.210  -5.283 -24.133  0.00  0.00    -0.084 HD
ATOM     26  H   UNL     1      32.631  -4.777 -25.620  0.00  0.00    -0.084 HD
ENDBRANCH  11  17
ENDBRANCH   5  16
BRANCH   6  27
ATOM     27  C   UNL     1      34.681 -19.437 -22.944  0.00  0.00    +0.047 C 
BRANCH  27  28
ATOM     28  C   UNL     1      35.646 -19.393 -21.732  0.00  0.00    +0.033 C 
BRANCH  28  29
ATOM     29  C   UNL     1      35.291 -20.395 -20.660  0.00  0.00    -0.016 C 
ATOM     30  C   UNL     1      33.964 -20.789 -20.484  0.00  0.00    +0.033 C 
ATOM     31  C   UNL     1      36.290 -20.927 -19.845  0.00  0.00    +0.033 C 
ATOM     32  C   UNL     1      35.963 -21.853 -18.854  0.00  0.00    +0.141 C 
ATOM     33  C   UNL     1      33.637 -21.715 -19.495  0.00  0.00    +0.141 C 
ATOM     34  C   UNL     1      34.636 -22.246 -18.679  0.00  0.00    +0.074 C 
BRANCH  32  35
ATOM     35  O   UNL     1      36.937 -22.373 -18.059  0.00  0.00    -0.471 OA
ATOM     36  C   UNL     1      37.176 -21.717 -16.814  0.00  0.00    +0.252 C 
ENDBRANCH  32  35
BRANCH  33  37
ATOM     37  O   UNL     1      32.343 -22.100 -19.323  0.00  0.00    -0.471 OA
ATOM     38  C   UNL     1      31.969 -22.562 -18.026  0.00  0.00    +0.252 C 
ENDBRANCH  33  37
ENDBRANCH  28  29
ENDBRANCH  27  28
ENDBRANCH   6  27
TORSDOF 7
ENDMDL
MODEL 5
REMARK VINA RESULT:     -11.0      4.526     13.730
REMARK  Name = 51039095
REMARK  7 active torsions:
REMARK  status: ('A' for Active; 'I' for Inactive)
REMARK    1  A    between atoms: C_5  and  C_16
REMARK    2  A    between atoms: C_6  and  C_27
REMARK    3  A    between atoms: C_11  and  N_17
REMARK    4  A    between atoms: C_27  and  C_28
REMARK    5  A    between atoms: C_28  and  C_29
REMARK    6  A    between atoms: C_32  and  O_35
REMARK    7  A    between atoms: C_33  and  O_37
REMARK                            x       y       z     vdW  Elec       q    Type
REMARK                         _______ _______ _______ _____ _____    ______ ____
ROOT
ATOM      1  O   UNL     1      33.876 -13.824 -22.075  0.00  0.00    -0.270 OA
ATOM      2  N   UNL     1      34.244 -14.353 -24.331  0.00  0.00    -0.265 N 
ATOM      3  N   UNL     1      34.869 -17.720 -24.900  0.00  0.00    -0.239 N 
ATOM      4  N   UNL     1      34.724 -16.476 -25.386  0.00  0.00    -0.166 NA
ATOM      5  C   UNL     1      33.968 -13.485 -23.265  0.00  0.00    +0.251 C 
ATOM      6  C   UNL     1      34.713 -17.805 -23.547  0.00  0.00    +0.046 C 
ATOM      7  C   UNL     1      34.469 -15.751 -24.294  0.00  0.00    +0.153 C 
ATOM      8  C   UNL     1      34.450 -16.527 -23.119  0.00  0.00    +0.048 C 
ATOM      9  H   UNL     1      34.287 -13.937 -25.222  0.00  0.00    +0.157 HD
ATOM     10  H   UNL     1      35.067 -18.499 -25.469  0.00  0.00    +0.174 HD
ENDROOT
BRANCH   5  16
ATOM     11  C   UNL     1      33.512  -9.390 -24.283  0.00  0.00    +0.048 C 
ATOM     12  C   UNL     1      34.475 -10.166 -24.929  0.00  0.00    +0.015 C 
ATOM     13  C   UNL     1      32.697  -9.959 -23.304  0.00  0.00    +0.015 C 
ATOM     14  C   UNL     1      34.624 -11.511 -24.594  0.00  0.00    +0.006 C 
ATOM     15  C   UNL     1      32.848 -11.306 -22.970  0.00  0.00    +0.006 C 
ATOM     16  C   UNL     1      33.810 -12.082 -23.615  0.00  0.00    +0.054 C 
BRANCH  11  17
ATOM     17  N   UNL     1      33.360  -8.040 -24.618  0.00  0.00    -0.312 N 
ATOM     18  N   UNL     1      32.934  -5.360 -25.490  0.00  0.00    +0.389 N 
ATOM     19  C   UNL     1      34.299  -5.875 -25.334  0.00  0.00    -0.042 C 
ATOM     20  C   UNL     1      32.039  -5.960 -24.495  0.00  0.00    -0.042 C 
ATOM     21  C   UNL     1      34.330  -7.400 -25.515  0.00  0.00    +0.069 C 
ATOM     22  C   UNL     1      31.999  -7.487 -24.652  0.00  0.00    +0.069 C 
ATOM     23  C   UNL     1      30.641  -5.366 -24.658  0.00  0.00    -0.022 C 
ATOM     24  C   UNL     1      35.209  -5.196 -26.357  0.00  0.00    -0.022 C 
ATOM     25  H   UNL     1      32.595  -5.586 -26.425  0.00  0.00    -0.084 HD
ATOM     26  H   UNL     1      32.947  -4.349 -25.354  0.00  0.00    -0.084 HD
ENDBRANCH  11  17
ENDBRANCH   5  16
BRANCH   6  27
ATOM     27  C   UNL     1      34.832 -19.080 -22.823  0.00  0.00    +0.047 C 
BRANCH  27  28
ATOM     28  C   UNL     1      33.554 -19.517 -22.064  0.00  0.00    +0.033 C 
BRANCH  28  29
ATOM     29  C   UNL     1      33.842 -20.453 -20.915  0.00  0.00    -0.016 C 
ATOM     30  C   UNL     1      32.792 -21.083 -20.247  0.00  0.00    +0.033 C 
ATOM     31  C   UNL     1      35.159 -20.690 -20.523  0.00  0.00    +0.033 C 
ATOM     32  C   UNL     1      35.428 -21.555 -19.463  0.00  0.00    +0.141 C 
ATOM     33  C   UNL     1      33.059 -21.949 -19.188  0.00  0.00    +0.141 C 
ATOM     34  C   UNL     1      34.377 -22.185 -18.794  0.00  0.00    +0.074 C 
BRANCH  32  35
ATOM     35  O   UNL     1      36.713 -21.787 -19.079  0.00  0.00    -0.471 OA
ATOM     36  C   UNL     1      36.970 -21.846 -17.677  0.00  0.00    +0.252 C 
ENDBRANCH  32  35
BRANCH  33  37
ATOM     37  O   UNL     1      32.035 -22.565 -18.536  0.00  0.00    -0.471 OA
ATOM     38  C   UNL     1      32.348 -23.218 -17.306  0.00  0.00    +0.252 C 
ENDBRANCH  33  37
ENDBRANCH  28  29
ENDBRANCH  27  28
ENDBRANCH   6  27
TORSDOF 7
ENDMDL
MODEL 6
REMARK VINA RESULT:     -11.0      4.454     13.706
REMARK  Name = 51039095
REMARK  7 active torsions:
REMARK  status: ('A' for Active; 'I' for Inactive)
REMARK    1  A    between atoms: C_5  and  C_16
REMARK    2  A    between atoms: C_6  and  C_27
REMARK    3  A    between atoms: C_11  and  N_17
REMARK    4  A    between atoms: C_27  and  C_28
REMARK    5  A    between atoms: C_28  and  C_29
REMARK    6  A    between atoms: C_32  and  O_35
REMARK    7  A    between atoms: C_33  and  O_37
REMARK                            x       y       z     vdW  Elec       q    Type
REMARK                         _______ _______ _______ _____ _____    ______ ____
ROOT
ATOM      1  O   UNL     1      33.816 -13.974 -22.101  0.00  0.00    -0.270 OA
ATOM      2  N   UNL     1      34.206 -14.502 -24.354  0.00  0.00    -0.265 N 
ATOM      3  N   UNL     1      34.817 -17.873 -24.921  0.00  0.00    -0.239 N 
ATOM      4  N   UNL     1      34.686 -16.627 -25.407  0.00  0.00    -0.166 NA
ATOM      5  C   UNL     1      33.923 -13.634 -23.291  0.00  0.00    +0.251 C 
ATOM      6  C   UNL     1      34.647 -17.958 -23.569  0.00  0.00    +0.046 C 
ATOM      7  C   UNL     1      34.423 -15.902 -24.317  0.00  0.00    +0.153 C 
ATOM      8  C   UNL     1      34.386 -16.679 -23.143  0.00  0.00    +0.048 C 
ATOM      9  H   UNL     1      34.261 -14.086 -25.244  0.00  0.00    +0.157 HD
ATOM     10  H   UNL     1      35.017 -18.652 -25.487  0.00  0.00    +0.174 HD
ENDROOT
BRANCH   5  16
ATOM     11  C   UNL     1      33.501  -9.535 -24.309  0.00  0.00    +0.048 C 
ATOM     12  C   UNL     1      34.434 -10.328 -24.978  0.00  0.00    +0.015 C 
ATOM     13  C   UNL     1      32.706 -10.089 -23.306  0.00  0.00    +0.015 C 
ATOM     14  C   UNL     1      34.573 -11.675 -24.644  0.00  0.00    +0.006 C 
ATOM     15  C   UNL     1      32.845 -11.437 -22.972  0.00  0.00    +0.006 C 
ATOM     16  C   UNL     1      33.777 -12.230 -23.640  0.00  0.00    +0.054 C 
BRANCH  11  17
ATOM     17  N   UNL     1      33.361  -8.184 -24.644  0.00  0.00    -0.312 N 
ATOM     18  N   UNL     1      32.962  -5.501 -25.518  0.00  0.00    +0.389 N 
ATOM     19  C   UNL     1      34.321  -6.021 -25.337  0.00  0.00    -0.042 C 
ATOM     20  C   UNL     1      32.045  -6.100 -24.543  0.00  0.00    -0.042 C 
ATOM     21  C   UNL     1      34.351  -7.546 -25.520  0.00  0.00    +0.069 C 
ATOM     22  C   UNL     1      32.003  -7.626 -24.704  0.00  0.00    +0.069 C 
ATOM     23  C   UNL     1      30.653  -5.501 -24.733  0.00  0.00    -0.022 C 
ATOM     24  C   UNL     1      35.254  -5.343 -26.340  0.00  0.00    -0.022 C 
ATOM     25  H   UNL     1      32.641  -5.724 -26.461  0.00  0.00    -0.084 HD
ATOM     26  H   UNL     1      32.976  -4.491 -25.380  0.00  0.00    -0.084 HD
ENDBRANCH  11  17
ENDBRANCH   5  16
BRANCH   6  27
ATOM     27  C   UNL     1      34.751 -19.235 -22.845  0.00  0.00    +0.047 C 
BRANCH  27  28
ATOM     28  C   UNL     1      33.499 -19.612 -22.013  0.00  0.00    +0.033 C 
BRANCH  28  29
ATOM     29  C   UNL     1      33.814 -20.539 -20.864  0.00  0.00    -0.016 C 
ATOM     30  C   UNL     1      35.136 -20.730 -20.462  0.00  0.00    +0.033 C 
ATOM     31  C   UNL     1      32.781 -21.204 -20.203  0.00  0.00    +0.033 C 
ATOM     32  C   UNL     1      33.070 -22.060 -19.140  0.00  0.00    +0.141 C 
ATOM     33  C   UNL     1      35.425 -21.585 -19.400  0.00  0.00    +0.141 C 
ATOM     34  C   UNL     1      34.393 -22.251 -18.739  0.00  0.00    +0.074 C 
BRANCH  32  35
ATOM     35  O   UNL     1      32.063 -22.709 -18.494  0.00  0.00    -0.471 OA
ATOM     36  C   UNL     1      32.352 -23.222 -17.195  0.00  0.00    +0.252 C 
ENDBRANCH  32  35
BRANCH  33  37
ATOM     37  O   UNL     1      36.715 -21.771 -19.007  0.00  0.00    -0.471 OA
ATOM     38  C   UNL     1      36.959 -21.867 -17.604  0.00  0.00    +0.252 C 
ENDBRANCH  33  37
ENDBRANCH  28  29
ENDBRANCH  27  28
ENDBRANCH   6  27
TORSDOF 7
ENDMDL
MODEL 7
REMARK VINA RESULT:     -10.5      3.288     12.615
REMARK  Name = 51039095
REMARK  7 active torsions:
REMARK  status: ('A' for Active; 'I' for Inactive)
REMARK    1  A    between atoms: C_5  and  C_16
REMARK    2  A    between atoms: C_6  and  C_27
REMARK    3  A    between atoms: C_11  and  N_17
REMARK    4  A    between atoms: C_27  and  C_28
REMARK    5  A    between atoms: C_28  and  C_29
REMARK    6  A    between atoms: C_32  and  O_35
REMARK    7  A    between atoms: C_33  and  O_37
REMARK                            x       y       z     vdW  Elec       q    Type
REMARK                         _______ _______ _______ _____ _____    ______ ____
ROOT
ATOM      1  O   UNL     1      35.942 -18.433 -21.025  0.00  0.00    -0.270 OA
ATOM      2  N   UNL     1      33.664 -18.917 -21.314  0.00  0.00    -0.265 N 
ATOM      3  N   UNL     1      32.690 -21.957 -19.950  0.00  0.00    -0.239 N 
ATOM      4  N   UNL     1      32.367 -20.835 -20.616  0.00  0.00    -0.166 NA
ATOM      5  C   UNL     1      34.816 -18.130 -21.453  0.00  0.00    +0.251 C 
ATOM      6  C   UNL     1      34.006 -22.029 -19.597  0.00  0.00    +0.046 C 
ATOM      7  C   UNL     1      33.527 -20.178 -20.684  0.00  0.00    +0.153 C 
ATOM      8  C   UNL     1      34.584 -20.874 -20.066  0.00  0.00    +0.048 C 
ATOM      9  H   UNL     1      32.842 -18.544 -21.707  0.00  0.00    +0.157 HD
ATOM     10  H   UNL     1      32.036 -22.661 -19.735  0.00  0.00    +0.174 HD
ENDROOT
BRANCH   5  16
ATOM     11  C   UNL     1      34.323 -14.489 -23.577  0.00  0.00    +0.048 C 
ATOM     12  C   UNL     1      34.254 -14.499 -22.184  0.00  0.00    +0.015 C 
ATOM     13  C   UNL     1      34.555 -15.676 -24.273  0.00  0.00    +0.015 C 
ATOM     14  C   UNL     1      34.417 -15.695 -21.486  0.00  0.00    +0.006 C 
ATOM     15  C   UNL     1      34.717 -16.873 -23.574  0.00  0.00    +0.006 C 
ATOM     16  C   UNL     1      34.648 -16.883 -22.181  0.00  0.00    +0.054 C 
BRANCH  11  17
ATOM     17  N   UNL     1      34.161 -13.290 -24.279  0.00  0.00    -0.312 N 
ATOM     18  N   UNL     1      33.600 -10.881 -25.696  0.00  0.00    +0.389 N 
ATOM     19  C   UNL     1      34.392 -11.940 -26.330  0.00  0.00    -0.042 C 
ATOM     20  C   UNL     1      33.852 -10.842 -24.252  0.00  0.00    -0.042 C 
ATOM     21  C   UNL     1      34.037 -13.314 -25.741  0.00  0.00    +0.069 C 
ATOM     22  C   UNL     1      33.477 -12.181 -23.600  0.00  0.00    +0.069 C 
ATOM     23  C   UNL     1      33.046  -9.700 -23.635  0.00  0.00    -0.022 C 
ATOM     24  C   UNL     1      34.137 -11.922 -27.837  0.00  0.00    -0.022 C 
ATOM     25  H   UNL     1      32.609 -11.061 -25.859  0.00  0.00    -0.084 HD
ATOM     26  H   UNL     1      33.867  -9.984 -26.101  0.00  0.00    -0.084 HD
ENDBRANCH  11  17
ENDBRANCH   5  16
BRANCH   6  27
ATOM     27  C   UNL     1      34.559 -23.177 -18.861  0.00  0.00    +0.047 C 
BRANCH  27  28
ATOM     28  C   UNL     1      34.972 -22.872 -17.399  0.00  0.00    +0.033 C 
BRANCH  28  29
ATOM     29  C   UNL     1      33.947 -23.332 -16.390  0.00  0.00    -0.016 C 
ATOM     30  C   UNL     1      32.609 -23.463 -16.764  0.00  0.00    +0.033 C 
ATOM     31  C   UNL     1      34.338 -23.628 -15.085  0.00  0.00    +0.033 C 
ATOM     32  C   UNL     1      33.393 -24.054 -14.152  0.00  0.00    +0.141 C 
ATOM     33  C   UNL     1      31.664 -23.889 -15.832  0.00  0.00    +0.141 C 
ATOM     34  C   UNL     1      32.055 -24.184 -14.526  0.00  0.00    +0.074 C 
BRANCH  32  35
ATOM     35  O   UNL     1      33.775 -24.344 -12.878  0.00  0.00    -0.471 OA
ATOM     36  C   UNL     1      35.162 -24.592 -12.658  0.00  0.00    +0.252 C 
ENDBRANCH  32  35
BRANCH  33  37
ATOM     37  O   UNL     1      30.358 -24.018 -16.196  0.00  0.00    -0.471 OA
ATOM     38  C   UNL     1      29.595 -25.023 -15.529  0.00  0.00    +0.252 C 
ENDBRANCH  33  37
ENDBRANCH  28  29
ENDBRANCH  27  28
ENDBRANCH   6  27
TORSDOF 7
ENDMDL
MODEL 8
REMARK VINA RESULT:     -10.5      3.292     12.539
REMARK  Name = 51039095
REMARK  7 active torsions:
REMARK  status: ('A' for Active; 'I' for Inactive)
REMARK    1  A    between atoms: C_5  and  C_16
REMARK    2  A    between atoms: C_6  and  C_27
REMARK    3  A    between atoms: C_11  and  N_17
REMARK    4  A    between atoms: C_27  and  C_28
REMARK    5  A    between atoms: C_28  and  C_29
REMARK    6  A    between atoms: C_32  and  O_35
REMARK    7  A    between atoms: C_33  and  O_37
REMARK                            x       y       z     vdW  Elec       q    Type
REMARK                         _______ _______ _______ _____ _____    ______ ____
ROOT
ATOM      1  O   UNL     1      35.926 -18.420 -21.010  0.00  0.00    -0.270 OA
ATOM      2  N   UNL     1      33.654 -18.917 -21.326  0.00  0.00    -0.265 N 
ATOM      3  N   UNL     1      32.682 -21.963 -19.972  0.00  0.00    -0.239 N 
ATOM      4  N   UNL     1      32.361 -20.843 -20.643  0.00  0.00    -0.166 NA
ATOM      5  C   UNL     1      34.803 -18.124 -21.451  0.00  0.00    +0.251 C 
ATOM      6  C   UNL     1      33.995 -22.027 -19.604  0.00  0.00    +0.046 C 
ATOM      7  C   UNL     1      33.518 -20.179 -20.697  0.00  0.00    +0.153 C 
ATOM      8  C   UNL     1      34.571 -20.869 -20.067  0.00  0.00    +0.048 C 
ATOM      9  H   UNL     1      32.835 -18.550 -21.729  0.00  0.00    +0.157 HD
ATOM     10  H   UNL     1      32.030 -22.671 -19.765  0.00  0.00    +0.174 HD
ENDROOT
BRANCH   5  16
ATOM     11  C   UNL     1      34.314 -14.486 -23.582  0.00  0.00    +0.048 C 
ATOM     12  C   UNL     1      34.243 -14.494 -22.189  0.00  0.00    +0.015 C 
ATOM     13  C   UNL     1      34.547 -15.674 -24.275  0.00  0.00    +0.015 C 
ATOM     14  C   UNL     1      34.404 -15.689 -21.489  0.00  0.00    +0.006 C 
ATOM     15  C   UNL     1      34.708 -16.869 -23.574  0.00  0.00    +0.006 C 
ATOM     16  C   UNL     1      34.637 -16.877 -22.182  0.00  0.00    +0.054 C 
BRANCH  11  17
ATOM     17  N   UNL     1      34.153 -13.288 -24.286  0.00  0.00    -0.312 N 
ATOM     18  N   UNL     1      33.595 -10.878 -25.701  0.00  0.00    +0.389 N 
ATOM     19  C   UNL     1      34.355 -11.952 -26.349  0.00  0.00    -0.042 C 
ATOM     20  C   UNL     1      33.882 -10.836 -24.263  0.00  0.00    -0.042 C 
ATOM     21  C   UNL     1      33.993 -13.317 -25.744  0.00  0.00    +0.069 C 
ATOM     22  C   UNL     1      33.503 -12.165 -23.596  0.00  0.00    +0.069 C 
ATOM     23  C   UNL     1      33.109  -9.678 -23.634  0.00  0.00    -0.022 C 
ATOM     24  C   UNL     1      34.064 -11.936 -27.849  0.00  0.00    -0.022 C 
ATOM     25  H   UNL     1      32.597 -11.043 -25.839  0.00  0.00    -0.084 HD
ATOM     26  H   UNL     1      33.865  -9.987 -26.117  0.00  0.00    -0.084 HD
ENDBRANCH  11  17
ENDBRANCH   5  16
BRANCH   6  27
ATOM     27  C   UNL     1      34.546 -23.172 -18.862  0.00  0.00    +0.047 C 
BRANCH  27  28
ATOM     28  C   UNL     1      34.963 -22.858 -17.403  0.00  0.00    +0.033 C 
BRANCH  28  29
ATOM     29  C   UNL     1      33.945 -23.320 -16.387  0.00  0.00    -0.016 C 
ATOM     30  C   UNL     1      34.338 -23.588 -15.076  0.00  0.00    +0.033 C 
ATOM     31  C   UNL     1      32.611 -23.477 -16.761  0.00  0.00    +0.033 C 
ATOM     32  C   UNL     1      31.669 -23.903 -15.824  0.00  0.00    +0.141 C 
ATOM     33  C   UNL     1      33.397 -24.013 -14.139  0.00  0.00    +0.141 C 
ATOM     34  C   UNL     1      32.063 -24.171 -14.512  0.00  0.00    +0.074 C 
BRANCH  32  35
ATOM     35  O   UNL     1      30.366 -24.057 -16.188  0.00  0.00    -0.471 OA
ATOM     36  C   UNL     1      29.626 -25.082 -15.527  0.00  0.00    +0.252 C 
ENDBRANCH  32  35
BRANCH  33  37
ATOM     37  O   UNL     1      33.781 -24.273 -12.859  0.00  0.00    -0.471 OA
ATOM     38  C   UNL     1      35.149 -24.618 -12.649  0.00  0.00    +0.252 C 
ENDBRANCH  33  37
ENDBRANCH  28  29
ENDBRANCH  27  28
ENDBRANCH   6  27
TORSDOF 7
ENDMDL
MODEL 9
REMARK VINA RESULT:     -10.4      1.623      2.149
REMARK  Name = 51039095
REMARK  7 active torsions:
REMARK  status: ('A' for Active; 'I' for Inactive)
REMARK    1  A    between atoms: C_5  and  C_16
REMARK    2  A    between atoms: C_6  and  C_27
REMARK    3  A    between atoms: C_11  and  N_17
REMARK    4  A    between atoms: C_27  and  C_28
REMARK    5  A    between atoms: C_28  and  C_29
REMARK    6  A    between atoms: C_32  and  O_35
REMARK    7  A    between atoms: C_33  and  O_37
REMARK                            x       y       z     vdW  Elec       q    Type
REMARK                         _______ _______ _______ _____ _____    ______ ____
ROOT
ATOM      1  O   UNL     1      34.804 -20.812 -22.177  0.00  0.00    -0.270 OA
ATOM      2  N   UNL     1      34.944 -18.895 -20.831  0.00  0.00    -0.265 N 
ATOM      3  N   UNL     1      34.946 -15.920 -22.621  0.00  0.00    -0.239 N 
ATOM      4  N   UNL     1      34.990 -16.553 -21.437  0.00  0.00    -0.166 NA
ATOM      5  C   UNL     1      34.884 -20.276 -21.060  0.00  0.00    +0.251 C 
ATOM      6  C   UNL     1      34.857 -16.760 -23.693  0.00  0.00    +0.046 C 
ATOM      7  C   UNL     1      34.927 -17.842 -21.780  0.00  0.00    +0.153 C 
ATOM      8  C   UNL     1      34.843 -18.031 -23.172  0.00  0.00    +0.048 C 
ATOM      9  H   UNL     1      35.006 -18.619 -19.888  0.00  0.00    +0.157 HD
ATOM     10  H   UNL     1      34.973 -14.940 -22.707  0.00  0.00    +0.174 HD
ENDROOT
BRANCH   5  16
ATOM     11  C   UNL     1      35.074 -22.730 -17.602  0.00  0.00    +0.048 C 
ATOM     12  C   UNL     1      33.876 -22.610 -18.307  0.00  0.00    +0.015 C 
ATOM     13  C   UNL     1      36.210 -22.045 -18.033  0.00  0.00    +0.015 C 
ATOM     14  C   UNL     1      33.814 -21.804 -19.443  0.00  0.00    +0.006 C 
ATOM     15  C   UNL     1      36.147 -21.239 -19.170  0.00  0.00    +0.006 C 
ATOM     16  C   UNL     1      34.950 -21.118 -19.875  0.00  0.00    +0.054 C 
BRANCH  11  17
ATOM     17  N   UNL     1      35.138 -23.539 -16.462  0.00  0.00    -0.312 N 
ATOM     18  N   UNL     1      35.243 -24.993 -14.013  0.00  0.00    +0.389 N 
ATOM     19  C   UNL     1      36.381 -25.027 -14.938  0.00  0.00    -0.042 C 
ATOM     20  C   UNL     1      33.980 -24.887 -14.751  0.00  0.00    -0.042 C 
ATOM     21  C   UNL     1      36.426 -23.752 -15.793  0.00  0.00    +0.069 C 
ATOM     22  C   UNL     1      33.952 -23.606 -15.597  0.00  0.00    +0.069 C 
ATOM     23  C   UNL     1      32.819 -24.901 -13.758  0.00  0.00    -0.022 C 
ATOM     24  C   UNL     1      37.672 -25.182 -14.136  0.00  0.00    -0.022 C 
ATOM     25  H   UNL     1      35.338 -24.187 -13.394  0.00  0.00    -0.084 HD
ATOM     26  H   UNL     1      35.235 -25.856 -13.469  0.00  0.00    -0.084 HD
ENDBRANCH  11  17
ENDBRANCH   5  16
BRANCH   6  27
ATOM     27  C   UNL     1      34.797 -16.263 -25.076  0.00  0.00    +0.047 C 
BRANCH  27  28
ATOM     28  C   UNL     1      33.482 -15.531 -25.445  0.00  0.00    +0.033 C 
BRANCH  28  29
ATOM     29  C   UNL     1      33.441 -14.106 -24.946  0.00  0.00    -0.016 C 
ATOM     30  C   UNL     1      32.890 -13.819 -23.697  0.00  0.00    +0.033 C 
ATOM     31  C   UNL     1      33.957 -13.077 -25.733  0.00  0.00    +0.033 C 
ATOM     32  C   UNL     1      33.921 -11.761 -25.274  0.00  0.00    +0.141 C 
ATOM     33  C   UNL     1      32.855 -12.503 -23.236  0.00  0.00    +0.141 C 
ATOM     34  C   UNL     1      33.370 -11.474 -24.024  0.00  0.00    +0.074 C 
BRANCH  32  35
ATOM     35  O   UNL     1      34.425 -10.756 -26.042  0.00  0.00    -0.471 OA
ATOM     36  C   UNL     1      34.884 -11.106 -27.346  0.00  0.00    +0.252 C 
ENDBRANCH  32  35
BRANCH  33  37
ATOM     37  O   UNL     1      32.318 -12.223 -22.018  0.00  0.00    -0.471 OA
ATOM     38  C   UNL     1      31.952 -13.333 -21.198  0.00  0.00    +0.252 C 
ENDBRANCH  33  37
ENDBRANCH  28  29
ENDBRANCH  27  28
ENDBRANCH   6  27
TORSDOF 7
ENDMDL
