MODEL 1
REMARK VINA RESULT:     -12.1      0.000      0.000
REMARK  Name = 46911863
REMARK  3 active torsions:
REMARK  status: ('A' for Active; 'I' for Inactive)
REMARK    1  A    between atoms: C_5  and  C_18
REMARK    2  A    between atoms: C_7  and  C_12
REMARK    3  A    between atoms: C_18  and  C_20
REMARK                            x       y       z     vdW  Elec       q    Type
REMARK                         _______ _______ _______ _____ _____    ______ ____
ROOT
ATOM      1  N   UNL     1      34.305 -22.387 -18.359  0.00  0.00    -0.190 N 
ATOM      2  N   UNL     1      35.302 -22.784 -17.528  0.00  0.00    -0.162 NA
ATOM      3  N   UNL     1      33.249 -21.474 -20.048  0.00  0.00    -0.126 NA
ATOM      4  N   UNL     1      32.313 -22.062 -19.223  0.00  0.00    -0.127 NA
ATOM      5  C   UNL     1      34.434 -21.679 -19.517  0.00  0.00    +0.228 A 
ATOM      6  C   UNL     1      32.955 -22.608 -18.211  0.00  0.00    +0.187 A 
ATOM      7  C   UNL     1      34.887 -23.442 -16.484  0.00  0.00    +0.104 C 
ATOM      8  C   UNL     1      32.537 -23.337 -17.081  0.00  0.00    +0.042 C 
ATOM      9  C   UNL     1      33.451 -23.771 -16.204  0.00  0.00    +0.024 C 
ENDROOT
BRANCH   7  12
ATOM     10  N   UNL     1      36.907 -25.109 -13.969  0.00  0.00    -0.208 N 
ATOM     11  N   UNL     1      37.755 -24.090 -14.194  0.00  0.00    -0.176 NA
ATOM     12  C   UNL     1      35.884 -23.927 -15.494  0.00  0.00    +0.056 C 
ATOM     13  C   UNL     1      35.772 -25.058 -14.722  0.00  0.00    +0.087 C 
ATOM     14  C   UNL     1      37.124 -23.371 -15.126  0.00  0.00    +0.121 C 
ATOM     15  C   UNL     1      37.248 -26.124 -13.001  0.00  0.00    +0.140 C 
ENDBRANCH   7  12
BRANCH   5  18
ATOM     16  F   UNL     1      36.441 -22.289 -20.639  0.00  0.00    -0.191 F 
ATOM     17  F   UNL     1      36.620 -20.887 -19.019  0.00  0.00    -0.191 F 
ATOM     18  C   UNL     1      35.782 -21.216 -20.068  0.00  0.00    +0.335 C 
BRANCH  18  20
ATOM     19  N   UNL     1      35.239 -16.906 -23.695  0.00  0.00    -0.244 NA
ATOM     20  C   UNL     1      35.633 -20.086 -21.029  0.00  0.00    +0.045 C 
ATOM     21  C   UNL     1      34.774 -20.203 -22.118  0.00  0.00    +0.003 C 
ATOM     22  C   UNL     1      34.629 -19.139 -23.026  0.00  0.00    +0.018 C 
ATOM     23  C   UNL     1      36.350 -18.911 -20.844  0.00  0.00    +0.003 C 
ATOM     24  C   UNL     1      35.354 -17.944 -22.843  0.00  0.00    +0.081 C 
ATOM     25  C   UNL     1      36.207 -17.855 -21.747  0.00  0.00    +0.019 C 
ATOM     26  C   UNL     1      33.771 -19.229 -24.130  0.00  0.00    +0.003 C 
ATOM     27  C   UNL     1      33.650 -18.162 -25.008  0.00  0.00    +0.021 C 
ATOM     28  C   UNL     1      34.400 -17.033 -24.748  0.00  0.00    +0.099 C 
ENDBRANCH  18  20
ENDBRANCH   5  18
TORSDOF 3
ENDMDL
MODEL 2
REMARK VINA RESULT:     -11.9      1.126      1.697
REMARK  Name = 46911863
REMARK  3 active torsions:
REMARK  status: ('A' for Active; 'I' for Inactive)
REMARK    1  A    between atoms: C_5  and  C_18
REMARK    2  A    between atoms: C_7  and  C_12
REMARK    3  A    between atoms: C_18  and  C_20
REMARK                            x       y       z     vdW  Elec       q    Type
REMARK                         _______ _______ _______ _____ _____    ______ ____
ROOT
ATOM      1  N   UNL     1      34.226 -21.865 -19.031  0.00  0.00    -0.190 N 
ATOM      2  N   UNL     1      35.306 -22.193 -18.280  0.00  0.00    -0.162 NA
ATOM      3  N   UNL     1      32.983 -21.000 -20.615  0.00  0.00    -0.126 NA
ATOM      4  N   UNL     1      32.160 -21.701 -19.758  0.00  0.00    -0.127 NA
ATOM      5  C   UNL     1      34.213 -21.110 -20.166  0.00  0.00    +0.228 A 
ATOM      6  C   UNL     1      32.914 -22.217 -18.810  0.00  0.00    +0.187 A 
ATOM      7  C   UNL     1      35.022 -22.923 -17.238  0.00  0.00    +0.104 C 
ATOM      8  C   UNL     1      32.639 -23.020 -17.686  0.00  0.00    +0.042 C 
ATOM      9  C   UNL     1      33.644 -23.396 -16.885  0.00  0.00    +0.024 C 
ENDROOT
BRANCH   7  12
ATOM     10  N   UNL     1      37.275 -24.365 -14.783  0.00  0.00    -0.208 N 
ATOM     11  N   UNL     1      38.157 -23.494 -15.306  0.00  0.00    -0.176 NA
ATOM     12  C   UNL     1      36.122 -23.344 -16.332  0.00  0.00    +0.056 C 
ATOM     13  C   UNL     1      36.042 -24.315 -15.363  0.00  0.00    +0.087 C 
ATOM     14  C   UNL     1      37.446 -22.873 -16.250  0.00  0.00    +0.121 C 
ATOM     15  C   UNL     1      37.682 -25.239 -13.709  0.00  0.00    +0.140 C 
ENDBRANCH   7  12
BRANCH   5  18
ATOM     16  F   UNL     1      36.318 -21.516 -21.197  0.00  0.00    -0.191 F 
ATOM     17  F   UNL     1      36.222 -19.893 -19.789  0.00  0.00    -0.191 F 
ATOM     18  C   UNL     1      35.475 -20.503 -20.780  0.00  0.00    +0.335 C 
BRANCH  18  20
ATOM     19  N   UNL     1      34.260 -16.952 -25.015  0.00  0.00    -0.244 NA
ATOM     20  C   UNL     1      35.156 -19.559 -21.889  0.00  0.00    +0.045 C 
ATOM     21  C   UNL     1      35.152 -18.186 -21.661  0.00  0.00    +0.003 C 
ATOM     22  C   UNL     1      34.852 -17.293 -22.704  0.00  0.00    +0.018 C 
ATOM     23  C   UNL     1      34.861 -20.045 -23.157  0.00  0.00    +0.003 C 
ATOM     24  C   UNL     1      34.552 -17.779 -23.994  0.00  0.00    +0.081 C 
ATOM     25  C   UNL     1      34.563 -19.157 -24.193  0.00  0.00    +0.019 C 
ATOM     26  C   UNL     1      34.842 -15.906 -22.502  0.00  0.00    +0.003 C 
ATOM     27  C   UNL     1      34.542 -15.051 -23.553  0.00  0.00    +0.021 C 
ATOM     28  C   UNL     1      34.261 -15.620 -24.779  0.00  0.00    +0.099 C 
ENDBRANCH  18  20
ENDBRANCH   5  18
TORSDOF 3
ENDMDL
MODEL 3
REMARK VINA RESULT:     -11.7      2.041      3.060
REMARK  Name = 46911863
REMARK  3 active torsions:
REMARK  status: ('A' for Active; 'I' for Inactive)
REMARK    1  A    between atoms: C_5  and  C_18
REMARK    2  A    between atoms: C_7  and  C_12
REMARK    3  A    between atoms: C_18  and  C_20
REMARK                            x       y       z     vdW  Elec       q    Type
REMARK                         _______ _______ _______ _____ _____    ______ ____
ROOT
ATOM      1  N   UNL     1      32.696 -23.331 -16.348  0.00  0.00    -0.190 N 
ATOM      2  N   UNL     1      33.754 -23.804 -15.644  0.00  0.00    -0.162 NA
ATOM      3  N   UNL     1      31.471 -22.577 -18.002  0.00  0.00    -0.126 NA
ATOM      4  N   UNL     1      30.686 -22.618 -16.869  0.00  0.00    -0.127 NA
ATOM      5  C   UNL     1      32.669 -23.008 -17.673  0.00  0.00    +0.228 A 
ATOM      6  C   UNL     1      31.428 -23.072 -15.881  0.00  0.00    +0.187 A 
ATOM      7  C   UNL     1      33.496 -24.020 -14.386  0.00  0.00    +0.104 C 
ATOM      8  C   UNL     1      31.173 -23.330 -14.520  0.00  0.00    +0.042 C 
ATOM      9  C   UNL     1      32.159 -23.801 -13.745  0.00  0.00    +0.024 C 
ENDROOT
BRANCH   7  12
ATOM     10  N   UNL     1      36.463 -25.373 -12.788  0.00  0.00    -0.208 N 
ATOM     11  N   UNL     1      35.764 -25.161 -11.658  0.00  0.00    -0.176 NA
ATOM     12  C   UNL     1      34.578 -24.535 -13.506  0.00  0.00    +0.056 C 
ATOM     13  C   UNL     1      35.796 -25.015 -13.922  0.00  0.00    +0.087 C 
ATOM     14  C   UNL     1      34.614 -24.650 -12.104  0.00  0.00    +0.121 C 
ATOM     15  C   UNL     1      37.791 -25.932 -12.715  0.00  0.00    +0.140 C 
ENDBRANCH   7  12
BRANCH   5  18
ATOM     16  F   UNL     1      33.789 -24.321 -19.310  0.00  0.00    -0.191 F 
ATOM     17  F   UNL     1      35.016 -23.359 -17.829  0.00  0.00    -0.191 F 
ATOM     18  C   UNL     1      33.883 -23.143 -18.592  0.00  0.00    +0.335 C 
BRANCH  18  20
ATOM     19  N   UNL     1      34.434 -18.658 -21.997  0.00  0.00    -0.244 NA
ATOM     20  C   UNL     1      34.038 -21.962 -19.487  0.00  0.00    +0.045 C 
ATOM     21  C   UNL     1      35.305 -21.458 -19.768  0.00  0.00    +0.003 C 
ATOM     22  C   UNL     1      35.456 -20.345 -20.613  0.00  0.00    +0.018 C 
ATOM     23  C   UNL     1      32.920 -21.357 -20.046  0.00  0.00    +0.003 C 
ATOM     24  C   UNL     1      34.325 -19.726 -21.184  0.00  0.00    +0.081 C 
ATOM     25  C   UNL     1      33.070 -20.250 -20.885  0.00  0.00    +0.019 C 
ATOM     26  C   UNL     1      36.719 -19.818 -20.913  0.00  0.00    +0.003 C 
ATOM     27  C   UNL     1      36.834 -18.718 -21.751  0.00  0.00    +0.021 C 
ATOM     28  C   UNL     1      35.671 -18.180 -22.263  0.00  0.00    +0.099 C 
ENDBRANCH  18  20
ENDBRANCH   5  18
TORSDOF 3
ENDMDL
MODEL 4
REMARK VINA RESULT:     -11.6      3.045      5.412
REMARK  Name = 46911863
REMARK  3 active torsions:
REMARK  status: ('A' for Active; 'I' for Inactive)
REMARK    1  A    between atoms: C_5  and  C_18
REMARK    2  A    between atoms: C_7  and  C_12
REMARK    3  A    between atoms: C_18  and  C_20
REMARK                            x       y       z     vdW  Elec       q    Type
REMARK                         _______ _______ _______ _____ _____    ______ ____
ROOT
ATOM      1  N   UNL     1      32.725 -23.095 -16.844  0.00  0.00    -0.190 N 
ATOM      2  N   UNL     1      31.409 -23.016 -17.163  0.00  0.00    -0.162 NA
ATOM      3  N   UNL     1      34.909 -23.133 -17.028  0.00  0.00    -0.126 NA
ATOM      4  N   UNL     1      34.586 -23.312 -15.698  0.00  0.00    -0.127 NA
ATOM      5  C   UNL     1      33.785 -23.004 -17.697  0.00  0.00    +0.228 A 
ATOM      6  C   UNL     1      33.273 -23.288 -15.597  0.00  0.00    +0.187 A 
ATOM      7  C   UNL     1      30.610 -23.146 -16.142  0.00  0.00    +0.104 C 
ATOM      8  C   UNL     1      32.386 -23.408 -14.510  0.00  0.00    +0.042 C 
ATOM      9  C   UNL     1      31.067 -23.342 -14.728  0.00  0.00    +0.024 C 
ENDROOT
BRANCH   7  12
ATOM     10  N   UNL     1      27.020 -22.605 -16.167  0.00  0.00    -0.208 N 
ATOM     11  N   UNL     1      27.060 -23.411 -17.242  0.00  0.00    -0.176 NA
ATOM     12  C   UNL     1      29.142 -23.082 -16.364  0.00  0.00    +0.056 C 
ATOM     13  C   UNL     1      28.240 -22.377 -15.604  0.00  0.00    +0.087 C 
ATOM     14  C   UNL     1      28.358 -23.699 -17.357  0.00  0.00    +0.121 C 
ATOM     15  C   UNL     1      25.756 -22.072 -15.717  0.00  0.00    +0.140 C 
ENDBRANCH   7  12
BRANCH   5  18
ATOM     16  F   UNL     1      32.328 -22.414 -19.483  0.00  0.00    -0.191 F 
ATOM     17  F   UNL     1      33.730 -24.001 -19.856  0.00  0.00    -0.191 F 
ATOM     18  C   UNL     1      33.629 -22.787 -19.202  0.00  0.00    +0.335 C 
BRANCH  18  20
ATOM     19  N   UNL     1      37.386 -19.038 -21.166  0.00  0.00    -0.244 NA
ATOM     20  C   UNL     1      34.612 -21.795 -19.726  0.00  0.00    +0.045 C 
ATOM     21  C   UNL     1      34.226 -20.871 -20.692  0.00  0.00    +0.003 C 
ATOM     22  C   UNL     1      35.149 -19.934 -21.188  0.00  0.00    +0.018 C 
ATOM     23  C   UNL     1      35.918 -21.788 -19.252  0.00  0.00    +0.003 C 
ATOM     24  C   UNL     1      36.476 -19.921 -20.712  0.00  0.00    +0.081 C 
ATOM     25  C   UNL     1      36.835 -20.857 -19.746  0.00  0.00    +0.019 C 
ATOM     26  C   UNL     1      34.787 -18.992 -22.161  0.00  0.00    +0.003 C 
ATOM     27  C   UNL     1      35.722 -18.080 -22.630  0.00  0.00    +0.021 C 
ATOM     28  C   UNL     1      36.997 -18.144 -22.104  0.00  0.00    +0.099 C 
ENDBRANCH  18  20
ENDBRANCH   5  18
TORSDOF 3
ENDMDL
MODEL 5
REMARK VINA RESULT:     -11.2      4.972      8.450
REMARK  Name = 46911863
REMARK  3 active torsions:
REMARK  status: ('A' for Active; 'I' for Inactive)
REMARK    1  A    between atoms: C_5  and  C_18
REMARK    2  A    between atoms: C_7  and  C_12
REMARK    3  A    between atoms: C_18  and  C_20
REMARK                            x       y       z     vdW  Elec       q    Type
REMARK                         _______ _______ _______ _____ _____    ______ ____
ROOT
ATOM      1  N   UNL     1      34.145 -16.293 -23.792  0.00  0.00    -0.190 N 
ATOM      2  N   UNL     1      34.665 -16.924 -22.710  0.00  0.00    -0.162 NA
ATOM      3  N   UNL     1      33.271 -14.743 -25.072  0.00  0.00    -0.126 NA
ATOM      4  N   UNL     1      33.408 -15.893 -25.821  0.00  0.00    -0.127 NA
ATOM      5  C   UNL     1      33.718 -15.000 -23.863  0.00  0.00    +0.228 A 
ATOM      6  C   UNL     1      33.933 -16.819 -25.046  0.00  0.00    +0.187 A 
ATOM      7  C   UNL     1      34.983 -18.169 -22.928  0.00  0.00    +0.104 C 
ATOM      8  C   UNL     1      34.301 -18.161 -25.257  0.00  0.00    +0.042 C 
ATOM      9  C   UNL     1      34.825 -18.866 -24.246  0.00  0.00    +0.024 C 
ENDROOT
BRANCH   7  12
ATOM     10  N   UNL     1      35.856 -20.488 -20.274  0.00  0.00    -0.208 N 
ATOM     11  N   UNL     1      36.955 -19.720 -20.173  0.00  0.00    -0.176 NA
ATOM     12  C   UNL     1      35.558 -18.971 -21.816  0.00  0.00    +0.056 C 
ATOM     13  C   UNL     1      34.987 -20.082 -21.243  0.00  0.00    +0.087 C 
ATOM     14  C   UNL     1      36.766 -18.794 -21.117  0.00  0.00    +0.121 C 
ATOM     15  C   UNL     1      35.691 -21.622 -19.397  0.00  0.00    +0.140 C 
ENDBRANCH   7  12
BRANCH   5  18
ATOM     16  F   UNL     1      35.004 -14.131 -22.060  0.00  0.00    -0.191 F 
ATOM     17  F   UNL     1      32.916 -14.479 -21.685  0.00  0.00    -0.191 F 
ATOM     18  C   UNL     1      33.771 -14.036 -22.677  0.00  0.00    +0.335 C 
BRANCH  18  20
ATOM     19  N   UNL     1      32.576  -8.718 -24.197  0.00  0.00    -0.244 NA
ATOM     20  C   UNL     1      33.464 -12.635 -23.084  0.00  0.00    +0.045 C 
ATOM     21  C   UNL     1      34.240 -12.001 -24.049  0.00  0.00    +0.003 C 
ATOM     22  C   UNL     1      33.954 -10.680 -24.436  0.00  0.00    +0.018 C 
ATOM     23  C   UNL     1      32.402 -11.955 -22.502  0.00  0.00    +0.003 C 
ATOM     24  C   UNL     1      32.877  -9.984 -23.850  0.00  0.00    +0.081 C 
ATOM     25  C   UNL     1      32.118 -10.643 -22.886  0.00  0.00    +0.019 C 
ATOM     26  C   UNL     1      34.719 -10.018 -25.406  0.00  0.00    +0.003 C 
ATOM     27  C   UNL     1      34.410  -8.714 -25.766  0.00  0.00    +0.021 C 
ATOM     28  C   UNL     1      33.338  -8.114 -25.137  0.00  0.00    +0.099 C 
ENDBRANCH  18  20
ENDBRANCH   5  18
TORSDOF 3
ENDMDL
MODEL 6
REMARK VINA RESULT:     -11.0      6.966     12.501
REMARK  Name = 46911863
REMARK  3 active torsions:
REMARK  status: ('A' for Active; 'I' for Inactive)
REMARK    1  A    between atoms: C_5  and  C_18
REMARK    2  A    between atoms: C_7  and  C_12
REMARK    3  A    between atoms: C_18  and  C_20
REMARK                            x       y       z     vdW  Elec       q    Type
REMARK                         _______ _______ _______ _____ _____    ______ ____
ROOT
ATOM      1  N   UNL     1      32.248 -11.666 -22.233  0.00  0.00    -0.190 N 
ATOM      2  N   UNL     1      32.489 -10.535 -22.942  0.00  0.00    -0.162 NA
ATOM      3  N   UNL     1      32.231 -13.771 -21.623  0.00  0.00    -0.126 NA
ATOM      4  N   UNL     1      31.521 -13.046 -20.688  0.00  0.00    -0.127 NA
ATOM      5  C   UNL     1      32.659 -12.930 -22.538  0.00  0.00    +0.228 A 
ATOM      6  C   UNL     1      31.536 -11.784 -21.062  0.00  0.00    +0.187 A 
ATOM      7  C   UNL     1      31.966  -9.463 -22.418  0.00  0.00    +0.104 C 
ATOM      8  C   UNL     1      30.996 -10.606 -20.510  0.00  0.00    +0.042 C 
ATOM      9  C   UNL     1      31.183  -9.440 -21.139  0.00  0.00    +0.024 C 
ENDROOT
BRANCH   7  12
ATOM     10  N   UNL     1      33.054  -6.439 -24.108  0.00  0.00    -0.208 N 
ATOM     11  N   UNL     1      31.746  -6.130 -24.070  0.00  0.00    -0.176 NA
ATOM     12  C   UNL     1      32.156  -8.159 -23.105  0.00  0.00    +0.056 C 
ATOM     13  C   UNL     1      33.352  -7.644 -23.543  0.00  0.00    +0.087 C 
ATOM     14  C   UNL     1      31.203  -7.184 -23.456  0.00  0.00    +0.121 C 
ATOM     15  C   UNL     1      33.990  -5.522 -24.713  0.00  0.00    +0.140 C 
ENDBRANCH   7  12
BRANCH   5  18
ATOM     16  F   UNL     1      34.600 -12.440 -23.822  0.00  0.00    -0.191 F 
ATOM     17  F   UNL     1      32.800 -12.879 -24.912  0.00  0.00    -0.191 F 
ATOM     18  C   UNL     1      33.490 -13.263 -23.777  0.00  0.00    +0.335 C 
BRANCH  18  20
ATOM     19  N   UNL     1      34.916 -18.735 -23.989  0.00  0.00    -0.244 NA
ATOM     20  C   UNL     1      33.869 -14.704 -23.823  0.00  0.00    +0.045 C 
ATOM     21  C   UNL     1      34.428 -15.317 -22.705  0.00  0.00    +0.003 C 
ATOM     22  C   UNL     1      34.786 -16.675 -22.744  0.00  0.00    +0.018 C 
ATOM     23  C   UNL     1      33.668 -15.443 -24.982  0.00  0.00    +0.003 C 
ATOM     24  C   UNL     1      34.583 -17.431 -23.917  0.00  0.00    +0.081 C 
ATOM     25  C   UNL     1      34.024 -16.793 -25.020  0.00  0.00    +0.019 C 
ATOM     26  C   UNL     1      35.349 -17.318 -21.633  0.00  0.00    +0.003 C 
ATOM     27  C   UNL     1      35.691 -18.660 -21.704  0.00  0.00    +0.021 C 
ATOM     28  C   UNL     1      35.456 -19.318 -22.894  0.00  0.00    +0.099 C 
ENDBRANCH  18  20
ENDBRANCH   5  18
TORSDOF 3
ENDMDL
MODEL 7
REMARK VINA RESULT:     -11.0      2.329      3.667
REMARK  Name = 46911863
REMARK  3 active torsions:
REMARK  status: ('A' for Active; 'I' for Inactive)
REMARK    1  A    between atoms: C_5  and  C_18
REMARK    2  A    between atoms: C_7  and  C_12
REMARK    3  A    between atoms: C_18  and  C_20
REMARK                            x       y       z     vdW  Elec       q    Type
REMARK                         _______ _______ _______ _____ _____    ______ ____
ROOT
ATOM      1  N   UNL     1      35.081 -22.737 -16.936  0.00  0.00    -0.190 N 
ATOM      2  N   UNL     1      33.846 -23.217 -16.646  0.00  0.00    -0.162 NA
ATOM      3  N   UNL     1      36.762 -21.857 -18.032  0.00  0.00    -0.126 NA
ATOM      4  N   UNL     1      37.189 -22.152 -16.754  0.00  0.00    -0.127 NA
ATOM      5  C   UNL     1      35.500 -22.212 -18.123  0.00  0.00    +0.228 A 
ATOM      6  C   UNL     1      36.174 -22.679 -16.102  0.00  0.00    +0.187 A 
ATOM      7  C   UNL     1      33.729 -23.668 -15.429  0.00  0.00    +0.104 C 
ATOM      8  C   UNL     1      36.013 -23.158 -14.788  0.00  0.00    +0.042 C 
ATOM      9  C   UNL     1      34.828 -23.651 -14.409  0.00  0.00    +0.024 C 
ENDROOT
BRANCH   7  12
ATOM     10  N   UNL     1      30.310 -24.770 -14.900  0.00  0.00    -0.208 N 
ATOM     11  N   UNL     1      30.818 -25.307 -13.777  0.00  0.00    -0.176 NA
ATOM     12  C   UNL     1      32.423 -24.226 -14.990  0.00  0.00    +0.056 C 
ATOM     13  C   UNL     1      31.230 -24.111 -15.661  0.00  0.00    +0.087 C 
ATOM     14  C   UNL     1      32.109 -24.970 -13.838  0.00  0.00    +0.121 C 
ATOM     15  C   UNL     1      28.906 -24.924 -15.197  0.00  0.00    +0.140 C 
ENDBRANCH   7  12
BRANCH   5  18
ATOM     16  F   UNL     1      33.287 -21.892 -18.935  0.00  0.00    -0.191 F 
ATOM     17  F   UNL     1      34.517 -23.302 -19.994  0.00  0.00    -0.191 F 
ATOM     18  C   UNL     1      34.593 -22.083 -19.347  0.00  0.00    +0.335 C 
BRANCH  18  20
ATOM     19  N   UNL     1      36.348 -17.965 -22.809  0.00  0.00    -0.244 NA
ATOM     20  C   UNL     1      35.046 -20.999 -20.264  0.00  0.00    +0.045 C 
ATOM     21  C   UNL     1      34.211 -20.549 -21.282  0.00  0.00    +0.003 C 
ATOM     22  C   UNL     1      34.635 -19.526 -22.149  0.00  0.00    +0.018 C 
ATOM     23  C   UNL     1      36.305 -20.432 -20.108  0.00  0.00    +0.003 C 
ATOM     24  C   UNL     1      35.911 -18.946 -21.995  0.00  0.00    +0.081 C 
ATOM     25  C   UNL     1      36.725 -19.416 -20.970  0.00  0.00    +0.019 C 
ATOM     26  C   UNL     1      33.814 -19.053 -23.182  0.00  0.00    +0.003 C 
ATOM     27  C   UNL     1      34.261 -18.043 -24.020  0.00  0.00    +0.021 C 
ATOM     28  C   UNL     1      35.525 -17.537 -23.793  0.00  0.00    +0.099 C 
ENDBRANCH  18  20
ENDBRANCH   5  18
TORSDOF 3
ENDMDL
MODEL 8
REMARK VINA RESULT:     -10.9      2.618      8.879
REMARK  Name = 46911863
REMARK  3 active torsions:
REMARK  status: ('A' for Active; 'I' for Inactive)
REMARK    1  A    between atoms: C_5  and  C_18
REMARK    2  A    between atoms: C_7  and  C_12
REMARK    3  A    between atoms: C_18  and  C_20
REMARK                            x       y       z     vdW  Elec       q    Type
REMARK                         _______ _______ _______ _____ _____    ______ ____
ROOT
ATOM      1  N   UNL     1      35.153 -20.397 -20.584  0.00  0.00    -0.190 N 
ATOM      2  N   UNL     1      34.468 -19.789 -21.583  0.00  0.00    -0.162 NA
ATOM      3  N   UNL     1      35.618 -21.652 -18.848  0.00  0.00    -0.126 NA
ATOM      4  N   UNL     1      36.774 -21.006 -19.234  0.00  0.00    -0.127 NA
ATOM      5  C   UNL     1      34.660 -21.277 -19.666  0.00  0.00    +0.228 A 
ATOM      6  C   UNL     1      36.487 -20.255 -20.276  0.00  0.00    +0.187 A 
ATOM      7  C   UNL     1      35.194 -18.985 -22.308  0.00  0.00    +0.104 C 
ATOM      8  C   UNL     1      37.251 -19.393 -21.087  0.00  0.00    +0.042 C 
ATOM      9  C   UNL     1      36.660 -18.748 -22.100  0.00  0.00    +0.024 C 
ENDROOT
BRANCH   7  12
ATOM     10  N   UNL     1      33.876 -16.671 -24.777  0.00  0.00    -0.208 N 
ATOM     11  N   UNL     1      33.387 -17.790 -25.340  0.00  0.00    -0.176 NA
ATOM     12  C   UNL     1      34.555 -18.254 -23.434  0.00  0.00    +0.056 C 
ATOM     13  C   UNL     1      34.584 -16.895 -23.633  0.00  0.00    +0.087 C 
ATOM     14  C   UNL     1      33.805 -18.753 -24.515  0.00  0.00    +0.121 C 
ATOM     15  C   UNL     1      33.629 -15.391 -25.394  0.00  0.00    +0.140 C 
ENDBRANCH   7  12
BRANCH   5  18
ATOM     16  F   UNL     1      32.933 -22.501 -20.751  0.00  0.00    -0.191 F 
ATOM     17  F   UNL     1      32.378 -20.631 -19.847  0.00  0.00    -0.191 F 
ATOM     18  C   UNL     1      33.198 -21.724 -19.639  0.00  0.00    +0.335 C 
BRANCH  18  20
ATOM     19  N   UNL     1      31.942 -24.437 -14.835  0.00  0.00    -0.244 NA
ATOM     20  C   UNL     1      32.857 -22.436 -18.374  0.00  0.00    +0.045 C 
ATOM     21  C   UNL     1      31.550 -22.428 -17.897  0.00  0.00    +0.003 C 
ATOM     22  C   UNL     1      31.224 -23.099 -16.706  0.00  0.00    +0.018 C 
ATOM     23  C   UNL     1      33.843 -23.110 -17.664  0.00  0.00    +0.003 C 
ATOM     24  C   UNL     1      32.220 -23.786 -15.980  0.00  0.00    +0.081 C 
ATOM     25  C   UNL     1      33.519 -23.775 -16.480  0.00  0.00    +0.019 C 
ATOM     26  C   UNL     1      29.916 -23.108 -16.203  0.00  0.00    +0.003 C 
ATOM     27  C   UNL     1      29.627 -23.780 -15.024  0.00  0.00    +0.021 C 
ATOM     28  C   UNL     1      30.666 -24.423 -14.384  0.00  0.00    +0.099 C 
ENDBRANCH  18  20
ENDBRANCH   5  18
TORSDOF 3
ENDMDL
MODEL 9
REMARK VINA RESULT:     -10.8      9.155     13.395
REMARK  Name = 46911863
REMARK  3 active torsions:
REMARK  status: ('A' for Active; 'I' for Inactive)
REMARK    1  A    between atoms: C_5  and  C_18
REMARK    2  A    between atoms: C_7  and  C_12
REMARK    3  A    between atoms: C_18  and  C_20
REMARK                            x       y       z     vdW  Elec       q    Type
REMARK                         _______ _______ _______ _____ _____    ______ ____
ROOT
ATOM      1  N   UNL     1      32.664 -10.863 -23.143  0.00  0.00    -0.190 N 
ATOM      2  N   UNL     1      33.165 -11.907 -23.849  0.00  0.00    -0.162 NA
ATOM      3  N   UNL     1      32.173  -8.818 -22.525  0.00  0.00    -0.126 NA
ATOM      4  N   UNL     1      31.636  -9.689 -21.599  0.00  0.00    -0.127 NA
ATOM      5  C   UNL     1      32.783  -9.537 -23.441  0.00  0.00    +0.228 A 
ATOM      6  C   UNL     1      31.935 -10.914 -21.977  0.00  0.00    +0.187 A 
ATOM      7  C   UNL     1      32.905 -13.071 -23.325  0.00  0.00    +0.104 C 
ATOM      8  C   UNL     1      31.655 -12.186 -21.443  0.00  0.00    +0.042 C 
ATOM      9  C   UNL     1      32.108 -13.277 -22.072  0.00  0.00    +0.024 C 
ENDROOT
BRANCH   7  12
ATOM     10  N   UNL     1      34.352 -16.223 -24.399  0.00  0.00    -0.208 N 
ATOM     11  N   UNL     1      33.872 -15.859 -25.601  0.00  0.00    -0.176 NA
ATOM     12  C   UNL     1      33.406 -14.295 -24.003  0.00  0.00    +0.056 C 
ATOM     13  C   UNL     1      34.100 -15.321 -23.408  0.00  0.00    +0.087 C 
ATOM     14  C   UNL     1      33.296 -14.680 -25.353  0.00  0.00    +0.121 C 
ATOM     15  C   UNL     1      35.059 -17.474 -24.259  0.00  0.00    +0.140 C 
ENDBRANCH   7  12
BRANCH   5  18
ATOM     16  F   UNL     1      33.084  -9.690 -25.795  0.00  0.00    -0.191 F 
ATOM     17  F   UNL     1      34.853  -9.413 -24.605  0.00  0.00    -0.191 F 
ATOM     18  C   UNL     1      33.529  -9.020 -24.671  0.00  0.00    +0.335 C 
BRANCH  18  20
ATOM     19  N   UNL     1      33.075  -3.409 -25.242  0.00  0.00    -0.244 NA
ATOM     20  C   UNL     1      33.399  -7.543 -24.821  0.00  0.00    +0.045 C 
ATOM     21  C   UNL     1      32.144  -6.943 -24.782  0.00  0.00    +0.003 C 
ATOM     22  C   UNL     1      32.017  -5.550 -24.922  0.00  0.00    +0.018 C 
ATOM     23  C   UNL     1      34.530  -6.756 -25.000  0.00  0.00    +0.003 C 
ATOM     24  C   UNL     1      33.161  -4.746 -25.104  0.00  0.00    +0.081 C 
ATOM     25  C   UNL     1      34.403  -5.372 -25.140  0.00  0.00    +0.019 C 
ATOM     26  C   UNL     1      30.766  -4.920 -24.886  0.00  0.00    +0.003 C 
ATOM     27  C   UNL     1      30.674  -3.543 -25.028  0.00  0.00    +0.021 C 
ATOM     28  C   UNL     1      31.849  -2.839 -25.202  0.00  0.00    +0.099 C 
ENDBRANCH  18  20
ENDBRANCH   5  18
TORSDOF 3
ENDMDL
