MODEL 1
REMARK VINA RESULT:     -12.2      0.000      0.000
REMARK  Name = 9808844
REMARK  5 active torsions:
REMARK  status: ('A' for Active; 'I' for Inactive)
REMARK    1  A    between atoms: N_2  and  C_13
REMARK    2  A    between atoms: C_8  and  O_19
REMARK    3  A    between atoms: O_19  and  C_20
REMARK    4  A    between atoms: C_20  and  C_22
REMARK    5  A    between atoms: C_25  and  C_29
REMARK                            x       y       z     vdW  Elec       q    Type
REMARK                         _______ _______ _______ _____ _____    ______ ____
ROOT
ATOM      1  O   UNL     1      35.307 -23.008 -17.472  0.00  0.00    -0.446 OA
ATOM      2  N   UNL     1      35.491 -19.803 -20.897  0.00  0.00    -0.296 N 
ATOM      3  N   UNL     1      33.453 -20.958 -20.426  0.00  0.00    -0.130 NA
ATOM      4  N   UNL     1      32.699 -21.881 -19.711  0.00  0.00    -0.106 NA
ATOM      5  C   UNL     1      35.354 -21.473 -19.128  0.00  0.00    +0.076 A 
ATOM      6  C   UNL     1      34.572 -22.386 -18.435  0.00  0.00    +0.202 A 
ATOM      7  C   UNL     1      34.760 -20.745 -20.153  0.00  0.00    +0.157 A 
ATOM      8  C   UNL     1      33.239 -22.605 -18.712  0.00  0.00    +0.279 A 
ATOM      9  C   UNL     1      36.646 -21.551 -18.544  0.00  0.00    +0.047 C 
ATOM     10  C   UNL     1      36.563 -22.494 -17.545  0.00  0.00    +0.180 C 
ATOM     11  H   UNL     1      36.432 -19.725 -20.618  0.00  0.00    +0.154 HD
ENDROOT
BRANCH   2  13
ATOM     12 CL   UNL     1      34.039 -16.209 -25.373  0.00  0.00    -0.082 Cl
ATOM     13  C   UNL     1      35.145 -18.946 -21.964  0.00  0.00    +0.049 C 
ATOM     14  C   UNL     1      35.272 -17.565 -21.818  0.00  0.00    +0.016 C 
ATOM     15  C   UNL     1      34.676 -19.481 -23.164  0.00  0.00    +0.016 C 
ATOM     16  C   UNL     1      34.930 -16.719 -22.872  0.00  0.00    +0.013 C 
ATOM     17  C   UNL     1      34.335 -18.635 -24.218  0.00  0.00    +0.013 C 
ATOM     18  C   UNL     1      34.462 -17.254 -24.072  0.00  0.00    +0.058 C 
ENDBRANCH   2  13
BRANCH   8  19
ATOM     19  O   UNL     1      32.460 -23.505 -18.033  0.00  0.00    -0.452 OA
BRANCH  19  20
ATOM     20  C   UNL     1      31.549 -22.971 -17.079  0.00  0.00    +0.234 C 
BRANCH  20  22
ATOM     21  N   UNL     1      32.076 -25.015 -13.349  0.00  0.00    -0.239 NA
ATOM     22  C   UNL     1      31.735 -23.687 -15.772  0.00  0.00    +0.024 C 
ATOM     23  C   UNL     1      32.937 -23.581 -15.093  0.00  0.00    +0.023 C 
ATOM     24  C   UNL     1      30.700 -24.451 -15.254  0.00  0.00    +0.020 C 
ATOM     25  C   UNL     1      33.057 -24.260 -13.892  0.00  0.00    +0.134 C 
ATOM     26  C   UNL     1      30.921 -25.092 -14.046  0.00  0.00    +0.099 C 
BRANCH  25  29
ATOM     27  O   UNL     1      34.413 -24.814 -12.060  0.00  0.00    -0.268 OA
ATOM     28  N   UNL     1      35.327 -23.413 -13.666  0.00  0.00    -0.298 N 
ATOM     29  C   UNL     1      34.291 -24.189 -13.130  0.00  0.00    +0.264 C 
ATOM     30  C   UNL     1      36.621 -23.263 -13.039  0.00  0.00    +0.111 C 
ATOM     31  H   UNL     1      35.165 -22.945 -14.516  0.00  0.00    +0.150 HD
ENDBRANCH  25  29
ENDBRANCH  20  22
ENDBRANCH  19  20
ENDBRANCH   8  19
TORSDOF 5
ENDMDL
MODEL 2
REMARK VINA RESULT:     -12.1      2.425      4.046
REMARK  Name = 9808844
REMARK  5 active torsions:
REMARK  status: ('A' for Active; 'I' for Inactive)
REMARK    1  A    between atoms: N_2  and  C_13
REMARK    2  A    between atoms: C_8  and  O_19
REMARK    3  A    between atoms: O_19  and  C_20
REMARK    4  A    between atoms: C_20  and  C_22
REMARK    5  A    between atoms: C_25  and  C_29
REMARK                            x       y       z     vdW  Elec       q    Type
REMARK                         _______ _______ _______ _____ _____    ______ ____
ROOT
ATOM      1  O   UNL     1      35.199 -23.125 -17.193  0.00  0.00    -0.446 OA
ATOM      2  N   UNL     1      35.505 -20.002 -20.685  0.00  0.00    -0.296 N 
ATOM      3  N   UNL     1      33.434 -21.100 -20.219  0.00  0.00    -0.130 NA
ATOM      4  N   UNL     1      32.650 -21.990 -19.495  0.00  0.00    -0.106 NA
ATOM      5  C   UNL     1      35.305 -21.628 -18.881  0.00  0.00    +0.076 A 
ATOM      6  C   UNL     1      34.492 -22.508 -18.180  0.00  0.00    +0.202 A 
ATOM      7  C   UNL     1      34.742 -20.910 -19.931  0.00  0.00    +0.157 A 
ATOM      8  C   UNL     1      33.159 -22.703 -18.472  0.00  0.00    +0.279 A 
ATOM      9  C   UNL     1      36.586 -21.722 -18.276  0.00  0.00    +0.047 C 
ATOM     10  C   UNL     1      36.467 -22.641 -17.259  0.00  0.00    +0.180 C 
ATOM     11  H   UNL     1      36.443 -19.939 -20.394  0.00  0.00    +0.154 HD
ENDROOT
BRANCH   2  13
ATOM     12 CL   UNL     1      34.200 -16.477 -25.260  0.00  0.00    -0.082 Cl
ATOM     13  C   UNL     1      35.194 -19.162 -21.775  0.00  0.00    +0.049 C 
ATOM     14  C   UNL     1      34.741 -19.714 -22.973  0.00  0.00    +0.016 C 
ATOM     15  C   UNL     1      35.339 -17.780 -21.654  0.00  0.00    +0.016 C 
ATOM     16  C   UNL     1      34.434 -18.884 -24.051  0.00  0.00    +0.013 C 
ATOM     17  C   UNL     1      35.031 -16.950 -22.731  0.00  0.00    +0.013 C 
ATOM     18  C   UNL     1      34.579 -17.502 -23.929  0.00  0.00    +0.058 C 
ENDBRANCH   2  13
BRANCH   8  19
ATOM     19  O   UNL     1      32.349 -23.570 -17.786  0.00  0.00    -0.452 OA
BRANCH  19  20
ATOM     20  C   UNL     1      32.085 -23.257 -16.423  0.00  0.00    +0.234 C 
BRANCH  20  22
ATOM     21  N   UNL     1      28.151 -24.625 -15.412  0.00  0.00    -0.239 NA
ATOM     22  C   UNL     1      30.707 -23.735 -16.069  0.00  0.00    +0.024 C 
ATOM     23  C   UNL     1      29.600 -23.011 -16.478  0.00  0.00    +0.023 C 
ATOM     24  C   UNL     1      30.551 -24.900 -15.333  0.00  0.00    +0.020 C 
ATOM     25  C   UNL     1      28.351 -23.496 -16.126  0.00  0.00    +0.134 C 
ATOM     26  C   UNL     1      29.259 -25.300 -15.032  0.00  0.00    +0.099 C 
BRANCH  25  29
ATOM     27  O   UNL     1      26.288 -22.472 -15.682  0.00  0.00    -0.268 OA
ATOM     28  N   UNL     1      27.026 -22.450 -17.880  0.00  0.00    -0.298 N 
ATOM     29  C   UNL     1      27.149 -22.783 -16.525  0.00  0.00    +0.264 C 
ATOM     30  C   UNL     1      25.903 -21.723 -18.426  0.00  0.00    +0.111 C 
ATOM     31  H   UNL     1      27.744 -22.726 -18.494  0.00  0.00    +0.150 HD
ENDBRANCH  25  29
ENDBRANCH  20  22
ENDBRANCH  19  20
ENDBRANCH   8  19
TORSDOF 5
ENDMDL
MODEL 3
REMARK VINA RESULT:     -11.5      2.211      3.548
REMARK  Name = 9808844
REMARK  5 active torsions:
REMARK  status: ('A' for Active; 'I' for Inactive)
REMARK    1  A    between atoms: N_2  and  C_13
REMARK    2  A    between atoms: C_8  and  O_19
REMARK    3  A    between atoms: O_19  and  C_20
REMARK    4  A    between atoms: C_20  and  C_22
REMARK    5  A    between atoms: C_25  and  C_29
REMARK                            x       y       z     vdW  Elec       q    Type
REMARK                         _______ _______ _______ _____ _____    ______ ____
ROOT
ATOM      1  O   UNL     1      35.331 -22.356 -18.794  0.00  0.00    -0.446 OA
ATOM      2  N   UNL     1      35.321 -18.883 -21.953  0.00  0.00    -0.296 N 
ATOM      3  N   UNL     1      33.269 -19.877 -21.238  0.00  0.00    -0.130 NA
ATOM      4  N   UNL     1      32.541 -20.786 -20.478  0.00  0.00    -0.106 NA
ATOM      5  C   UNL     1      35.284 -20.687 -20.315  0.00  0.00    +0.076 A 
ATOM      6  C   UNL     1      34.525 -21.581 -19.572  0.00  0.00    +0.202 A 
ATOM      7  C   UNL     1      34.618 -19.815 -21.170  0.00  0.00    +0.157 A 
ATOM      8  C   UNL     1      33.150 -21.646 -19.639  0.00  0.00    +0.279 A 
ATOM      9  C   UNL     1      36.635 -20.940 -19.961  0.00  0.00    +0.047 C 
ATOM     10  C   UNL     1      36.608 -21.959 -19.036  0.00  0.00    +0.180 C 
ATOM     11  H   UNL     1      36.296 -18.921 -21.829  0.00  0.00    +0.154 HD
ENDROOT
BRANCH   2  13
ATOM     12 CL   UNL     1      33.582 -14.774 -25.845  0.00  0.00    -0.082 Cl
ATOM     13  C   UNL     1      34.906 -17.904 -22.881  0.00  0.00    +0.049 C 
ATOM     14  C   UNL     1      34.383 -18.290 -24.114  0.00  0.00    +0.016 C 
ATOM     15  C   UNL     1      35.020 -16.550 -22.563  0.00  0.00    +0.016 C 
ATOM     16  C   UNL     1      33.973 -17.322 -25.031  0.00  0.00    +0.013 C 
ATOM     17  C   UNL     1      34.610 -15.583 -23.480  0.00  0.00    +0.013 C 
ATOM     18  C   UNL     1      34.087 -15.969 -24.713  0.00  0.00    +0.058 C 
ENDBRANCH   2  13
BRANCH   8  19
ATOM     19  O   UNL     1      32.394 -22.526 -18.910  0.00  0.00    -0.452 OA
BRANCH  19  20
ATOM     20  C   UNL     1      33.071 -23.275 -17.907  0.00  0.00    +0.234 C 
BRANCH  20  22
ATOM     21  N   UNL     1      30.627 -23.436 -14.390  0.00  0.00    -0.239 NA
ATOM     22  C   UNL     1      32.214 -23.331 -16.676  0.00  0.00    +0.024 C 
ATOM     23  C   UNL     1      30.838 -23.420 -16.798  0.00  0.00    +0.023 C 
ATOM     24  C   UNL     1      32.807 -23.293 -15.423  0.00  0.00    +0.020 C 
ATOM     25  C   UNL     1      30.093 -23.470 -15.631  0.00  0.00    +0.134 C 
ATOM     26  C   UNL     1      31.974 -23.348 -14.318  0.00  0.00    +0.099 C 
BRANCH  25  29
ATOM     27  O   UNL     1      28.058 -24.579 -15.271  0.00  0.00    -0.268 OA
ATOM     28  N   UNL     1      27.955 -22.462 -16.211  0.00  0.00    -0.298 N 
ATOM     29  C   UNL     1      28.644 -23.564 -15.690  0.00  0.00    +0.264 C 
ATOM     30  C   UNL     1      26.515 -22.395 -16.313  0.00  0.00    +0.111 C 
ATOM     31  H   UNL     1      28.480 -21.691 -16.524  0.00  0.00    +0.150 HD
ENDBRANCH  25  29
ENDBRANCH  20  22
ENDBRANCH  19  20
ENDBRANCH   8  19
TORSDOF 5
ENDMDL
MODEL 4
REMARK VINA RESULT:     -11.0      1.473      2.004
REMARK  Name = 9808844
REMARK  5 active torsions:
REMARK  status: ('A' for Active; 'I' for Inactive)
REMARK    1  A    between atoms: N_2  and  C_13
REMARK    2  A    between atoms: C_8  and  O_19
REMARK    3  A    between atoms: O_19  and  C_20
REMARK    4  A    between atoms: C_20  and  C_22
REMARK    5  A    between atoms: C_25  and  C_29
REMARK                            x       y       z     vdW  Elec       q    Type
REMARK                         _______ _______ _______ _____ _____    ______ ____
ROOT
ATOM      1  O   UNL     1      35.337 -22.246 -19.011  0.00  0.00    -0.446 OA
ATOM      2  N   UNL     1      35.263 -18.738 -22.129  0.00  0.00    -0.296 N 
ATOM      3  N   UNL     1      33.223 -19.680 -21.317  0.00  0.00    -0.130 NA
ATOM      4  N   UNL     1      32.510 -20.576 -20.529  0.00  0.00    -0.106 NA
ATOM      5  C   UNL     1      35.259 -20.559 -20.510  0.00  0.00    +0.076 A 
ATOM      6  C   UNL     1      34.515 -21.440 -19.737  0.00  0.00    +0.202 A 
ATOM      7  C   UNL     1      34.575 -19.658 -21.320  0.00  0.00    +0.157 A 
ATOM      8  C   UNL     1      33.136 -21.464 -19.732  0.00  0.00    +0.279 A 
ATOM      9  C   UNL     1      36.618 -20.855 -20.231  0.00  0.00    +0.047 C 
ATOM     10  C   UNL     1      36.611 -21.884 -19.316  0.00  0.00    +0.180 C 
ATOM     11  H   UNL     1      36.242 -18.805 -22.058  0.00  0.00    +0.154 HD
ENDROOT
BRANCH   2  13
ATOM     12 CL   UNL     1      33.443 -14.534 -25.881  0.00  0.00    -0.082 Cl
ATOM     13  C   UNL     1      34.829 -17.736 -23.024  0.00  0.00    +0.049 C 
ATOM     14  C   UNL     1      34.330 -18.089 -24.277  0.00  0.00    +0.016 C 
ATOM     15  C   UNL     1      34.898 -16.393 -22.653  0.00  0.00    +0.016 C 
ATOM     16  C   UNL     1      33.901 -17.099 -25.161  0.00  0.00    +0.013 C 
ATOM     17  C   UNL     1      34.470 -15.403 -23.537  0.00  0.00    +0.013 C 
ATOM     18  C   UNL     1      33.971 -15.756 -24.790  0.00  0.00    +0.058 C 
ENDBRANCH   2  13
BRANCH   8  19
ATOM     19  O   UNL     1      32.394 -22.330 -18.973  0.00  0.00    -0.452 OA
BRANCH  19  20
ATOM     20  C   UNL     1      33.071 -23.469 -18.454  0.00  0.00    +0.234 C 
BRANCH  20  22
ATOM     21  N   UNL     1      32.750 -23.454 -14.180  0.00  0.00    -0.239 NA
ATOM     22  C   UNL     1      32.960 -23.464 -16.957  0.00  0.00    +0.024 C 
ATOM     23  C   UNL     1      34.081 -23.708 -16.182  0.00  0.00    +0.023 C 
ATOM     24  C   UNL     1      31.733 -23.216 -16.360  0.00  0.00    +0.020 C 
ATOM     25  C   UNL     1      33.924 -23.692 -14.805  0.00  0.00    +0.134 C 
ATOM     26  C   UNL     1      31.682 -23.222 -14.976  0.00  0.00    +0.099 C 
BRANCH  25  29
ATOM     27  O   UNL     1      35.920 -23.057 -13.749  0.00  0.00    -0.268 OA
ATOM     28  N   UNL     1      35.125 -25.191 -13.312  0.00  0.00    -0.298 N 
ATOM     29  C   UNL     1      35.061 -23.939 -13.936  0.00  0.00    +0.264 C 
ATOM     30  C   UNL     1      36.179 -25.578 -12.402  0.00  0.00    +0.111 C 
ATOM     31  H   UNL     1      34.413 -25.843 -13.502  0.00  0.00    +0.150 HD
ENDBRANCH  25  29
ENDBRANCH  20  22
ENDBRANCH  19  20
ENDBRANCH   8  19
TORSDOF 5
ENDMDL
MODEL 5
REMARK VINA RESULT:     -10.9      7.120     10.849
REMARK  Name = 9808844
REMARK  5 active torsions:
REMARK  status: ('A' for Active; 'I' for Inactive)
REMARK    1  A    between atoms: N_2  and  C_13
REMARK    2  A    between atoms: C_8  and  O_19
REMARK    3  A    between atoms: O_19  and  C_20
REMARK    4  A    between atoms: C_20  and  C_22
REMARK    5  A    between atoms: C_25  and  C_29
REMARK                            x       y       z     vdW  Elec       q    Type
REMARK                         _______ _______ _______ _____ _____    ______ ____
ROOT
ATOM      1  O   UNL     1      32.109 -13.778 -21.698  0.00  0.00    -0.446 OA
ATOM      2  N   UNL     1      32.678  -9.327 -23.079  0.00  0.00    -0.296 N 
ATOM      3  N   UNL     1      33.508 -11.126 -24.415  0.00  0.00    -0.130 NA
ATOM      4  N   UNL     1      33.712 -12.477 -24.669  0.00  0.00    -0.106 NA
ATOM      5  C   UNL     1      32.402 -11.651 -22.398  0.00  0.00    +0.076 A 
ATOM      6  C   UNL     1      32.624 -12.991 -22.683  0.00  0.00    +0.202 A 
ATOM      7  C   UNL     1      32.866 -10.702 -23.303  0.00  0.00    +0.157 A 
ATOM      8  C   UNL     1      33.278 -13.426 -23.816  0.00  0.00    +0.279 A 
ATOM      9  C   UNL     1      31.708 -11.630 -21.159  0.00  0.00    +0.047 C 
ATOM     10  C   UNL     1      31.555 -12.944 -20.779  0.00  0.00    +0.180 C 
ATOM     11  H   UNL     1      32.200  -9.126 -22.242  0.00  0.00    +0.154 HD
ENDROOT
BRANCH   2  13
ATOM     12 CL   UNL     1      34.182  -4.505 -26.168  0.00  0.00    -0.082 Cl
ATOM     13  C   UNL     1      33.036  -8.178 -23.815  0.00  0.00    +0.049 C 
ATOM     14  C   UNL     1      32.106  -7.573 -24.660  0.00  0.00    +0.016 C 
ATOM     15  C   UNL     1      34.320  -7.647 -23.696  0.00  0.00    +0.016 C 
ATOM     16  C   UNL     1      32.460  -6.438 -25.387  0.00  0.00    +0.013 C 
ATOM     17  C   UNL     1      34.674  -6.511 -24.424  0.00  0.00    +0.013 C 
ATOM     18  C   UNL     1      33.744  -5.907 -25.269  0.00  0.00    +0.058 C 
ENDBRANCH   2  13
BRANCH   8  19
ATOM     19  O   UNL     1      33.502 -14.746 -24.106  0.00  0.00    -0.452 OA
BRANCH  19  20
ATOM     20  C   UNL     1      34.820 -15.235 -23.887  0.00  0.00    +0.234 C 
BRANCH  20  22
ATOM     21  N   UNL     1      34.667 -19.491 -23.402  0.00  0.00    -0.239 NA
ATOM     22  C   UNL     1      34.767 -16.725 -23.716  0.00  0.00    +0.024 C 
ATOM     23  C   UNL     1      35.320 -17.310 -22.589  0.00  0.00    +0.023 C 
ATOM     24  C   UNL     1      34.165 -17.508 -24.690  0.00  0.00    +0.020 C 
ATOM     25  C   UNL     1      35.244 -18.689 -22.479  0.00  0.00    +0.134 C 
ATOM     26  C   UNL     1      34.141 -18.878 -24.486  0.00  0.00    +0.099 C 
BRANCH  25  29
ATOM     27  O   UNL     1      36.762 -18.868 -20.701  0.00  0.00    -0.268 OA
ATOM     28  N   UNL     1      35.203 -20.568 -20.933  0.00  0.00    -0.298 N 
ATOM     29  C   UNL     1      35.804 -19.364 -21.321  0.00  0.00    +0.264 C 
ATOM     30  C   UNL     1      35.629 -21.343 -19.790  0.00  0.00    +0.111 C 
ATOM     31  H   UNL     1      34.448 -20.904 -21.467  0.00  0.00    +0.150 HD
ENDBRANCH  25  29
ENDBRANCH  20  22
ENDBRANCH  19  20
ENDBRANCH   8  19
TORSDOF 5
ENDMDL
MODEL 6
REMARK VINA RESULT:     -10.8      6.042     11.680
REMARK  Name = 9808844
REMARK  5 active torsions:
REMARK  status: ('A' for Active; 'I' for Inactive)
REMARK    1  A    between atoms: N_2  and  C_13
REMARK    2  A    between atoms: C_8  and  O_19
REMARK    3  A    between atoms: O_19  and  C_20
REMARK    4  A    between atoms: C_20  and  C_22
REMARK    5  A    between atoms: C_25  and  C_29
REMARK                            x       y       z     vdW  Elec       q    Type
REMARK                         _______ _______ _______ _____ _____    ______ ____
ROOT
ATOM      1  O   UNL     1      34.325 -17.238 -24.857  0.00  0.00    -0.446 OA
ATOM      2  N   UNL     1      34.762 -20.494 -21.503  0.00  0.00    -0.296 N 
ATOM      3  N   UNL     1      35.112 -18.183 -21.002  0.00  0.00    -0.130 NA
ATOM      4  N   UNL     1      35.166 -16.842 -21.360  0.00  0.00    -0.106 NA
ATOM      5  C   UNL     1      34.545 -18.774 -23.215  0.00  0.00    +0.076 A 
ATOM      6  C   UNL     1      34.608 -17.425 -23.538  0.00  0.00    +0.202 A 
ATOM      7  C   UNL     1      34.808 -19.147 -21.901  0.00  0.00    +0.157 A 
ATOM      8  C   UNL     1      34.917 -16.441 -22.623  0.00  0.00    +0.279 A 
ATOM      9  C   UNL     1      34.201 -19.442 -24.419  0.00  0.00    +0.047 C 
ATOM     10  C   UNL     1      34.079 -18.467 -25.383  0.00  0.00    +0.180 C 
ATOM     11  H   UNL     1      34.533 -21.113 -22.232  0.00  0.00    +0.154 HD
ENDROOT
BRANCH   2  13
ATOM     12 CL   UNL     1      35.675 -23.185 -16.308  0.00  0.00    -0.082 Cl
ATOM     13  C   UNL     1      34.980 -21.135 -20.265  0.00  0.00    +0.049 C 
ATOM     14  C   UNL     1      33.930 -21.798 -19.629  0.00  0.00    +0.016 C 
ATOM     15  C   UNL     1      36.245 -21.107 -19.678  0.00  0.00    +0.016 C 
ATOM     16  C   UNL     1      34.145 -22.432 -18.406  0.00  0.00    +0.013 C 
ATOM     17  C   UNL     1      36.459 -21.741 -18.454  0.00  0.00    +0.013 C 
ATOM     18  C   UNL     1      35.410 -22.403 -17.819  0.00  0.00    +0.058 C 
ENDBRANCH   2  13
BRANCH   8  19
ATOM     19  O   UNL     1      34.982 -15.108 -22.932  0.00  0.00    -0.452 OA
BRANCH  19  20
ATOM     20  C   UNL     1      33.756 -14.387 -22.920  0.00  0.00    +0.234 C 
BRANCH  20  22
ATOM     21  N   UNL     1      33.575 -11.881 -26.393  0.00  0.00    -0.239 NA
ATOM     22  C   UNL     1      33.692 -13.509 -24.136  0.00  0.00    +0.024 C 
ATOM     23  C   UNL     1      33.854 -12.140 -24.006  0.00  0.00    +0.023 C 
ATOM     24  C   UNL     1      33.472 -14.074 -25.382  0.00  0.00    +0.020 C 
ATOM     25  C   UNL     1      33.788 -11.374 -25.158  0.00  0.00    +0.134 C 
ATOM     26  C   UNL     1      33.422 -13.222 -26.473  0.00  0.00    +0.099 C 
BRANCH  25  29
ATOM     27  O   UNL     1      33.111  -9.174 -25.612  0.00  0.00    -0.268 OA
ATOM     28  N   UNL     1      35.067  -9.448 -24.398  0.00  0.00    -0.298 N 
ATOM     29  C   UNL     1      33.950  -9.932 -25.090  0.00  0.00    +0.264 C 
ATOM     30  C   UNL     1      35.353  -8.042 -24.223  0.00  0.00    +0.111 C 
ATOM     31  H   UNL     1      35.691 -10.102 -24.008  0.00  0.00    +0.150 HD
ENDBRANCH  25  29
ENDBRANCH  20  22
ENDBRANCH  19  20
ENDBRANCH   8  19
TORSDOF 5
ENDMDL
MODEL 7
REMARK VINA RESULT:     -10.7      4.512     10.008
REMARK  Name = 9808844
REMARK  5 active torsions:
REMARK  status: ('A' for Active; 'I' for Inactive)
REMARK    1  A    between atoms: N_2  and  C_13
REMARK    2  A    between atoms: C_8  and  O_19
REMARK    3  A    between atoms: O_19  and  C_20
REMARK    4  A    between atoms: C_20  and  C_22
REMARK    5  A    between atoms: C_25  and  C_29
REMARK                            x       y       z     vdW  Elec       q    Type
REMARK                         _______ _______ _______ _____ _____    ______ ____
ROOT
ATOM      1  O   UNL     1      33.439 -20.696 -20.856  0.00  0.00    -0.446 OA
ATOM      2  N   UNL     1      34.666 -23.040 -16.978  0.00  0.00    -0.296 N 
ATOM      3  N   UNL     1      36.330 -22.011 -18.349  0.00  0.00    -0.130 NA
ATOM      4  N   UNL     1      36.725 -21.270 -19.457  0.00  0.00    -0.106 NA
ATOM      5  C   UNL     1      34.070 -21.814 -18.998  0.00  0.00    +0.076 A 
ATOM      6  C   UNL     1      34.500 -21.078 -20.093  0.00  0.00    +0.202 A 
ATOM      7  C   UNL     1      35.029 -22.288 -18.108  0.00  0.00    +0.157 A 
ATOM      8  C   UNL     1      35.826 -20.795 -20.341  0.00  0.00    +0.279 A 
ATOM      9  C   UNL     1      32.656 -21.880 -19.109  0.00  0.00    +0.047 C 
ATOM     10  C   UNL     1      32.325 -21.186 -20.250  0.00  0.00    +0.180 C 
ATOM     11  H   UNL     1      33.696 -23.185 -16.895  0.00  0.00    +0.154 HD
ENDROOT
BRANCH   2  13
ATOM     12 CL   UNL     1      37.811 -25.507 -12.610  0.00  0.00    -0.082 Cl
ATOM     13  C   UNL     1      35.416 -23.628 -15.936  0.00  0.00    +0.049 C 
ATOM     14  C   UNL     1      36.331 -22.860 -15.217  0.00  0.00    +0.016 C 
ATOM     15  C   UNL     1      35.240 -24.976 -15.627  0.00  0.00    +0.016 C 
ATOM     16  C   UNL     1      37.072 -23.441 -14.188  0.00  0.00    +0.013 C 
ATOM     17  C   UNL     1      35.981 -25.557 -14.598  0.00  0.00    +0.013 C 
ATOM     18  C   UNL     1      36.896 -24.790 -13.879  0.00  0.00    +0.058 C 
ENDBRANCH   2  13
BRANCH   8  19
ATOM     19  O   UNL     1      36.260 -20.070 -21.420  0.00  0.00    -0.452 OA
BRANCH  19  20
ATOM     20  C   UNL     1      35.898 -18.694 -21.454  0.00  0.00    +0.234 C 
BRANCH  20  22
ATOM     21  N   UNL     1      33.951 -17.859 -25.181  0.00  0.00    -0.239 NA
ATOM     22  C   UNL     1      35.216 -18.400 -22.759  0.00  0.00    +0.024 C 
ATOM     23  C   UNL     1      34.981 -17.088 -23.134  0.00  0.00    +0.023 C 
ATOM     24  C   UNL     1      34.825 -19.446 -23.581  0.00  0.00    +0.020 C 
ATOM     25  C   UNL     1      34.349 -16.871 -24.348  0.00  0.00    +0.134 C 
ATOM     26  C   UNL     1      34.200 -19.124 -24.775  0.00  0.00    +0.099 C 
BRANCH  25  29
ATOM     27  O   UNL     1      33.715 -15.302 -25.971  0.00  0.00    -0.268 OA
ATOM     28  N   UNL     1      34.207 -14.492 -23.855  0.00  0.00    -0.298 N 
ATOM     29  C   UNL     1      34.074 -15.518 -24.799  0.00  0.00    +0.264 C 
ATOM     30  C   UNL     1      33.946 -13.101 -24.144  0.00  0.00    +0.111 C 
ATOM     31  H   UNL     1      34.494 -14.732 -22.945  0.00  0.00    +0.150 HD
ENDBRANCH  25  29
ENDBRANCH  20  22
ENDBRANCH  19  20
ENDBRANCH   8  19
TORSDOF 5
ENDMDL
MODEL 8
REMARK VINA RESULT:     -10.4      2.537      4.865
REMARK  Name = 9808844
REMARK  5 active torsions:
REMARK  status: ('A' for Active; 'I' for Inactive)
REMARK    1  A    between atoms: N_2  and  C_13
REMARK    2  A    between atoms: C_8  and  O_19
REMARK    3  A    between atoms: O_19  and  C_20
REMARK    4  A    between atoms: C_20  and  C_22
REMARK    5  A    between atoms: C_25  and  C_29
REMARK                            x       y       z     vdW  Elec       q    Type
REMARK                         _______ _______ _______ _____ _____    ______ ____
ROOT
ATOM      1  O   UNL     1      30.680 -24.476 -15.075  0.00  0.00    -0.446 OA
ATOM      2  N   UNL     1      32.236 -21.989 -18.740  0.00  0.00    -0.296 N 
ATOM      3  N   UNL     1      33.777 -22.975 -17.203  0.00  0.00    -0.130 NA
ATOM      4  N   UNL     1      34.075 -23.724 -16.071  0.00  0.00    -0.106 NA
ATOM      5  C   UNL     1      31.468 -23.287 -16.826  0.00  0.00    +0.076 A 
ATOM      6  C   UNL     1      31.803 -24.029 -15.702  0.00  0.00    +0.202 A 
ATOM      7  C   UNL     1      32.500 -22.751 -17.589  0.00  0.00    +0.157 A 
ATOM      8  C   UNL     1      33.104 -24.259 -15.306  0.00  0.00    +0.279 A 
ATOM      9  C   UNL     1      30.050 -23.288 -16.880  0.00  0.00    +0.047 C 
ATOM     10  C   UNL     1      29.622 -24.022 -15.797  0.00  0.00    +0.180 C 
ATOM     11  H   UNL     1      31.276 -21.885 -18.932  0.00  0.00    +0.154 HD
ENDROOT
BRANCH   2  13
ATOM     12 CL   UNL     1      35.745 -19.282 -22.666  0.00  0.00    -0.082 Cl
ATOM     13  C   UNL     1      33.072 -21.344 -19.676  0.00  0.00    +0.049 C 
ATOM     14  C   UNL     1      34.445 -21.588 -19.669  0.00  0.00    +0.016 C 
ATOM     15  C   UNL     1      32.525 -20.462 -20.609  0.00  0.00    +0.016 C 
ATOM     16  C   UNL     1      35.271 -20.951 -20.593  0.00  0.00    +0.013 C 
ATOM     17  C   UNL     1      33.352 -19.825 -21.533  0.00  0.00    +0.013 C 
ATOM     18  C   UNL     1      34.724 -20.069 -21.526  0.00  0.00    +0.058 C 
ENDBRANCH   2  13
BRANCH   8  19
ATOM     19  O   UNL     1      33.444 -24.990 -14.198  0.00  0.00    -0.452 OA
BRANCH  19  20
ATOM     20  C   UNL     1      33.751 -24.256 -13.018  0.00  0.00    +0.234 C 
BRANCH  20  22
ATOM     21  N   UNL     1      37.981 -24.403 -12.340  0.00  0.00    -0.239 NA
ATOM     22  C   UNL     1      35.232 -24.309 -12.781  0.00  0.00    +0.024 C 
ATOM     23  C   UNL     1      36.025 -25.140 -13.555  0.00  0.00    +0.023 C 
ATOM     24  C   UNL     1      35.798 -23.524 -11.788  0.00  0.00    +0.020 C 
ATOM     25  C   UNL     1      37.386 -25.150 -13.297  0.00  0.00    +0.134 C 
ATOM     26  C   UNL     1      37.169 -23.608 -11.608  0.00  0.00    +0.099 C 
BRANCH  25  29
ATOM     27  O   UNL     1      37.876 -27.095 -14.513  0.00  0.00    -0.268 OA
ATOM     28  N   UNL     1      39.564 -25.518 -14.317  0.00  0.00    -0.298 N 
ATOM     29  C   UNL     1      38.272 -26.000 -14.074  0.00  0.00    +0.264 C 
ATOM     30  C   UNL     1      40.553 -26.234 -15.092  0.00  0.00    +0.111 C 
ATOM     31  H   UNL     1      39.813 -24.643 -13.941  0.00  0.00    +0.150 HD
ENDBRANCH  25  29
ENDBRANCH  20  22
ENDBRANCH  19  20
ENDBRANCH   8  19
TORSDOF 5
ENDMDL
MODEL 9
REMARK VINA RESULT:     -10.2      6.108     11.095
REMARK  Name = 9808844
REMARK  5 active torsions:
REMARK  status: ('A' for Active; 'I' for Inactive)
REMARK    1  A    between atoms: N_2  and  C_13
REMARK    2  A    between atoms: C_8  and  O_19
REMARK    3  A    between atoms: O_19  and  C_20
REMARK    4  A    between atoms: C_20  and  C_22
REMARK    5  A    between atoms: C_25  and  C_29
REMARK                            x       y       z     vdW  Elec       q    Type
REMARK                         _______ _______ _______ _____ _____    ______ ____
ROOT
ATOM      1  O   UNL     1      34.334 -16.769 -24.815  0.00  0.00    -0.446 OA
ATOM      2  N   UNL     1      34.822 -20.196 -21.644  0.00  0.00    -0.296 N 
ATOM      3  N   UNL     1      34.991 -17.904 -20.988  0.00  0.00    -0.130 NA
ATOM      4  N   UNL     1      34.972 -16.542 -21.262  0.00  0.00    -0.106 NA
ATOM      5  C   UNL     1      34.574 -18.388 -23.259  0.00  0.00    +0.076 A 
ATOM      6  C   UNL     1      34.563 -17.021 -23.497  0.00  0.00    +0.202 A 
ATOM      7  C   UNL     1      34.797 -18.826 -21.958  0.00  0.00    +0.157 A 
ATOM      8  C   UNL     1      34.760 -16.079 -22.509  0.00  0.00    +0.279 A 
ATOM      9  C   UNL     1      34.336 -19.000 -24.518  0.00  0.00    +0.047 C 
ATOM     10  C   UNL     1      34.197 -17.976 -25.426  0.00  0.00    +0.180 C 
ATOM     11  H   UNL     1      34.670 -20.781 -22.420  0.00  0.00    +0.154 HD
ENDROOT
BRANCH   2  13
ATOM     12 CL   UNL     1      35.654 -23.146 -16.578  0.00  0.00    -0.082 Cl
ATOM     13  C   UNL     1      35.020 -20.899 -20.436  0.00  0.00    +0.049 C 
ATOM     14  C   UNL     1      33.951 -21.558 -19.830  0.00  0.00    +0.016 C 
ATOM     15  C   UNL     1      36.285 -20.935 -19.851  0.00  0.00    +0.016 C 
ATOM     16  C   UNL     1      34.147 -22.253 -18.637  0.00  0.00    +0.013 C 
ATOM     17  C   UNL     1      36.481 -21.630 -18.658  0.00  0.00    +0.013 C 
ATOM     18  C   UNL     1      35.412 -22.289 -18.051  0.00  0.00    +0.058 C 
ENDBRANCH   2  13
BRANCH   8  19
ATOM     19  O   UNL     1      34.751 -14.728 -22.735  0.00  0.00    -0.452 OA
BRANCH  19  20
ATOM     20  C   UNL     1      33.662 -14.212 -23.491  0.00  0.00    +0.234 C 
BRANCH  20  22
ATOM     21  N   UNL     1      31.550 -11.337 -21.115  0.00  0.00    -0.239 NA
ATOM     22  C   UNL     1      32.923 -13.204 -22.660  0.00  0.00    +0.024 C 
ATOM     23  C   UNL     1      32.753 -11.913 -23.132  0.00  0.00    +0.023 C 
ATOM     24  C   UNL     1      32.416 -13.573 -21.423  0.00  0.00    +0.020 C 
ATOM     25  C   UNL     1      32.062 -11.022 -22.326  0.00  0.00    +0.134 C 
ATOM     26  C   UNL     1      31.741 -12.607 -20.694  0.00  0.00    +0.099 C 
BRANCH  25  29
ATOM     27  O   UNL     1      31.140  -8.878 -22.095  0.00  0.00    -0.268 OA
ATOM     28  N   UNL     1      32.490  -9.254 -23.942  0.00  0.00    -0.298 N 
ATOM     29  C   UNL     1      31.849  -9.653 -22.763  0.00  0.00    +0.264 C 
ATOM     30  C   UNL     1      32.395  -7.920 -24.492  0.00  0.00    +0.111 C 
ATOM     31  H   UNL     1      33.037  -9.917 -24.422  0.00  0.00    +0.150 HD
ENDBRANCH  25  29
ENDBRANCH  20  22
ENDBRANCH  19  20
ENDBRANCH   8  19
TORSDOF 5
ENDMDL
