MODEL 1
REMARK VINA RESULT:     -11.8      0.000      0.000
REMARK  Name = 6419766
REMARK  1 active torsions:
REMARK  status: ('A' for Active; 'I' for Inactive)
REMARK    1  A    between atoms: C_9  and  C_20
REMARK                            x       y       z     vdW  Elec       q    Type
REMARK                         _______ _______ _______ _____ _____    ______ ____
ROOT
ATOM      1  N   UNL     1      34.085 -24.214 -14.728  0.00  0.00    -0.274 N 
ATOM      2  N   UNL     1      33.786 -23.103 -16.780  0.00  0.00    -0.328 NA
ATOM      3  N   UNL     1      31.586 -22.829 -17.720  0.00  0.00    -0.343 NA
ATOM      4  N   UNL     1      37.323 -25.160 -15.329  0.00  0.00    -0.239 N 
ATOM      5  N   UNL     1      36.165 -24.694 -15.825  0.00  0.00    -0.166 NA
ATOM      6  C   UNL     1      31.847 -23.967 -15.627  0.00  0.00    +0.143 C 
ATOM      7  C   UNL     1      33.216 -23.746 -15.744  0.00  0.00    +0.185 C 
ATOM      8  C   UNL     1      31.048 -23.475 -16.672  0.00  0.00    +0.133 C 
ATOM      9  C   UNL     1      32.925 -22.678 -17.718  0.00  0.00    +0.138 C 
ATOM     10  C   UNL     1      35.421 -24.646 -14.748  0.00  0.00    +0.152 C 
ATOM     11  C   UNL     1      31.274 -24.642 -14.534  0.00  0.00    -0.011 C 
ATOM     12  C   UNL     1      29.673 -23.678 -16.589  0.00  0.00    +0.029 C 
ATOM     13  C   UNL     1      36.028 -25.055 -13.573  0.00  0.00    +0.048 C 
ATOM     14  C   UNL     1      37.294 -25.394 -13.985  0.00  0.00    +0.046 C 
ATOM     15  C   UNL     1      29.897 -24.830 -14.478  0.00  0.00    -0.004 C 
ATOM     16  C   UNL     1      29.095 -24.348 -15.506  0.00  0.00    +0.002 C 
ATOM     17  C   UNL     1      38.463 -25.906 -13.252  0.00  0.00    +0.049 C 
ATOM     18  H   UNL     1      33.673 -24.241 -13.835  0.00  0.00    +0.156 HD
ATOM     19  H   UNL     1      38.120 -25.319 -15.885  0.00  0.00    +0.174 HD
ENDROOT
BRANCH   9  20
ATOM     20  C   UNL     1      33.493 -21.984 -18.845  0.00  0.00    +0.086 C 
ATOM     21  C   UNL     1      32.677 -21.227 -19.691  0.00  0.00    +0.012 C 
ATOM     22  C   UNL     1      34.866 -22.061 -19.100  0.00  0.00    +0.012 C 
ATOM     23  C   UNL     1      33.227 -20.554 -20.781  0.00  0.00    +0.001 C 
ATOM     24  C   UNL     1      35.416 -21.388 -20.190  0.00  0.00    +0.001 C 
ATOM     25  C   UNL     1      34.598 -20.633 -21.031  0.00  0.00    +0.000 C 
ENDBRANCH   9  20
TORSDOF 1
ENDMDL
MODEL 2
REMARK VINA RESULT:     -11.3      1.547      5.767
REMARK  Name = 6419766
REMARK  1 active torsions:
REMARK  status: ('A' for Active; 'I' for Inactive)
REMARK    1  A    between atoms: C_9  and  C_20
REMARK                            x       y       z     vdW  Elec       q    Type
REMARK                         _______ _______ _______ _____ _____    ______ ____
ROOT
ATOM      1  N   UNL     1      33.178 -22.678 -18.275  0.00  0.00    -0.274 N 
ATOM      2  N   UNL     1      34.586 -23.845 -16.795  0.00  0.00    -0.328 NA
ATOM      3  N   UNL     1      33.740 -24.697 -14.707  0.00  0.00    -0.343 NA
ATOM      4  N   UNL     1      35.687 -20.916 -19.805  0.00  0.00    -0.239 N 
ATOM      5  N   UNL     1      35.302 -21.675 -18.765  0.00  0.00    -0.166 NA
ATOM      6  C   UNL     1      32.271 -23.514 -16.187  0.00  0.00    +0.143 C 
ATOM      7  C   UNL     1      33.354 -23.367 -17.049  0.00  0.00    +0.185 C 
ATOM      8  C   UNL     1      32.521 -24.207 -14.992  0.00  0.00    +0.133 C 
ATOM      9  C   UNL     1      34.707 -24.489 -15.623  0.00  0.00    +0.138 C 
ATOM     10  C   UNL     1      34.049 -21.909 -19.064  0.00  0.00    +0.152 C 
ATOM     11  C   UNL     1      30.992 -23.006 -16.476  0.00  0.00    -0.011 C 
ATOM     12  C   UNL     1      31.461 -24.374 -14.104  0.00  0.00    +0.029 C 
ATOM     13  C   UNL     1      33.590 -21.345 -20.242  0.00  0.00    +0.048 C 
ATOM     14  C   UNL     1      34.699 -20.688 -20.717  0.00  0.00    +0.046 C 
ATOM     15  C   UNL     1      29.952 -23.187 -15.570  0.00  0.00    -0.004 C 
ATOM     16  C   UNL     1      30.186 -23.872 -14.383  0.00  0.00    +0.002 C 
ATOM     17  C   UNL     1      34.920 -19.879 -21.927  0.00  0.00    +0.049 C 
ATOM     18  H   UNL     1      32.269 -22.754 -18.646  0.00  0.00    +0.156 HD
ATOM     19  H   UNL     1      36.598 -20.557 -19.899  0.00  0.00    +0.174 HD
ENDROOT
BRANCH   9  20
ATOM     20  C   UNL     1      36.009 -25.017 -15.311  0.00  0.00    +0.086 C 
ATOM     21  C   UNL     1      37.107 -24.161 -15.192  0.00  0.00    +0.012 C 
ATOM     22  C   UNL     1      36.185 -26.392 -15.122  0.00  0.00    +0.012 C 
ATOM     23  C   UNL     1      38.368 -24.672 -14.888  0.00  0.00    +0.001 C 
ATOM     24  C   UNL     1      37.445 -26.904 -14.818  0.00  0.00    +0.001 C 
ATOM     25  C   UNL     1      38.538 -26.044 -14.700  0.00  0.00    +0.000 C 
ENDBRANCH   9  20
TORSDOF 1
ENDMDL
MODEL 3
REMARK VINA RESULT:     -11.2      1.206      4.933
REMARK  Name = 6419766
REMARK  1 active torsions:
REMARK  status: ('A' for Active; 'I' for Inactive)
REMARK    1  A    between atoms: C_9  and  C_20
REMARK                            x       y       z     vdW  Elec       q    Type
REMARK                         _______ _______ _______ _____ _____    ______ ____
ROOT
ATOM      1  N   UNL     1      35.631 -23.420 -16.377  0.00  0.00    -0.274 N 
ATOM      2  N   UNL     1      33.280 -23.513 -16.420  0.00  0.00    -0.328 NA
ATOM      3  N   UNL     1      32.043 -22.501 -18.222  0.00  0.00    -0.343 NA
ATOM      4  N   UNL     1      35.915 -23.761 -12.979  0.00  0.00    -0.239 N 
ATOM      5  N   UNL     1      35.124 -23.498 -14.033  0.00  0.00    -0.166 NA
ATOM      6  C   UNL     1      34.437 -22.384 -18.216  0.00  0.00    +0.143 C 
ATOM      7  C   UNL     1      34.410 -23.097 -17.021  0.00  0.00    +0.185 C 
ATOM      8  C   UNL     1      33.190 -22.100 -18.796  0.00  0.00    +0.133 C 
ATOM      9  C   UNL     1      32.149 -23.185 -17.065  0.00  0.00    +0.138 C 
ATOM     10  C   UNL     1      35.969 -23.605 -15.027  0.00  0.00    +0.152 C 
ATOM     11  C   UNL     1      35.632 -21.960 -18.825  0.00  0.00    -0.011 C 
ATOM     12  C   UNL     1      33.178 -21.388 -19.992  0.00  0.00    +0.029 C 
ATOM     13  C   UNL     1      37.272 -23.923 -14.683  0.00  0.00    +0.048 C 
ATOM     14  C   UNL     1      37.212 -24.021 -13.314  0.00  0.00    +0.046 C 
ATOM     15  C   UNL     1      35.589 -21.249 -20.020  0.00  0.00    -0.004 C 
ATOM     16  C   UNL     1      34.361 -20.962 -20.604  0.00  0.00    +0.002 C 
ATOM     17  C   UNL     1      38.236 -24.332 -12.304  0.00  0.00    +0.049 C 
ATOM     18  H   UNL     1      36.387 -23.537 -16.995  0.00  0.00    +0.156 HD
ATOM     19  H   UNL     1      35.589 -23.765 -12.050  0.00  0.00    +0.174 HD
ENDROOT
BRANCH   9  20
ATOM     20  C   UNL     1      30.915 -23.611 -16.458  0.00  0.00    +0.086 C 
ATOM     21  C   UNL     1      29.715 -22.967 -16.773  0.00  0.00    +0.012 C 
ATOM     22  C   UNL     1      30.909 -24.672 -15.548  0.00  0.00    +0.012 C 
ATOM     23  C   UNL     1      28.520 -23.381 -16.185  0.00  0.00    +0.001 C 
ATOM     24  C   UNL     1      29.714 -25.086 -14.960  0.00  0.00    +0.001 C 
ATOM     25  C   UNL     1      28.519 -24.441 -15.279  0.00  0.00    +0.000 C 
ENDBRANCH   9  20
TORSDOF 1
ENDMDL
MODEL 4
REMARK VINA RESULT:     -10.5      1.517      5.219
REMARK  Name = 6419766
REMARK  1 active torsions:
REMARK  status: ('A' for Active; 'I' for Inactive)
REMARK    1  A    between atoms: C_9  and  C_20
REMARK                            x       y       z     vdW  Elec       q    Type
REMARK                         _______ _______ _______ _____ _____    ______ ____
ROOT
ATOM      1  N   UNL     1      32.675 -24.138 -16.243  0.00  0.00    -0.274 N 
ATOM      2  N   UNL     1      33.896 -22.819 -17.761  0.00  0.00    -0.328 NA
ATOM      3  N   UNL     1      36.247 -22.415 -17.425  0.00  0.00    -0.343 NA
ATOM      4  N   UNL     1      29.633 -22.728 -16.948  0.00  0.00    -0.239 N 
ATOM      5  N   UNL     1      30.970 -22.651 -17.045  0.00  0.00    -0.166 NA
ATOM      6  C   UNL     1      35.039 -23.766 -15.855  0.00  0.00    +0.143 C 
ATOM      7  C   UNL     1      33.906 -23.555 -16.635  0.00  0.00    +0.185 C 
ATOM      8  C   UNL     1      36.222 -23.156 -16.304  0.00  0.00    +0.133 C 
ATOM      9  C   UNL     1      35.083 -22.285 -18.092  0.00  0.00    +0.138 C 
ATOM     10  C   UNL     1      31.340 -23.742 -16.422  0.00  0.00    +0.152 C 
ATOM     11  C   UNL     1      35.024 -24.540 -14.681  0.00  0.00    -0.011 C 
ATOM     12  C   UNL     1      37.377 -23.345 -15.549  0.00  0.00    +0.029 C 
ATOM     13  C   UNL     1      30.318 -24.531 -15.922  0.00  0.00    +0.048 C 
ATOM     14  C   UNL     1      29.190 -23.834 -16.284  0.00  0.00    +0.046 C 
ATOM     15  C   UNL     1      36.193 -24.711 -13.946  0.00  0.00    -0.004 C 
ATOM     16  C   UNL     1      37.371 -24.113 -14.380  0.00  0.00    +0.002 C 
ATOM     17  C   UNL     1      27.758 -24.102 -16.072  0.00  0.00    +0.049 C 
ATOM     18  H   UNL     1      32.776 -24.985 -15.752  0.00  0.00    +0.156 HD
ATOM     19  H   UNL     1      29.027 -22.048 -17.322  0.00  0.00    +0.174 HD
ENDROOT
BRANCH   9  20
ATOM     20  C   UNL     1      35.118 -21.490 -19.292  0.00  0.00    +0.086 C 
ATOM     21  C   UNL     1      33.934 -21.174 -19.964  0.00  0.00    +0.012 C 
ATOM     22  C   UNL     1      36.338 -21.025 -19.793  0.00  0.00    +0.012 C 
ATOM     23  C   UNL     1      33.968 -20.402 -21.125  0.00  0.00    +0.001 C 
ATOM     24  C   UNL     1      36.373 -20.253 -20.953  0.00  0.00    +0.001 C 
ATOM     25  C   UNL     1      35.188 -19.941 -21.620  0.00  0.00    +0.000 C 
ENDBRANCH   9  20
TORSDOF 1
ENDMDL
MODEL 5
REMARK VINA RESULT:     -10.4      1.812      6.488
REMARK  Name = 6419766
REMARK  1 active torsions:
REMARK  status: ('A' for Active; 'I' for Inactive)
REMARK    1  A    between atoms: C_9  and  C_20
REMARK                            x       y       z     vdW  Elec       q    Type
REMARK                         _______ _______ _______ _____ _____    ______ ____
ROOT
ATOM      1  N   UNL     1      36.326 -22.551 -16.914  0.00  0.00    -0.274 N 
ATOM      2  N   UNL     1      34.416 -23.369 -15.809  0.00  0.00    -0.328 NA
ATOM      3  N   UNL     1      34.619 -25.000 -14.048  0.00  0.00    -0.343 NA
ATOM      4  N   UNL     1      34.697 -21.693 -19.804  0.00  0.00    -0.239 N 
ATOM      5  N   UNL     1      34.673 -22.371 -18.644  0.00  0.00    -0.166 NA
ATOM      6  C   UNL     1      36.590 -24.192 -15.149  0.00  0.00    +0.143 C 
ATOM      7  C   UNL     1      35.757 -23.396 -15.928  0.00  0.00    +0.185 C 
ATOM      8  C   UNL     1      35.956 -25.003 -14.193  0.00  0.00    +0.133 C 
ATOM      9  C   UNL     1      33.922 -24.185 -14.864  0.00  0.00    +0.138 C 
ATOM     10  C   UNL     1      35.849 -22.079 -18.147  0.00  0.00    +0.152 C 
ATOM     11  C   UNL     1      37.989 -24.202 -15.292  0.00  0.00    -0.011 C 
ATOM     12  C   UNL     1      36.757 -25.814 -13.394  0.00  0.00    +0.029 C 
ATOM     13  C   UNL     1      36.643 -21.246 -18.917  0.00  0.00    +0.048 C 
ATOM     14  C   UNL     1      35.855 -21.003 -20.016  0.00  0.00    +0.046 C 
ATOM     15  C   UNL     1      38.765 -25.023 -14.480  0.00  0.00    -0.004 C 
ATOM     16  C   UNL     1      38.149 -25.830 -13.530  0.00  0.00    +0.002 C 
ATOM     17  C   UNL     1      36.078 -20.197 -21.227  0.00  0.00    +0.049 C 
ATOM     18  H   UNL     1      37.231 -22.235 -16.691  0.00  0.00    +0.156 HD
ATOM     19  H   UNL     1      33.948 -21.694 -20.443  0.00  0.00    +0.174 HD
ENDROOT
BRANCH   9  20
ATOM     20  C   UNL     1      32.491 -24.188 -14.702  0.00  0.00    +0.086 C 
ATOM     21  C   UNL     1      31.708 -23.217 -15.332  0.00  0.00    +0.012 C 
ATOM     22  C   UNL     1      31.874 -25.165 -13.914  0.00  0.00    +0.012 C 
ATOM     23  C   UNL     1      30.322 -23.221 -15.177  0.00  0.00    +0.001 C 
ATOM     24  C   UNL     1      30.489 -25.170 -13.758  0.00  0.00    +0.001 C 
ATOM     25  C   UNL     1      29.712 -24.198 -14.390  0.00  0.00    +0.000 C 
ENDBRANCH   9  20
TORSDOF 1
ENDMDL
MODEL 6
REMARK VINA RESULT:      -9.8      1.750      5.317
REMARK  Name = 6419766
REMARK  1 active torsions:
REMARK  status: ('A' for Active; 'I' for Inactive)
REMARK    1  A    between atoms: C_9  and  C_20
REMARK                            x       y       z     vdW  Elec       q    Type
REMARK                         _______ _______ _______ _____ _____    ______ ____
ROOT
ATOM      1  N   UNL     1      33.126 -24.821 -14.272  0.00  0.00    -0.274 N 
ATOM      2  N   UNL     1      34.329 -23.603 -15.886  0.00  0.00    -0.328 NA
ATOM      3  N   UNL     1      36.512 -22.717 -15.382  0.00  0.00    -0.343 NA
ATOM      4  N   UNL     1      30.033 -24.153 -15.588  0.00  0.00    -0.239 N 
ATOM      5  N   UNL     1      31.342 -23.850 -15.549  0.00  0.00    -0.166 NA
ATOM      6  C   UNL     1      35.319 -23.953 -13.710  0.00  0.00    +0.143 C 
ATOM      7  C   UNL     1      34.292 -24.103 -14.637  0.00  0.00    +0.185 C 
ATOM      8  C   UNL     1      36.443 -23.229 -14.141  0.00  0.00    +0.133 C 
ATOM      9  C   UNL     1      35.452 -22.931 -16.187  0.00  0.00    +0.138 C 
ATOM     10  C   UNL     1      31.785 -24.719 -14.676  0.00  0.00    +0.152 C 
ATOM     11  C   UNL     1      35.257 -24.485 -12.409  0.00  0.00    -0.011 C 
ATOM     12  C   UNL     1      37.490 -23.058 -13.241  0.00  0.00    +0.029 C 
ATOM     13  C   UNL     1      30.840 -25.576 -14.139  0.00  0.00    +0.048 C 
ATOM     14  C   UNL     1      29.680 -25.179 -14.761  0.00  0.00    +0.046 C 
ATOM     15  C   UNL     1      36.318 -24.298 -11.531  0.00  0.00    -0.004 C 
ATOM     16  C   UNL     1      37.436 -23.583 -11.946  0.00  0.00    +0.002 C 
ATOM     17  C   UNL     1      28.294 -25.662 -14.658  0.00  0.00    +0.049 C 
ATOM     18  H   UNL     1      33.287 -25.529 -13.608  0.00  0.00    +0.156 HD
ATOM     19  H   UNL     1      29.388 -23.677 -16.159  0.00  0.00    +0.174 HD
ENDROOT
BRANCH   9  20
ATOM     20  C   UNL     1      35.534 -22.379 -17.514  0.00  0.00    +0.086 C 
ATOM     21  C   UNL     1      36.693 -21.718 -17.932  0.00  0.00    +0.012 C 
ATOM     22  C   UNL     1      34.455 -22.501 -18.396  0.00  0.00    +0.012 C 
ATOM     23  C   UNL     1      36.773 -21.185 -19.218  0.00  0.00    +0.001 C 
ATOM     24  C   UNL     1      34.535 -21.968 -19.682  0.00  0.00    +0.001 C 
ATOM     25  C   UNL     1      35.695 -21.310 -20.094  0.00  0.00    +0.000 C 
ENDBRANCH   9  20
TORSDOF 1
ENDMDL
MODEL 7
REMARK VINA RESULT:      -9.7      1.632      6.533
REMARK  Name = 6419766
REMARK  1 active torsions:
REMARK  status: ('A' for Active; 'I' for Inactive)
REMARK    1  A    between atoms: C_9  and  C_20
REMARK                            x       y       z     vdW  Elec       q    Type
REMARK                         _______ _______ _______ _____ _____    ______ ____
ROOT
ATOM      1  N   UNL     1      32.494 -23.209 -16.371  0.00  0.00    -0.274 N 
ATOM      2  N   UNL     1      34.610 -23.424 -15.365  0.00  0.00    -0.328 NA
ATOM      3  N   UNL     1      36.607 -22.795 -16.555  0.00  0.00    -0.343 NA
ATOM      4  N   UNL     1      30.973 -25.619 -14.469  0.00  0.00    -0.239 N 
ATOM      5  N   UNL     1      32.119 -25.059 -14.890  0.00  0.00    -0.166 NA
ATOM      6  C   UNL     1      34.470 -22.560 -17.617  0.00  0.00    +0.143 C 
ATOM      7  C   UNL     1      33.901 -23.062 -16.450  0.00  0.00    +0.185 C 
ATOM      8  C   UNL     1      35.870 -22.442 -17.622  0.00  0.00    +0.133 C 
ATOM      9  C   UNL     1      35.938 -23.268 -15.484  0.00  0.00    +0.138 C 
ATOM     10  C   UNL     1      31.673 -24.107 -15.670  0.00  0.00    +0.152 C 
ATOM     11  C   UNL     1      33.708 -22.187 -18.738  0.00  0.00    -0.011 C 
ATOM     12  C   UNL     1      36.475 -21.944 -18.772  0.00  0.00    +0.029 C 
ATOM     13  C   UNL     1      30.297 -24.011 -15.785  0.00  0.00    +0.048 C 
ATOM     14  C   UNL     1      29.852 -25.029 -14.976  0.00  0.00    +0.046 C 
ATOM     15  C   UNL     1      34.341 -21.692 -19.874  0.00  0.00    -0.004 C 
ATOM     16  C   UNL     1      35.725 -21.571 -19.892  0.00  0.00    +0.002 C 
ATOM     17  C   UNL     1      28.498 -25.495 -14.637  0.00  0.00    +0.049 C 
ATOM     18  H   UNL     1      31.995 -22.556 -16.913  0.00  0.00    +0.156 HD
ATOM     19  H   UNL     1      30.944 -26.385 -13.852  0.00  0.00    +0.174 HD
ENDROOT
BRANCH   9  20
ATOM     20  C   UNL     1      36.735 -23.644 -14.346  0.00  0.00    +0.086 C 
ATOM     21  C   UNL     1      36.494 -23.068 -13.096  0.00  0.00    +0.012 C 
ATOM     22  C   UNL     1      37.755 -24.591 -14.483  0.00  0.00    +0.012 C 
ATOM     23  C   UNL     1      37.265 -23.433 -11.993  0.00  0.00    +0.001 C 
ATOM     24  C   UNL     1      38.526 -24.957 -13.381  0.00  0.00    +0.001 C 
ATOM     25  C   UNL     1      38.281 -24.379 -12.134  0.00  0.00    +0.000 C 
ENDBRANCH   9  20
TORSDOF 1
ENDMDL
MODEL 8
REMARK VINA RESULT:      -9.3      9.467     12.694
REMARK  Name = 6419766
REMARK  1 active torsions:
REMARK  status: ('A' for Active; 'I' for Inactive)
REMARK    1  A    between atoms: C_9  and  C_20
REMARK                            x       y       z     vdW  Elec       q    Type
REMARK                         _______ _______ _______ _____ _____    ______ ____
ROOT
ATOM      1  N   UNL     1      34.054 -14.530 -22.028  0.00  0.00    -0.274 N 
ATOM      2  N   UNL     1      34.169 -12.914 -23.734  0.00  0.00    -0.328 NA
ATOM      3  N   UNL     1      32.733 -10.980 -23.694  0.00  0.00    -0.343 NA
ATOM      4  N   UNL     1      35.281 -17.106 -23.926  0.00  0.00    -0.239 N 
ATOM      5  N   UNL     1      34.760 -15.868 -23.891  0.00  0.00    -0.166 NA
ATOM      6  C   UNL     1      32.586 -12.603 -21.935  0.00  0.00    +0.143 C 
ATOM      7  C   UNL     1      33.591 -13.312 -22.586  0.00  0.00    +0.185 C 
ATOM      8  C   UNL     1      32.177 -11.406 -22.547  0.00  0.00    +0.133 C 
ATOM      9  C   UNL     1      33.698 -11.756 -24.226  0.00  0.00    +0.138 C 
ATOM     10  C   UNL     1      34.586 -15.694 -22.605  0.00  0.00    +0.152 C 
ATOM     11  C   UNL     1      31.997 -13.040 -20.735  0.00  0.00    -0.011 C 
ATOM     12  C   UNL     1      31.173 -10.669 -21.925  0.00  0.00    +0.029 C 
ATOM     13  C   UNL     1      34.965 -16.751 -21.793  0.00  0.00    +0.048 C 
ATOM     14  C   UNL     1      35.424 -17.679 -22.696  0.00  0.00    +0.046 C 
ATOM     15  C   UNL     1      30.996 -12.283 -20.136  0.00  0.00    -0.004 C 
ATOM     16  C   UNL     1      30.582 -11.097 -20.731  0.00  0.00    +0.002 C 
ATOM     17  C   UNL     1      35.976 -19.032 -22.520  0.00  0.00    +0.049 C 
ATOM     18  H   UNL     1      33.992 -14.566 -21.046  0.00  0.00    +0.156 HD
ATOM     19  H   UNL     1      35.536 -17.558 -24.762  0.00  0.00    +0.174 HD
ENDROOT
BRANCH   9  20
ATOM     20  C   UNL     1      34.288 -11.292 -25.454  0.00  0.00    +0.086 C 
ATOM     21  C   UNL     1      34.981 -10.079 -25.489  0.00  0.00    +0.012 C 
ATOM     22  C   UNL     1      34.174 -12.054 -26.622  0.00  0.00    +0.012 C 
ATOM     23  C   UNL     1      35.554  -9.630 -26.679  0.00  0.00    +0.001 C 
ATOM     24  C   UNL     1      34.747 -11.606 -27.811  0.00  0.00    +0.001 C 
ATOM     25  C   UNL     1      35.438 -10.394 -27.841  0.00  0.00    +0.000 C 
ENDBRANCH   9  20
TORSDOF 1
ENDMDL
MODEL 9
REMARK VINA RESULT:      -9.2     10.503     14.524
REMARK  Name = 6419766
REMARK  1 active torsions:
REMARK  status: ('A' for Active; 'I' for Inactive)
REMARK    1  A    between atoms: C_9  and  C_20
REMARK                            x       y       z     vdW  Elec       q    Type
REMARK                         _______ _______ _______ _____ _____    ______ ____
ROOT
ATOM      1  N   UNL     1      34.082 -13.415 -24.604  0.00  0.00    -0.274 N 
ATOM      2  N   UNL     1      33.111 -11.820 -23.172  0.00  0.00    -0.328 NA
ATOM      3  N   UNL     1      33.214  -9.472 -23.696  0.00  0.00    -0.343 NA
ATOM      4  N   UNL     1      34.544 -15.798 -22.186  0.00  0.00    -0.239 N 
ATOM      5  N   UNL     1      34.280 -14.514 -22.480  0.00  0.00    -0.166 NA
ATOM      6  C   UNL     1      34.216 -11.064 -25.183  0.00  0.00    +0.143 C 
ATOM      7  C   UNL     1      33.793 -12.059 -24.307  0.00  0.00    +0.185 C 
ATOM      8  C   UNL     1      33.893  -9.745 -24.824  0.00  0.00    +0.133 C 
ATOM      9  C   UNL     1      32.860 -10.524 -22.931  0.00  0.00    +0.138 C 
ATOM     10  C   UNL     1      34.305 -14.536 -23.789  0.00  0.00    +0.152 C 
ATOM     11  C   UNL     1      34.927 -11.339 -26.365  0.00  0.00    -0.011 C 
ATOM     12  C   UNL     1      34.301  -8.722 -25.676  0.00  0.00    +0.029 C 
ATOM     13  C   UNL     1      34.570 -15.765 -24.370  0.00  0.00    +0.048 C 
ATOM     14  C   UNL     1      34.726 -16.589 -23.282  0.00  0.00    +0.046 C 
ATOM     15  C   UNL     1      35.322 -10.296 -27.197  0.00  0.00    -0.004 C 
ATOM     16  C   UNL     1      35.009  -8.986 -26.852  0.00  0.00    +0.002 C 
ATOM     17  C   UNL     1      35.025 -18.026 -23.172  0.00  0.00    +0.049 C 
ATOM     18  H   UNL     1      34.137 -13.607 -25.568  0.00  0.00    +0.156 HD
ATOM     19  H   UNL     1      34.601 -16.137 -21.264  0.00  0.00    +0.174 HD
ENDROOT
BRANCH   9  20
ATOM     20  C   UNL     1      32.132 -10.222 -21.726  0.00  0.00    +0.086 C 
ATOM     21  C   UNL     1      31.438 -11.230 -21.051  0.00  0.00    +0.012 C 
ATOM     22  C   UNL     1      32.116  -8.918 -21.221  0.00  0.00    +0.012 C 
ATOM     23  C   UNL     1      30.734 -10.938 -19.883  0.00  0.00    +0.001 C 
ATOM     24  C   UNL     1      31.413  -8.626 -20.053  0.00  0.00    +0.001 C 
ATOM     25  C   UNL     1      30.722  -9.636 -19.383  0.00  0.00    +0.000 C 
ENDBRANCH   9  20
TORSDOF 1
ENDMDL
