MODEL 1
REMARK VINA RESULT:     -14.2      0.000      0.000
REMARK  Name = 67335295
REMARK  6 active torsions:
REMARK  status: ('A' for Active; 'I' for Inactive)
REMARK    1  A    between atoms: N_2  and  C_14
REMARK    2  A    between atoms: C_7  and  O_20
REMARK    3  A    between atoms: O_20  and  C_21
REMARK    4  A    between atoms: C_21  and  C_23
REMARK    5  A    between atoms: C_22  and  C_28
REMARK    6  A    between atoms: C_28  and  N_30
REMARK                            x       y       z     vdW  Elec       q    Type
REMARK                         _______ _______ _______ _____ _____    ______ ____
ROOT
ATOM      1  O   UNL     1      33.468 -24.615 -12.782  0.00  0.00    -0.270 OA
ATOM      2  N   UNL     1      34.532 -24.299 -14.868  0.00  0.00    -0.265 N 
ATOM      3  C   UNL     1      34.143 -23.832 -16.194  0.00  0.00    +0.124 C 
ATOM      4  C   UNL     1      32.696 -23.528 -16.001  0.00  0.00    +0.036 C 
ATOM      5  C   UNL     1      33.483 -24.293 -13.956  0.00  0.00    +0.249 C 
ATOM      6  C   UNL     1      32.311 -23.799 -14.688  0.00  0.00    +0.054 C 
ATOM      7  C   UNL     1      31.776 -23.045 -16.913  0.00  0.00    +0.137 C 
ATOM      8  C   UNL     1      31.021 -23.605 -14.233  0.00  0.00    +0.004 C 
ATOM      9  C   UNL     1      30.463 -22.841 -16.479  0.00  0.00    +0.037 C 
ATOM     10  C   UNL     1      30.089 -23.118 -15.150  0.00  0.00    +0.003 C 
ENDROOT
BRANCH   2  14
ATOM     11  O   UNL     1      36.567 -22.554 -15.345  0.00  0.00    -0.273 OA
ATOM     12  O   UNL     1      39.701 -25.921 -15.543  0.00  0.00    -0.275 OA
ATOM     13  N   UNL     1      38.097 -24.269 -15.458  0.00  0.00    -0.254 N 
ATOM     14  C   UNL     1      35.867 -24.722 -14.537  0.00  0.00    +0.153 C 
ATOM     15  C   UNL     1      36.128 -26.142 -15.014  0.00  0.00    +0.039 C 
ATOM     16  C   UNL     1      37.555 -26.532 -14.674  0.00  0.00    +0.088 C 
ATOM     17  C   UNL     1      36.838 -23.741 -15.170  0.00  0.00    +0.246 C 
ATOM     18  C   UNL     1      38.551 -25.572 -15.279  0.00  0.00    +0.228 C 
ATOM     19  H   UNL     1      38.748 -23.636 -15.837  0.00  0.00    +0.158 HD
ENDBRANCH   2  14
BRANCH   7  20
ATOM     20  O   UNL     1      32.128 -22.776 -18.196  0.00  0.00    -0.471 OA
BRANCH  20  21
ATOM     21  C   UNL     1      33.435 -23.176 -18.612  0.00  0.00    +0.232 C 
BRANCH  21  23
ATOM     22  C   UNL     1      35.180 -20.030 -20.952  0.00  0.00    -0.043 C 
ATOM     23  C   UNL     1      34.045 -22.077 -19.432  0.00  0.00    +0.021 C 
ATOM     24  C   UNL     1      36.000 -20.923 -20.260  0.00  0.00    -0.007 C 
ATOM     25  C   UNL     1      33.793 -20.161 -20.883  0.00  0.00    -0.007 C 
ATOM     26  C   UNL     1      35.432 -21.946 -19.500  0.00  0.00    -0.001 C 
ATOM     27  C   UNL     1      33.225 -21.185 -20.124  0.00  0.00    -0.001 C 
BRANCH  22  28
ATOM     28  C   UNL     1      35.787 -18.937 -21.763  0.00  0.00    -0.050 C 
BRANCH  28  30
ATOM     29  O   UNL     1      34.192 -17.354 -25.308  0.00  0.00    -0.358 OA
ATOM     30  N   UNL     1      34.849 -18.378 -22.735  0.00  0.00    +0.393 N 
ATOM     31  C   UNL     1      35.276 -17.038 -23.160  0.00  0.00    -0.044 C 
ATOM     32  C   UNL     1      34.721 -19.261 -23.903  0.00  0.00    -0.044 C 
ATOM     33  C   UNL     1      33.748 -18.652 -24.908  0.00  0.00    +0.119 C 
ATOM     34  C   UNL     1      34.288 -16.482 -24.182  0.00  0.00    +0.119 C 
ATOM     35  H   UNL     1      33.938 -18.302 -22.282  0.00  0.00    -0.079 HD
ENDBRANCH  28  30
ENDBRANCH  22  28
ENDBRANCH  21  23
ENDBRANCH  20  21
ENDBRANCH   7  20
TORSDOF 6
ENDMDL
MODEL 2
REMARK VINA RESULT:     -12.6      3.136     11.504
REMARK  Name = 67335295
REMARK  6 active torsions:
REMARK  status: ('A' for Active; 'I' for Inactive)
REMARK    1  A    between atoms: N_2  and  C_14
REMARK    2  A    between atoms: C_7  and  O_20
REMARK    3  A    between atoms: O_20  and  C_21
REMARK    4  A    between atoms: C_21  and  C_23
REMARK    5  A    between atoms: C_22  and  C_28
REMARK    6  A    between atoms: C_28  and  N_30
REMARK                            x       y       z     vdW  Elec       q    Type
REMARK                         _______ _______ _______ _____ _____    ______ ____
ROOT
ATOM      1  O   UNL     1      33.367 -14.868 -25.646  0.00  0.00    -0.270 OA
ATOM      2  N   UNL     1      34.202 -14.659 -23.446  0.00  0.00    -0.265 N 
ATOM      3  C   UNL     1      34.716 -15.559 -22.420  0.00  0.00    +0.124 C 
ATOM      4  C   UNL     1      34.615 -16.884 -23.094  0.00  0.00    +0.036 C 
ATOM      5  C   UNL     1      33.827 -15.315 -24.612  0.00  0.00    +0.249 C 
ATOM      6  C   UNL     1      34.093 -16.740 -24.380  0.00  0.00    +0.054 C 
ATOM      7  C   UNL     1      34.957 -18.135 -22.616  0.00  0.00    +0.137 C 
ATOM      8  C   UNL     1      33.893 -17.811 -25.229  0.00  0.00    +0.004 C 
ATOM      9  C   UNL     1      34.764 -19.237 -23.455  0.00  0.00    +0.037 C 
ATOM     10  C   UNL     1      34.237 -19.076 -24.751  0.00  0.00    +0.003 C 
ENDROOT
BRANCH   2  14
ATOM     11  O   UNL     1      32.314 -13.736 -21.715  0.00  0.00    -0.273 OA
ATOM     12  O   UNL     1      32.159  -9.605 -23.742  0.00  0.00    -0.275 OA
ATOM     13  N   UNL     1      32.252 -11.693 -22.771  0.00  0.00    -0.254 N 
ATOM     14  C   UNL     1      34.096 -13.234 -23.269  0.00  0.00    +0.153 C 
ATOM     15  C   UNL     1      34.134 -12.511 -24.606  0.00  0.00    +0.039 C 
ATOM     16  C   UNL     1      33.985 -11.018 -24.374  0.00  0.00    +0.088 C 
ATOM     17  C   UNL     1      32.802 -12.951 -22.528  0.00  0.00    +0.246 C 
ATOM     18  C   UNL     1      32.712 -10.698 -23.629  0.00  0.00    +0.228 C 
ATOM     19  H   UNL     1      31.431 -11.482 -22.270  0.00  0.00    +0.158 HD
ENDBRANCH   2  14
BRANCH   7  20
ATOM     20  O   UNL     1      35.465 -18.301 -21.368  0.00  0.00    -0.471 OA
BRANCH  20  21
ATOM     21  C   UNL     1      36.276 -19.454 -21.141  0.00  0.00    +0.232 C 
BRANCH  21  23
ATOM     22  C   UNL     1      33.972 -22.388 -19.021  0.00  0.00    -0.043 C 
ATOM     23  C   UNL     1      35.471 -20.481 -20.401  0.00  0.00    +0.021 C 
ATOM     24  C   UNL     1      33.334 -21.464 -19.850  0.00  0.00    -0.007 C 
ATOM     25  C   UNL     1      35.360 -22.358 -18.882  0.00  0.00    -0.007 C 
ATOM     26  C   UNL     1      34.083 -20.511 -20.540  0.00  0.00    -0.001 C 
ATOM     27  C   UNL     1      36.109 -21.405 -19.573  0.00  0.00    -0.001 C 
BRANCH  22  28
ATOM     28  C   UNL     1      33.171 -23.406 -18.283  0.00  0.00    -0.050 C 
BRANCH  28  30
ATOM     29  O   UNL     1      32.425 -23.777 -14.169  0.00  0.00    -0.358 OA
ATOM     30  N   UNL     1      33.042 -23.090 -16.862  0.00  0.00    +0.393 N 
ATOM     31  C   UNL     1      31.654 -23.266 -16.413  0.00  0.00    -0.044 C 
ATOM     32  C   UNL     1      33.942 -23.928 -16.058  0.00  0.00    -0.044 C 
ATOM     33  C   UNL     1      33.781 -23.589 -14.578  0.00  0.00    +0.119 C 
ATOM     34  C   UNL     1      31.547 -22.942 -14.925  0.00  0.00    +0.119 C 
ATOM     35  H   UNL     1      33.305 -22.113 -16.734  0.00  0.00    -0.079 HD
ENDBRANCH  28  30
ENDBRANCH  22  28
ENDBRANCH  21  23
ENDBRANCH  20  21
ENDBRANCH   7  20
TORSDOF 6
ENDMDL
MODEL 3
REMARK VINA RESULT:     -12.4      2.058      4.880
REMARK  Name = 67335295
REMARK  6 active torsions:
REMARK  status: ('A' for Active; 'I' for Inactive)
REMARK    1  A    between atoms: N_2  and  C_14
REMARK    2  A    between atoms: C_7  and  O_20
REMARK    3  A    between atoms: O_20  and  C_21
REMARK    4  A    between atoms: C_21  and  C_23
REMARK    5  A    between atoms: C_22  and  C_28
REMARK    6  A    between atoms: C_28  and  N_30
REMARK                            x       y       z     vdW  Elec       q    Type
REMARK                         _______ _______ _______ _____ _____    ______ ____
ROOT
ATOM      1  O   UNL     1      32.274 -23.931 -13.118  0.00  0.00    -0.270 OA
ATOM      2  N   UNL     1      32.058 -23.458 -15.424  0.00  0.00    -0.265 N 
ATOM      3  C   UNL     1      32.960 -23.200 -16.539  0.00  0.00    +0.124 C 
ATOM      4  C   UNL     1      34.296 -23.294 -15.884  0.00  0.00    +0.036 C 
ATOM      5  C   UNL     1      32.722 -23.687 -14.224  0.00  0.00    +0.249 C 
ATOM      6  C   UNL     1      34.154 -23.580 -14.525  0.00  0.00    +0.054 C 
ATOM      7  C   UNL     1      35.553 -23.141 -16.437  0.00  0.00    +0.137 C 
ATOM      8  C   UNL     1      35.234 -23.722 -13.676  0.00  0.00    +0.004 C 
ATOM      9  C   UNL     1      36.664 -23.280 -15.599  0.00  0.00    +0.037 C 
ATOM     10  C   UNL     1      36.505 -23.568 -14.230  0.00  0.00    +0.003 C 
ENDROOT
BRANCH   2  14
ATOM     11  O   UNL     1      30.789 -25.847 -15.108  0.00  0.00    -0.273 OA
ATOM     12  O   UNL     1      27.119 -24.467 -17.522  0.00  0.00    -0.275 OA
ATOM     13  N   UNL     1      28.985 -25.124 -16.339  0.00  0.00    -0.254 N 
ATOM     14  C   UNL     1      30.624 -23.476 -15.551  0.00  0.00    +0.153 C 
ATOM     15  C   UNL     1      30.170 -22.675 -16.761  0.00  0.00    +0.039 C 
ATOM     16  C   UNL     1      28.658 -22.750 -16.875  0.00  0.00    +0.088 C 
ATOM     17  C   UNL     1      30.183 -24.925 -15.653  0.00  0.00    +0.246 C 
ATOM     18  C   UNL     1      28.180 -24.179 -16.968  0.00  0.00    +0.228 C 
ATOM     19  H   UNL     1      28.668 -26.055 -16.383  0.00  0.00    +0.158 HD
ENDBRANCH   2  14
BRANCH   7  20
ATOM     20  O   UNL     1      35.715 -22.860 -17.756  0.00  0.00    -0.471 OA
BRANCH  20  21
ATOM     21  C   UNL     1      34.548 -22.495 -18.493  0.00  0.00    +0.232 C 
BRANCH  21  23
ATOM     22  C   UNL     1      35.615 -19.558 -21.435  0.00  0.00    -0.043 C 
ATOM     23  C   UNL     1      34.921 -21.469 -19.524  0.00  0.00    +0.021 C 
ATOM     24  C   UNL     1      36.610 -20.204 -20.700  0.00  0.00    -0.007 C 
ATOM     25  C   UNL     1      34.273 -19.869 -21.214  0.00  0.00    -0.007 C 
ATOM     26  C   UNL     1      36.263 -21.159 -19.744  0.00  0.00    -0.001 C 
ATOM     27  C   UNL     1      33.926 -20.825 -20.259  0.00  0.00    -0.001 C 
BRANCH  22  28
ATOM     28  C   UNL     1      35.986 -18.537 -22.456  0.00  0.00    -0.050 C 
BRANCH  28  30
ATOM     29  O   UNL     1      33.560 -16.938 -25.485  0.00  0.00    -0.358 OA
ATOM     30  N   UNL     1      34.823 -18.020 -23.174  0.00  0.00    +0.393 N 
ATOM     31  C   UNL     1      35.044 -16.628 -23.590  0.00  0.00    -0.044 C 
ATOM     32  C   UNL     1      34.522 -18.854 -24.347  0.00  0.00    -0.044 C 
ATOM     33  C   UNL     1      33.313 -18.288 -25.088  0.00  0.00    +0.119 C 
ATOM     34  C   UNL     1      33.823 -16.115 -24.348  0.00  0.00    +0.119 C 
ATOM     35  H   UNL     1      34.025 -18.049 -22.540  0.00  0.00    -0.079 HD
ENDBRANCH  28  30
ENDBRANCH  22  28
ENDBRANCH  21  23
ENDBRANCH  20  21
ENDBRANCH   7  20
TORSDOF 6
ENDMDL
MODEL 4
REMARK VINA RESULT:     -12.1      6.748     13.973
REMARK  Name = 67335295
REMARK  6 active torsions:
REMARK  status: ('A' for Active; 'I' for Inactive)
REMARK    1  A    between atoms: N_2  and  C_14
REMARK    2  A    between atoms: C_7  and  O_20
REMARK    3  A    between atoms: O_20  and  C_21
REMARK    4  A    between atoms: C_21  and  C_23
REMARK    5  A    between atoms: C_22  and  C_28
REMARK    6  A    between atoms: C_28  and  N_30
REMARK                            x       y       z     vdW  Elec       q    Type
REMARK                         _______ _______ _______ _____ _____    ______ ____
ROOT
ATOM      1  O   UNL     1      31.631  -8.036 -21.657  0.00  0.00    -0.270 OA
ATOM      2  N   UNL     1      32.479  -9.205 -23.528  0.00  0.00    -0.265 N 
ATOM      3  C   UNL     1      32.739 -10.597 -23.876  0.00  0.00    +0.124 C 
ATOM      4  C   UNL     1      32.310 -11.309 -22.639  0.00  0.00    +0.036 C 
ATOM      5  C   UNL     1      31.956  -9.049 -22.249  0.00  0.00    +0.249 C 
ATOM      6  C   UNL     1      31.851 -10.400 -21.686  0.00  0.00    +0.054 C 
ATOM      7  C   UNL     1      32.319 -12.664 -22.364  0.00  0.00    +0.137 C 
ATOM      8  C   UNL     1      31.391 -10.789 -20.443  0.00  0.00    +0.004 C 
ATOM      9  C   UNL     1      31.859 -13.085 -21.113  0.00  0.00    +0.037 C 
ATOM     10  C   UNL     1      31.399 -12.156 -20.161  0.00  0.00    +0.003 C 
ENDROOT
BRANCH   2  14
ATOM     11  O   UNL     1      34.876  -7.933 -23.308  0.00  0.00    -0.273 OA
ATOM     12  O   UNL     1      33.255  -4.077 -25.233  0.00  0.00    -0.275 OA
ATOM     13  N   UNL     1      34.019  -6.018 -24.254  0.00  0.00    -0.254 N 
ATOM     14  C   UNL     1      32.736  -8.104 -24.418  0.00  0.00    +0.153 C 
ATOM     15  C   UNL     1      31.534  -7.176 -24.506  0.00  0.00    +0.039 C 
ATOM     16  C   UNL     1      31.862  -6.015 -25.427  0.00  0.00    +0.088 C 
ATOM     17  C   UNL     1      33.963  -7.369 -23.910  0.00  0.00    +0.246 C 
ATOM     18  C   UNL     1      33.085  -5.264 -24.958  0.00  0.00    +0.228 C 
ATOM     19  H   UNL     1      34.826  -5.537 -23.961  0.00  0.00    +0.158 HD
ENDBRANCH   2  14
BRANCH   7  20
ATOM     20  O   UNL     1      32.763 -13.567 -23.275  0.00  0.00    -0.471 OA
BRANCH  20  21
ATOM     21  C   UNL     1      34.177 -13.719 -23.408  0.00  0.00    +0.232 C 
BRANCH  21  23
ATOM     22  C   UNL     1      35.252 -17.760 -22.442  0.00  0.00    -0.043 C 
ATOM     23  C   UNL     1      34.550 -15.133 -23.070  0.00  0.00    +0.021 C 
ATOM     24  C   UNL     1      34.965 -16.851 -21.422  0.00  0.00    -0.007 C 
ATOM     25  C   UNL     1      35.189 -17.355 -23.775  0.00  0.00    -0.007 C 
ATOM     26  C   UNL     1      34.615 -15.538 -21.737  0.00  0.00    -0.001 C 
ATOM     27  C   UNL     1      34.837 -16.041 -24.089  0.00  0.00    -0.001 C 
BRANCH  22  28
ATOM     28  C   UNL     1      35.627 -19.163 -22.106  0.00  0.00    -0.050 C 
BRANCH  28  30
ATOM     29  O   UNL     1      33.167 -21.766 -19.917  0.00  0.00    -0.358 OA
ATOM     30  N   UNL     1      34.797 -19.720 -21.039  0.00  0.00    +0.393 N 
ATOM     31  C   UNL     1      33.428 -19.959 -21.515  0.00  0.00    -0.044 C 
ATOM     32  C   UNL     1      35.377 -20.969 -20.525  0.00  0.00    -0.044 C 
ATOM     33  C   UNL     1      34.488 -21.537 -19.423  0.00  0.00    +0.119 C 
ATOM     34  C   UNL     1      32.585 -20.550 -20.389  0.00  0.00    +0.119 C 
ATOM     35  H   UNL     1      34.765 -19.039 -20.280  0.00  0.00    -0.079 HD
ENDBRANCH  28  30
ENDBRANCH  22  28
ENDBRANCH  21  23
ENDBRANCH  20  21
ENDBRANCH   7  20
TORSDOF 6
ENDMDL
MODEL 5
REMARK VINA RESULT:     -12.0      7.511     14.549
REMARK  Name = 67335295
REMARK  6 active torsions:
REMARK  status: ('A' for Active; 'I' for Inactive)
REMARK    1  A    between atoms: N_2  and  C_14
REMARK    2  A    between atoms: C_7  and  O_20
REMARK    3  A    between atoms: O_20  and  C_21
REMARK    4  A    between atoms: C_21  and  C_23
REMARK    5  A    between atoms: C_22  and  C_28
REMARK    6  A    between atoms: C_28  and  N_30
REMARK                            x       y       z     vdW  Elec       q    Type
REMARK                         _______ _______ _______ _____ _____    ______ ____
ROOT
ATOM      1  O   UNL     1      32.686  -7.025 -20.302  0.00  0.00    -0.270 OA
ATOM      2  N   UNL     1      32.829  -7.899 -22.493  0.00  0.00    -0.265 N 
ATOM      3  C   UNL     1      32.613  -9.192 -23.132  0.00  0.00    +0.124 C 
ATOM      4  C   UNL     1      32.214 -10.044 -21.976  0.00  0.00    +0.036 C 
ATOM      5  C   UNL     1      32.600  -7.921 -21.122  0.00  0.00    +0.249 C 
ATOM      6  C   UNL     1      32.207  -9.297 -20.798  0.00  0.00    +0.054 C 
ATOM      7  C   UNL     1      31.879 -11.385 -21.954  0.00  0.00    +0.137 C 
ATOM      8  C   UNL     1      31.873  -9.839 -19.572  0.00  0.00    +0.004 C 
ATOM      9  C   UNL     1      31.537 -11.959 -20.726  0.00  0.00    +0.037 C 
ATOM     10  C   UNL     1      31.534 -11.192 -19.545  0.00  0.00    +0.003 C 
ENDROOT
BRANCH   2  14
ATOM     11  O   UNL     1      30.876  -6.259 -23.447  0.00  0.00    -0.273 OA
ATOM     12  O   UNL     1      33.644  -4.469 -26.662  0.00  0.00    -0.275 OA
ATOM     13  N   UNL     1      32.286  -5.407 -25.053  0.00  0.00    -0.254 N 
ATOM     14  C   UNL     1      33.237  -6.719 -23.209  0.00  0.00    +0.153 C 
ATOM     15  C   UNL     1      34.339  -7.036 -24.209  0.00  0.00    +0.039 C 
ATOM     16  C   UNL     1      34.713  -5.773 -24.962  0.00  0.00    +0.088 C 
ATOM     17  C   UNL     1      32.013  -6.147 -23.903  0.00  0.00    +0.246 C 
ATOM     18  C   UNL     1      33.517  -5.168 -25.657  0.00  0.00    +0.228 C 
ATOM     19  H   UNL     1      31.506  -5.001 -25.494  0.00  0.00    +0.158 HD
ENDBRANCH   2  14
BRANCH   7  20
ATOM     20  O   UNL     1      31.881 -12.132 -23.088  0.00  0.00    -0.471 OA
BRANCH  20  21
ATOM     21  C   UNL     1      33.100 -12.188 -23.830  0.00  0.00    +0.232 C 
BRANCH  21  23
ATOM     22  C   UNL     1      34.486 -16.248 -23.931  0.00  0.00    -0.043 C 
ATOM     23  C   UNL     1      33.587 -13.607 -23.866  0.00  0.00    +0.021 C 
ATOM     24  C   UNL     1      33.867 -15.693 -25.053  0.00  0.00    -0.007 C 
ATOM     25  C   UNL     1      34.655 -15.482 -22.778  0.00  0.00    -0.007 C 
ATOM     26  C   UNL     1      33.417 -14.373 -25.020  0.00  0.00    -0.001 C 
ATOM     27  C   UNL     1      34.205 -14.162 -22.745  0.00  0.00    -0.001 C 
BRANCH  22  28
ATOM     28  C   UNL     1      34.966 -17.659 -23.967  0.00  0.00    -0.050 C 
BRANCH  28  30
ATOM     29  O   UNL     1      35.814 -20.339 -20.849  0.00  0.00    -0.358 OA
ATOM     30  N   UNL     1      35.130 -18.225 -22.629  0.00  0.00    +0.393 N 
ATOM     31  C   UNL     1      34.252 -19.388 -22.443  0.00  0.00    -0.044 C 
ATOM     32  C   UNL     1      36.530 -18.608 -22.393  0.00  0.00    -0.044 C 
ATOM     33  C   UNL     1      36.674 -19.207 -20.997  0.00  0.00    +0.119 C 
ATOM     34  C   UNL     1      34.450 -19.967 -21.045  0.00  0.00    +0.119 C 
ATOM     35  H   UNL     1      34.870 -17.508 -21.952  0.00  0.00    -0.079 HD
ENDBRANCH  28  30
ENDBRANCH  22  28
ENDBRANCH  21  23
ENDBRANCH  20  21
ENDBRANCH   7  20
TORSDOF 6
ENDMDL
MODEL 6
REMARK VINA RESULT:     -11.8      5.329      9.657
REMARK  Name = 67335295
REMARK  6 active torsions:
REMARK  status: ('A' for Active; 'I' for Inactive)
REMARK    1  A    between atoms: N_2  and  C_14
REMARK    2  A    between atoms: C_7  and  O_20
REMARK    3  A    between atoms: O_20  and  C_21
REMARK    4  A    between atoms: C_21  and  C_23
REMARK    5  A    between atoms: C_22  and  C_28
REMARK    6  A    between atoms: C_28  and  N_30
REMARK                            x       y       z     vdW  Elec       q    Type
REMARK                         _______ _______ _______ _____ _____    ______ ____
ROOT
ATOM      1  O   UNL     1      34.908 -20.135 -24.256  0.00  0.00    -0.270 OA
ATOM      2  N   UNL     1      34.943 -19.272 -22.056  0.00  0.00    -0.265 N 
ATOM      3  C   UNL     1      34.859 -17.956 -21.435  0.00  0.00    +0.124 C 
ATOM      4  C   UNL     1      34.722 -17.064 -22.621  0.00  0.00    +0.036 C 
ATOM      5  C   UNL     1      34.870 -19.229 -23.444  0.00  0.00    +0.249 C 
ATOM      6  C   UNL     1      34.729 -17.812 -23.799  0.00  0.00    +0.054 C 
ATOM      7  C   UNL     1      34.599 -15.688 -22.669  0.00  0.00    +0.137 C 
ATOM      8  C   UNL     1      34.617 -17.237 -25.049  0.00  0.00    +0.004 C 
ATOM      9  C   UNL     1      34.484 -15.080 -23.923  0.00  0.00    +0.037 C 
ATOM     10  C   UNL     1      34.493 -15.848 -25.103  0.00  0.00    +0.003 C 
ENDROOT
BRANCH   2  14
ATOM     11  O   UNL     1      32.681 -20.436 -21.086  0.00  0.00    -0.273 OA
ATOM     12  O   UNL     1      34.986 -22.693 -17.801  0.00  0.00    -0.275 OA
ATOM     13  N   UNL     1      33.869 -21.528 -19.446  0.00  0.00    -0.254 N 
ATOM     14  C   UNL     1      35.087 -20.494 -21.309  0.00  0.00    +0.153 C 
ATOM     15  C   UNL     1      36.226 -20.394 -20.305  0.00  0.00    +0.039 C 
ATOM     16  C   UNL     1      36.318 -21.689 -19.519  0.00  0.00    +0.088 C 
ATOM     17  C   UNL     1      33.766 -20.776 -20.616  0.00  0.00    +0.246 C 
ATOM     18  C   UNL     1      35.017 -22.008 -18.823  0.00  0.00    +0.228 C 
ATOM     19  H   UNL     1      33.017 -21.748 -19.004  0.00  0.00    +0.158 HD
ENDBRANCH   2  14
BRANCH   7  20
ATOM     20  O   UNL     1      34.592 -14.939 -21.537  0.00  0.00    -0.471 OA
BRANCH  20  21
ATOM     21  C   UNL     1      33.354 -14.832 -20.834  0.00  0.00    +0.232 C 
BRANCH  21  23
ATOM     22  C   UNL     1      31.468 -11.119 -21.869  0.00  0.00    -0.043 C 
ATOM     23  C   UNL     1      32.696 -13.532 -21.195  0.00  0.00    +0.021 C 
ATOM     24  C   UNL     1      31.336 -11.633 -20.577  0.00  0.00    -0.007 C 
ATOM     25  C   UNL     1      32.213 -11.812 -22.822  0.00  0.00    -0.007 C 
ATOM     26  C   UNL     1      31.950 -12.839 -20.241  0.00  0.00    -0.001 C 
ATOM     27  C   UNL     1      32.828 -13.019 -22.485  0.00  0.00    -0.001 C 
BRANCH  22  28
ATOM     28  C   UNL     1      30.811  -9.829 -22.228  0.00  0.00    -0.050 C 
BRANCH  28  30
ATOM     29  O   UNL     1      32.739  -6.180 -22.991  0.00  0.00    -0.358 OA
ATOM     30  N   UNL     1      31.763  -8.842 -22.732  0.00  0.00    +0.393 N 
ATOM     31  C   UNL     1      31.087  -7.855 -23.586  0.00  0.00    -0.044 C 
ATOM     32  C   UNL     1      32.447  -8.163 -21.622  0.00  0.00    -0.044 C 
ATOM     33  C   UNL     1      33.425  -7.128 -22.172  0.00  0.00    +0.119 C 
ATOM     34  C   UNL     1      32.098  -6.829 -24.089  0.00  0.00    +0.119 C 
ATOM     35  H   UNL     1      32.459  -9.335 -23.291  0.00  0.00    -0.079 HD
ENDBRANCH  28  30
ENDBRANCH  22  28
ENDBRANCH  21  23
ENDBRANCH  20  21
ENDBRANCH   7  20
TORSDOF 6
ENDMDL
MODEL 7
REMARK VINA RESULT:     -11.7      2.067      3.192
REMARK  Name = 67335295
REMARK  6 active torsions:
REMARK  status: ('A' for Active; 'I' for Inactive)
REMARK    1  A    between atoms: N_2  and  C_14
REMARK    2  A    between atoms: C_7  and  O_20
REMARK    3  A    between atoms: O_20  and  C_21
REMARK    4  A    between atoms: C_21  and  C_23
REMARK    5  A    between atoms: C_22  and  C_28
REMARK    6  A    between atoms: C_28  and  N_30
REMARK                            x       y       z     vdW  Elec       q    Type
REMARK                         _______ _______ _______ _____ _____    ______ ____
ROOT
ATOM      1  O   UNL     1      33.348 -24.131 -14.808  0.00  0.00    -0.270 OA
ATOM      2  N   UNL     1      35.430 -23.829 -15.885  0.00  0.00    -0.265 N 
ATOM      3  C   UNL     1      35.895 -23.281 -17.153  0.00  0.00    +0.124 C 
ATOM      4  C   UNL     1      34.616 -22.860 -17.794  0.00  0.00    +0.036 C 
ATOM      5  C   UNL     1      34.050 -23.767 -15.734  0.00  0.00    +0.249 C 
ATOM      6  C   UNL     1      33.535 -23.145 -16.960  0.00  0.00    +0.054 C 
ATOM      7  C   UNL     1      34.410 -22.265 -19.024  0.00  0.00    +0.137 C 
ATOM      8  C   UNL     1      32.229 -22.858 -17.306  0.00  0.00    +0.004 C 
ATOM      9  C   UNL     1      33.097 -21.964 -19.400  0.00  0.00    +0.037 C 
ATOM     10  C   UNL     1      32.016 -22.258 -18.547  0.00  0.00    +0.003 C 
ENDROOT
BRANCH   2  14
ATOM     11  O   UNL     1      35.968 -26.496 -16.004  0.00  0.00    -0.273 OA
ATOM     12  O   UNL     1      37.094 -26.692 -11.544  0.00  0.00    -0.275 OA
ATOM     13  N   UNL     1      36.501 -26.553 -13.766  0.00  0.00    -0.254 N 
ATOM     14  C   UNL     1      36.311 -24.379 -14.888  0.00  0.00    +0.153 C 
ATOM     15  C   UNL     1      35.959 -23.867 -13.500  0.00  0.00    +0.039 C 
ATOM     16  C   UNL     1      36.890 -24.498 -12.481  0.00  0.00    +0.088 C 
ATOM     17  C   UNL     1      36.210 -25.892 -14.959  0.00  0.00    +0.246 C 
ATOM     18  C   UNL     1      36.824 -26.005 -12.529  0.00  0.00    +0.228 C 
ATOM     19  H   UNL     1      36.473 -27.537 -13.806  0.00  0.00    +0.158 HD
ENDBRANCH   2  14
BRANCH   7  20
ATOM     20  O   UNL     1      35.447 -21.979 -19.853  0.00  0.00    -0.471 OA
BRANCH  20  21
ATOM     21  C   UNL     1      36.062 -20.698 -19.712  0.00  0.00    +0.232 C 
BRANCH  21  23
ATOM     22  C   UNL     1      35.257 -18.360 -23.220  0.00  0.00    -0.043 C 
ATOM     23  C   UNL     1      35.781 -19.882 -20.940  0.00  0.00    +0.021 C 
ATOM     24  C   UNL     1      36.507 -18.284 -22.600  0.00  0.00    -0.007 C 
ATOM     25  C   UNL     1      34.272 -19.197 -22.698  0.00  0.00    -0.007 C 
ATOM     26  C   UNL     1      36.768 -19.045 -21.461  0.00  0.00    -0.001 C 
ATOM     27  C   UNL     1      34.533 -19.959 -21.559  0.00  0.00    -0.001 C 
BRANCH  22  28
ATOM     28  C   UNL     1      34.979 -17.546 -24.437  0.00  0.00    -0.050 C 
BRANCH  28  30
ATOM     29  O   UNL     1      33.274 -13.917 -23.197  0.00  0.00    -0.358 OA
ATOM     30  N   UNL     1      34.805 -16.128 -24.130  0.00  0.00    +0.393 N 
ATOM     31  C   UNL     1      33.721 -15.549 -24.935  0.00  0.00    -0.044 C 
ATOM     32  C   UNL     1      34.528 -15.934 -22.700  0.00  0.00    -0.044 C 
ATOM     33  C   UNL     1      34.338 -14.449 -22.405  0.00  0.00    +0.119 C 
ATOM     34  C   UNL     1      33.550 -14.073 -24.589  0.00  0.00    +0.119 C 
ATOM     35  H   UNL     1      35.675 -15.648 -24.362  0.00  0.00    -0.079 HD
ENDBRANCH  28  30
ENDBRANCH  22  28
ENDBRANCH  21  23
ENDBRANCH  20  21
ENDBRANCH   7  20
TORSDOF 6
ENDMDL
MODEL 8
REMARK VINA RESULT:     -11.4      6.206     10.913
REMARK  Name = 67335295
REMARK  6 active torsions:
REMARK  status: ('A' for Active; 'I' for Inactive)
REMARK    1  A    between atoms: N_2  and  C_14
REMARK    2  A    between atoms: C_7  and  O_20
REMARK    3  A    between atoms: O_20  and  C_21
REMARK    4  A    between atoms: C_21  and  C_23
REMARK    5  A    between atoms: C_22  and  C_28
REMARK    6  A    between atoms: C_28  and  N_30
REMARK                            x       y       z     vdW  Elec       q    Type
REMARK                         _______ _______ _______ _____ _____    ______ ____
ROOT
ATOM      1  O   UNL     1      34.950 -18.300 -25.075  0.00  0.00    -0.270 OA
ATOM      2  N   UNL     1      35.011 -17.750 -22.778  0.00  0.00    -0.265 N 
ATOM      3  C   UNL     1      34.647 -16.602 -21.956  0.00  0.00    +0.124 C 
ATOM      4  C   UNL     1      34.134 -15.643 -22.975  0.00  0.00    +0.036 C 
ATOM      5  C   UNL     1      34.765 -17.553 -24.132  0.00  0.00    +0.249 C 
ATOM      6  C   UNL     1      34.204 -16.202 -24.251  0.00  0.00    +0.054 C 
ATOM      7  C   UNL     1      33.638 -14.364 -22.800  0.00  0.00    +0.137 C 
ATOM      8  C   UNL     1      33.793 -15.530 -25.385  0.00  0.00    +0.004 C 
ATOM      9  C   UNL     1      33.215 -13.661 -23.932  0.00  0.00    +0.037 C 
ATOM     10  C   UNL     1      33.292 -14.239 -25.213  0.00  0.00    +0.003 C 
ENDROOT
BRANCH   2  14
ATOM     11  O   UNL     1      33.282 -19.737 -22.087  0.00  0.00    -0.273 OA
ATOM     12  O   UNL     1      36.287 -21.632 -19.158  0.00  0.00    -0.275 OA
ATOM     13  N   UNL     1      34.806 -20.639 -20.617  0.00  0.00    -0.254 N 
ATOM     14  C   UNL     1      35.567 -18.964 -22.242  0.00  0.00    +0.153 C 
ATOM     15  C   UNL     1      36.636 -18.667 -21.201  0.00  0.00    +0.039 C 
ATOM     16  C   UNL     1      37.170 -19.973 -20.641  0.00  0.00    +0.088 C 
ATOM     17  C   UNL     1      34.431 -19.776 -21.647  0.00  0.00    +0.246 C 
ATOM     18  C   UNL     1      36.064 -20.813 -20.049  0.00  0.00    +0.228 C 
ATOM     19  H   UNL     1      34.086 -21.197 -20.245  0.00  0.00    +0.158 HD
ENDBRANCH   2  14
BRANCH   7  20
ATOM     20  O   UNL     1      33.563 -13.798 -21.568  0.00  0.00    -0.471 OA
BRANCH  20  21
ATOM     21  C   UNL     1      32.260 -13.484 -21.074  0.00  0.00    +0.232 C 
BRANCH  21  23
ATOM     22  C   UNL     1      31.655  -9.243 -21.335  0.00  0.00    -0.043 C 
ATOM     23  C   UNL     1      32.046 -12.001 -21.165  0.00  0.00    +0.021 C 
ATOM     24  C   UNL     1      31.904  -9.986 -22.491  0.00  0.00    -0.007 C 
ATOM     25  C   UNL     1      31.603  -9.880 -20.095  0.00  0.00    -0.007 C 
ATOM     26  C   UNL     1      32.099 -11.365 -22.405  0.00  0.00    -0.001 C 
ATOM     27  C   UNL     1      31.798 -11.260 -20.010  0.00  0.00    -0.001 C 
BRANCH  22  28
ATOM     28  C   UNL     1      31.447  -7.770 -21.426  0.00  0.00    -0.050 C 
BRANCH  28  30
ATOM     29  O   UNL     1      32.086  -5.114 -24.614  0.00  0.00    -0.358 OA
ATOM     30  N   UNL     1      31.837  -7.234 -22.729  0.00  0.00    +0.393 N 
ATOM     31  C   UNL     1      30.669  -6.698 -23.442  0.00  0.00    -0.044 C 
ATOM     32  C   UNL     1      32.858  -6.188 -22.578  0.00  0.00    -0.044 C 
ATOM     33  C   UNL     1      33.239  -5.634 -23.948  0.00  0.00    +0.119 C 
ATOM     34  C   UNL     1      31.102  -6.133 -24.792  0.00  0.00    +0.119 C 
ATOM     35  H   UNL     1      32.231  -7.998 -23.277  0.00  0.00    -0.079 HD
ENDBRANCH  28  30
ENDBRANCH  22  28
ENDBRANCH  21  23
ENDBRANCH  20  21
ENDBRANCH   7  20
TORSDOF 6
ENDMDL
MODEL 9
REMARK VINA RESULT:     -11.4      9.282     15.428
REMARK  Name = 67335295
REMARK  6 active torsions:
REMARK  status: ('A' for Active; 'I' for Inactive)
REMARK    1  A    between atoms: N_2  and  C_14
REMARK    2  A    between atoms: C_7  and  O_20
REMARK    3  A    between atoms: O_20  and  C_21
REMARK    4  A    between atoms: C_21  and  C_23
REMARK    5  A    between atoms: C_22  and  C_28
REMARK    6  A    between atoms: C_28  and  N_30
REMARK                            x       y       z     vdW  Elec       q    Type
REMARK                         _______ _______ _______ _____ _____    ______ ____
ROOT
ATOM      1  O   UNL     1      31.460  -5.459 -22.849  0.00  0.00    -0.270 OA
ATOM      2  N   UNL     1      32.466  -7.597 -22.829  0.00  0.00    -0.265 N 
ATOM      3  C   UNL     1      33.532  -8.270 -23.561  0.00  0.00    +0.124 C 
ATOM      4  C   UNL     1      33.978  -7.206 -24.504  0.00  0.00    +0.036 C 
ATOM      5  C   UNL     1      32.259  -6.287 -23.245  0.00  0.00    +0.249 C 
ATOM      6  C   UNL     1      33.230  -6.043 -24.319  0.00  0.00    +0.054 C 
ATOM      7  C   UNL     1      34.973  -7.250 -25.463  0.00  0.00    +0.137 C 
ATOM      8  C   UNL     1      33.434  -4.897 -25.062  0.00  0.00    +0.004 C 
ATOM      9  C   UNL     1      35.200  -6.103 -26.231  0.00  0.00    +0.037 C 
ATOM     10  C   UNL     1      34.437  -4.937 -26.031  0.00  0.00    +0.003 C 
ENDROOT
BRANCH   2  14
ATOM     11  O   UNL     1      33.110  -6.984 -20.256  0.00  0.00    -0.273 OA
ATOM     12  O   UNL     1      31.272 -10.882 -18.635  0.00  0.00    -0.275 OA
ATOM     13  N   UNL     1      32.200  -8.953 -19.491  0.00  0.00    -0.254 N 
ATOM     14  C   UNL     1      31.704  -8.224 -21.781  0.00  0.00    +0.153 C 
ATOM     15  C   UNL     1      31.520  -9.710 -22.049  0.00  0.00    +0.039 C 
ATOM     16  C   UNL     1      30.743 -10.335 -20.905  0.00  0.00    +0.088 C 
ATOM     17  C   UNL     1      32.431  -7.987 -20.470  0.00  0.00    +0.246 C 
ATOM     18  C   UNL     1      31.432 -10.110 -19.581  0.00  0.00    +0.228 C 
ATOM     19  H   UNL     1      32.637  -8.795 -18.623  0.00  0.00    +0.158 HD
ENDBRANCH   2  14
BRANCH   7  20
ATOM     20  O   UNL     1      35.712  -8.371 -25.664  0.00  0.00    -0.471 OA
BRANCH  20  21
ATOM     21  C   UNL     1      35.419  -9.146 -26.827  0.00  0.00    +0.232 C 
BRANCH  21  23
ATOM     22  C   UNL     1      33.653 -12.867 -25.621  0.00  0.00    -0.043 C 
ATOM     23  C   UNL     1      34.803 -10.448 -26.405  0.00  0.00    +0.021 C 
ATOM     24  C   UNL     1      33.801 -12.571 -26.977  0.00  0.00    -0.007 C 
ATOM     25  C   UNL     1      34.079 -11.953 -24.658  0.00  0.00    -0.007 C 
ATOM     26  C   UNL     1      34.377 -11.362 -27.369  0.00  0.00    -0.001 C 
ATOM     27  C   UNL     1      34.655 -10.743 -25.050  0.00  0.00    -0.001 C 
BRANCH  22  28
ATOM     28  C   UNL     1      33.037 -14.159 -25.203  0.00  0.00    -0.050 C 
BRANCH  28  30
ATOM     29  O   UNL     1      34.729 -17.351 -23.066  0.00  0.00    -0.358 OA
ATOM     30  N   UNL     1      34.016 -15.080 -24.627  0.00  0.00    +0.393 N 
ATOM     31  C   UNL     1      33.954 -15.054 -23.159  0.00  0.00    -0.044 C 
ATOM     32  C   UNL     1      33.795 -16.448 -25.116  0.00  0.00    -0.044 C 
ATOM     33  C   UNL     1      34.818 -17.393 -24.492  0.00  0.00    +0.119 C 
ATOM     34  C   UNL     1      34.974 -16.031 -22.581  0.00  0.00    +0.119 C 
ATOM     35  H   UNL     1      34.943 -14.774 -24.920  0.00  0.00    -0.079 HD
ENDBRANCH  28  30
ENDBRANCH  22  28
ENDBRANCH  21  23
ENDBRANCH  20  21
ENDBRANCH   7  20
TORSDOF 6
ENDMDL
