MODEL 1
REMARK VINA RESULT:     -12.4      0.000      0.000
REMARK  Name = 204109
REMARK  5 active torsions:
REMARK  status: ('A' for Active; 'I' for Inactive)
REMARK    1  A    between atoms: C_1  and  C_20
REMARK    2  A    between atoms: C_9  and  O_11
REMARK    3  A    between atoms: O_11  and  C_12
REMARK    4  A    between atoms: C_12  and  C_14
REMARK    5  A    between atoms: C_20  and  C_25
REMARK                            x       y       z     vdW  Elec       q    Type
REMARK                         _______ _______ _______ _____ _____    ______ ____
ROOT
ATOM      1  C   UNL     1      35.695 -18.922 -21.759  0.00  0.00    -0.021 C 
ATOM      2  C   UNL     1      34.257 -20.472 -20.556  0.00  0.00    -0.000 C 
ATOM      3  C   UNL     1      34.423 -19.408 -21.457  0.00  0.00    -0.004 C 
ATOM      4  C   UNL     1      35.398 -21.052 -19.953  0.00  0.00    +0.003 C 
ATOM      5  C   UNL     1      36.818 -19.493 -21.166  0.00  0.00    -0.004 C 
ATOM      6  C   UNL     1      36.672 -20.552 -20.269  0.00  0.00    -0.000 C 
ATOM      7  C   UNL     1      35.233 -22.117 -19.052  0.00  0.00    +0.037 C 
ATOM      8  C   UNL     1      32.984 -20.974 -20.240  0.00  0.00    +0.003 C 
ATOM      9  C   UNL     1      33.960 -22.602 -18.750  0.00  0.00    +0.139 C 
ATOM     10  C   UNL     1      32.838 -22.032 -19.343  0.00  0.00    +0.037 C 
ENDROOT
BRANCH   9  11
ATOM     11  O   UNL     1      33.815 -23.636 -17.875  0.00  0.00    -0.471 OA
BRANCH  11  12
ATOM     12  C   UNL     1      33.945 -23.335 -16.487  0.00  0.00    +0.234 C 
BRANCH  12  14
ATOM     13  F   UNL     1      34.003 -24.905 -14.138  0.00  0.00    -0.204 F 
ATOM     14  C   UNL     1      32.715 -23.694 -15.723  0.00  0.00    +0.049 C 
ATOM     15  C   UNL     1      32.811 -24.473 -14.570  0.00  0.00    +0.140 C 
ATOM     16  C   UNL     1      31.469 -23.250 -16.164  0.00  0.00    +0.002 C 
ATOM     17  C   UNL     1      31.658 -24.806 -13.857  0.00  0.00    +0.029 C 
ATOM     18  C   UNL     1      30.317 -23.584 -15.451  0.00  0.00    -0.000 C 
ATOM     19  C   UNL     1      30.412 -24.361 -14.298  0.00  0.00    +0.002 C 
ENDBRANCH  12  14
ENDBRANCH  11  12
ENDBRANCH   9  11
BRANCH   1  20
ATOM     20  C   UNL     1      35.853 -17.791 -22.718  0.00  0.00    +0.047 C 
BRANCH  20  25
ATOM     21  S   UNL     1      34.202 -17.343 -24.885  0.00  0.00    -0.048 S 
ATOM     22  O   UNL     1      34.724 -15.187 -21.726  0.00  0.00    -0.274 OA
ATOM     23  O   UNL     1      33.748 -15.136 -26.240  0.00  0.00    -0.263 OA
ATOM     24  N   UNL     1      34.209 -14.959 -23.969  0.00  0.00    -0.246 N 
ATOM     25  C   UNL     1      34.514 -17.164 -23.102  0.00  0.00    +0.137 C 
ATOM     26  C   UNL     1      34.503 -15.677 -22.828  0.00  0.00    +0.239 C 
ATOM     27  C   UNL     1      34.012 -15.623 -25.151  0.00  0.00    +0.279 C 
ATOM     28  H   UNL     1      34.143 -13.977 -23.934  0.00  0.00    +0.158 HD
ENDBRANCH  20  25
ENDBRANCH   1  20
TORSDOF 5
ENDMDL
MODEL 2
REMARK VINA RESULT:     -12.2      4.632      9.798
REMARK  Name = 204109
REMARK  5 active torsions:
REMARK  status: ('A' for Active; 'I' for Inactive)
REMARK    1  A    between atoms: C_1  and  C_20
REMARK    2  A    between atoms: C_9  and  O_11
REMARK    3  A    between atoms: O_11  and  C_12
REMARK    4  A    between atoms: C_12  and  C_14
REMARK    5  A    between atoms: C_20  and  C_25
REMARK                            x       y       z     vdW  Elec       q    Type
REMARK                         _______ _______ _______ _____ _____    ______ ____
ROOT
ATOM      1  C   UNL     1      33.581 -22.410 -18.941  0.00  0.00    -0.021 C 
ATOM      2  C   UNL     1      35.226 -20.992 -20.038  0.00  0.00    -0.000 C 
ATOM      3  C   UNL     1      34.908 -22.035 -19.154  0.00  0.00    -0.004 C 
ATOM      4  C   UNL     1      34.183 -20.319 -20.718  0.00  0.00    +0.003 C 
ATOM      5  C   UNL     1      32.556 -21.748 -19.610  0.00  0.00    -0.004 C 
ATOM      6  C   UNL     1      32.853 -20.710 -20.494  0.00  0.00    -0.000 C 
ATOM      7  C   UNL     1      34.500 -19.277 -21.603  0.00  0.00    +0.037 C 
ATOM      8  C   UNL     1      36.556 -20.601 -20.264  0.00  0.00    +0.003 C 
ATOM      9  C   UNL     1      35.828 -18.902 -21.815  0.00  0.00    +0.139 C 
ATOM     10  C   UNL     1      36.854 -19.563 -21.147  0.00  0.00    +0.037 C 
ENDROOT
BRANCH   9  11
ATOM     11  O   UNL     1      36.121 -17.889 -22.677  0.00  0.00    -0.471 OA
BRANCH  11  12
ATOM     12  C   UNL     1      35.114 -17.528 -23.621  0.00  0.00    +0.234 C 
BRANCH  12  14
ATOM     13  F   UNL     1      33.883 -15.960 -25.624  0.00  0.00    -0.204 F 
ATOM     14  C   UNL     1      34.570 -16.164 -23.360  0.00  0.00    +0.049 C 
ATOM     15  C   UNL     1      33.974 -15.440 -24.392  0.00  0.00    +0.140 C 
ATOM     16  C   UNL     1      34.660 -15.614 -22.082  0.00  0.00    +0.002 C 
ATOM     17  C   UNL     1      33.465 -14.164 -24.145  0.00  0.00    +0.029 C 
ATOM     18  C   UNL     1      34.153 -14.337 -21.835  0.00  0.00    -0.000 C 
ATOM     19  C   UNL     1      33.555 -13.613 -22.866  0.00  0.00    +0.002 C 
ENDBRANCH  12  14
ENDBRANCH  11  12
ENDBRANCH   9  11
BRANCH   1  20
ATOM     20  C   UNL     1      33.262 -23.520 -17.998  0.00  0.00    +0.047 C 
BRANCH  20  25
ATOM     21  S   UNL     1      33.704 -23.891 -15.298  0.00  0.00    -0.048 S 
ATOM     22  O   UNL     1      30.467 -22.844 -17.121  0.00  0.00    -0.274 OA
ATOM     23  O   UNL     1      32.222 -25.094 -13.490  0.00  0.00    -0.263 OA
ATOM     24  N   UNL     1      31.153 -24.000 -15.240  0.00  0.00    -0.246 N 
ATOM     25  C   UNL     1      32.827 -23.009 -16.626  0.00  0.00    +0.137 C 
ATOM     26  C   UNL     1      31.355 -23.259 -16.385  0.00  0.00    +0.239 C 
ATOM     27  C   UNL     1      32.234 -24.432 -14.517  0.00  0.00    +0.279 C 
ATOM     28  H   UNL     1      30.239 -24.218 -14.944  0.00  0.00    +0.158 HD
ENDBRANCH  20  25
ENDBRANCH   1  20
TORSDOF 5
ENDMDL
MODEL 3
REMARK VINA RESULT:     -12.1      1.799      2.690
REMARK  Name = 204109
REMARK  5 active torsions:
REMARK  status: ('A' for Active; 'I' for Inactive)
REMARK    1  A    between atoms: C_1  and  C_20
REMARK    2  A    between atoms: C_9  and  O_11
REMARK    3  A    between atoms: O_11  and  C_12
REMARK    4  A    between atoms: C_12  and  C_14
REMARK    5  A    between atoms: C_20  and  C_25
REMARK                            x       y       z     vdW  Elec       q    Type
REMARK                         _______ _______ _______ _____ _____    ______ ____
ROOT
ATOM      1  C   UNL     1      35.714 -19.026 -21.765  0.00  0.00    -0.021 C 
ATOM      2  C   UNL     1      34.297 -20.553 -20.506  0.00  0.00    -0.000 C 
ATOM      3  C   UNL     1      34.450 -19.530 -21.457  0.00  0.00    -0.004 C 
ATOM      4  C   UNL     1      35.443 -21.072 -19.860  0.00  0.00    +0.003 C 
ATOM      5  C   UNL     1      36.841 -19.537 -21.128  0.00  0.00    -0.004 C 
ATOM      6  C   UNL     1      36.708 -20.555 -20.182  0.00  0.00    -0.000 C 
ATOM      7  C   UNL     1      35.291 -22.095 -18.910  0.00  0.00    +0.037 C 
ATOM      8  C   UNL     1      33.032 -21.071 -20.184  0.00  0.00    +0.003 C 
ATOM      9  C   UNL     1      34.026 -22.598 -18.601  0.00  0.00    +0.139 C 
ATOM     10  C   UNL     1      32.899 -22.087 -19.238  0.00  0.00    +0.037 C 
ENDROOT
BRANCH   9  11
ATOM     11  O   UNL     1      33.894 -23.591 -17.678  0.00  0.00    -0.471 OA
BRANCH  11  12
ATOM     12  C   UNL     1      34.144 -23.249 -16.317  0.00  0.00    +0.234 C 
BRANCH  12  14
ATOM     13  F   UNL     1      36.655 -21.991 -15.999  0.00  0.00    -0.204 F 
ATOM     14  C   UNL     1      35.340 -23.956 -15.776  0.00  0.00    +0.049 C 
ATOM     15  C   UNL     1      36.552 -23.279 -15.643  0.00  0.00    +0.140 C 
ATOM     16  C   UNL     1      35.245 -25.296 -15.403  0.00  0.00    +0.002 C 
ATOM     17  C   UNL     1      37.670 -23.943 -15.136  0.00  0.00    +0.029 C 
ATOM     18  C   UNL     1      36.363 -25.961 -14.897  0.00  0.00    -0.000 C 
ATOM     19  C   UNL     1      37.575 -25.284 -14.763  0.00  0.00    +0.002 C 
ENDBRANCH  12  14
ENDBRANCH  11  12
ENDBRANCH   9  11
BRANCH   1  20
ATOM     20  C   UNL     1      35.857 -17.940 -22.776  0.00  0.00    +0.047 C 
BRANCH  20  25
ATOM     21  S   UNL     1      34.192 -17.412 -24.915  0.00  0.00    -0.048 S 
ATOM     22  O   UNL     1      34.749 -15.365 -21.690  0.00  0.00    -0.274 OA
ATOM     23  O   UNL     1      33.739 -15.159 -26.192  0.00  0.00    -0.263 OA
ATOM     24  N   UNL     1      34.219 -15.059 -23.920  0.00  0.00    -0.246 N 
ATOM     25  C   UNL     1      34.519 -17.294 -23.129  0.00  0.00    +0.137 C 
ATOM     26  C   UNL     1      34.518 -15.817 -22.806  0.00  0.00    +0.239 C 
ATOM     27  C   UNL     1      34.009 -15.683 -25.121  0.00  0.00    +0.279 C 
ATOM     28  H   UNL     1      34.158 -14.079 -23.852  0.00  0.00    +0.158 HD
ENDBRANCH  20  25
ENDBRANCH   1  20
TORSDOF 5
ENDMDL
MODEL 4
REMARK VINA RESULT:     -12.0      4.574      9.705
REMARK  Name = 204109
REMARK  5 active torsions:
REMARK  status: ('A' for Active; 'I' for Inactive)
REMARK    1  A    between atoms: C_1  and  C_20
REMARK    2  A    between atoms: C_9  and  O_11
REMARK    3  A    between atoms: O_11  and  C_12
REMARK    4  A    between atoms: C_12  and  C_14
REMARK    5  A    between atoms: C_20  and  C_25
REMARK                            x       y       z     vdW  Elec       q    Type
REMARK                         _______ _______ _______ _____ _____    ______ ____
ROOT
ATOM      1  C   UNL     1      33.436 -22.915 -18.046  0.00  0.00    -0.021 C 
ATOM      2  C   UNL     1      33.419 -21.310 -19.874  0.00  0.00    -0.000 C 
ATOM      3  C   UNL     1      32.737 -22.152 -18.981  0.00  0.00    -0.004 C 
ATOM      4  C   UNL     1      34.832 -21.240 -19.817  0.00  0.00    +0.003 C 
ATOM      5  C   UNL     1      34.825 -22.847 -17.990  0.00  0.00    -0.004 C 
ATOM      6  C   UNL     1      35.520 -22.014 -18.869  0.00  0.00    -0.000 C 
ATOM      7  C   UNL     1      35.514 -20.398 -20.709  0.00  0.00    +0.037 C 
ATOM      8  C   UNL     1      32.732 -20.535 -20.822  0.00  0.00    +0.003 C 
ATOM      9  C   UNL     1      34.815 -19.635 -21.645  0.00  0.00    +0.139 C 
ATOM     10  C   UNL     1      33.426 -19.703 -21.701  0.00  0.00    +0.037 C 
ENDROOT
BRANCH   9  11
ATOM     11  O   UNL     1      35.490 -18.822 -22.503  0.00  0.00    -0.471 OA
BRANCH  11  12
ATOM     12  C   UNL     1      35.653 -17.459 -22.115  0.00  0.00    +0.234 C 
BRANCH  12  14
ATOM     13  F   UNL     1      34.668 -14.954 -21.253  0.00  0.00    -0.204 F 
ATOM     14  C   UNL     1      34.904 -16.532 -23.011  0.00  0.00    +0.049 C 
ATOM     15  C   UNL     1      34.443 -15.309 -22.526  0.00  0.00    +0.140 C 
ATOM     16  C   UNL     1      34.663 -16.892 -24.337  0.00  0.00    +0.002 C 
ATOM     17  C   UNL     1      33.743 -14.443 -23.367  0.00  0.00    +0.029 C 
ATOM     18  C   UNL     1      33.962 -16.027 -25.179  0.00  0.00    -0.000 C 
ATOM     19  C   UNL     1      33.503 -14.803 -24.694  0.00  0.00    +0.002 C 
ENDBRANCH  12  14
ENDBRANCH  11  12
ENDBRANCH   9  11
BRANCH   1  20
ATOM     20  C   UNL     1      32.695 -23.804 -17.106  0.00  0.00    +0.047 C 
BRANCH  20  25
ATOM     21  S   UNL     1      32.443 -23.695 -14.358  0.00  0.00    -0.048 S 
ATOM     22  O   UNL     1      29.858 -22.812 -17.085  0.00  0.00    -0.274 OA
ATOM     23  O   UNL     1      30.458 -24.450 -12.809  0.00  0.00    -0.263 OA
ATOM     24  N   UNL     1      29.954 -23.638 -14.928  0.00  0.00    -0.246 N 
ATOM     25  C   UNL     1      32.003 -23.023 -15.991  0.00  0.00    +0.137 C 
ATOM     26  C   UNL     1      30.498 -23.135 -16.091  0.00  0.00    +0.239 C 
ATOM     27  C   UNL     1      30.781 -23.992 -13.895  0.00  0.00    +0.279 C 
ATOM     28  H   UNL     1      28.979 -23.742 -14.840  0.00  0.00    +0.158 HD
ENDBRANCH  20  25
ENDBRANCH   1  20
TORSDOF 5
ENDMDL
MODEL 5
REMARK VINA RESULT:     -11.7      4.937     10.072
REMARK  Name = 204109
REMARK  5 active torsions:
REMARK  status: ('A' for Active; 'I' for Inactive)
REMARK    1  A    between atoms: C_1  and  C_20
REMARK    2  A    between atoms: C_9  and  O_11
REMARK    3  A    between atoms: O_11  and  C_12
REMARK    4  A    between atoms: C_12  and  C_14
REMARK    5  A    between atoms: C_20  and  C_25
REMARK                            x       y       z     vdW  Elec       q    Type
REMARK                         _______ _______ _______ _____ _____    ______ ____
ROOT
ATOM      1  C   UNL     1      34.627 -23.487 -16.759  0.00  0.00    -0.021 C 
ATOM      2  C   UNL     1      35.133 -22.027 -18.639  0.00  0.00    -0.000 C 
ATOM      3  C   UNL     1      35.550 -22.779 -17.529  0.00  0.00    -0.004 C 
ATOM      4  C   UNL     1      33.758 -21.993 -18.972  0.00  0.00    +0.003 C 
ATOM      5  C   UNL     1      33.275 -23.453 -17.088  0.00  0.00    -0.004 C 
ATOM      6  C   UNL     1      32.841 -22.711 -18.188  0.00  0.00    -0.000 C 
ATOM      7  C   UNL     1      33.339 -21.241 -20.082  0.00  0.00    +0.037 C 
ATOM      8  C   UNL     1      36.048 -21.308 -19.425  0.00  0.00    +0.003 C 
ATOM      9  C   UNL     1      34.263 -20.533 -20.852  0.00  0.00    +0.139 C 
ATOM     10  C   UNL     1      35.615 -20.567 -20.524  0.00  0.00    +0.037 C 
ENDROOT
BRANCH   9  11
ATOM     11  O   UNL     1      33.843 -19.809 -21.926  0.00  0.00    -0.471 OA
BRANCH  11  12
ATOM     12  C   UNL     1      34.831 -19.430 -22.882  0.00  0.00    +0.234 C 
BRANCH  12  14
ATOM     13  F   UNL     1      35.293 -17.248 -21.145  0.00  0.00    -0.204 F 
ATOM     14  C   UNL     1      34.677 -18.010 -23.309  0.00  0.00    +0.049 C 
ATOM     15  C   UNL     1      34.920 -16.977 -22.404  0.00  0.00    +0.140 C 
ATOM     16  C   UNL     1      34.289 -17.716 -24.616  0.00  0.00    +0.002 C 
ATOM     17  C   UNL     1      34.775 -15.649 -22.806  0.00  0.00    +0.029 C 
ATOM     18  C   UNL     1      34.144 -16.388 -25.018  0.00  0.00    -0.000 C 
ATOM     19  C   UNL     1      34.387 -15.355 -24.114  0.00  0.00    +0.002 C 
ENDBRANCH  12  14
ENDBRANCH  11  12
ENDBRANCH   9  11
BRANCH   1  20
ATOM     20  C   UNL     1      35.089 -24.280 -15.584  0.00  0.00    +0.047 C 
BRANCH  20  25
ATOM     21  S   UNL     1      36.779 -23.351 -13.609  0.00  0.00    -0.048 S 
ATOM     22  O   UNL     1      33.067 -24.378 -13.362  0.00  0.00    -0.274 OA
ATOM     23  O   UNL     1      37.107 -24.177 -11.134  0.00  0.00    -0.263 OA
ATOM     24  N   UNL     1      34.991 -24.347 -12.080  0.00  0.00    -0.246 N 
ATOM     25  C   UNL     1      35.098 -23.460 -14.296  0.00  0.00    +0.137 C 
ATOM     26  C   UNL     1      34.255 -24.109 -13.222  0.00  0.00    +0.239 C 
ATOM     27  C   UNL     1      36.323 -24.027 -12.060  0.00  0.00    +0.279 C 
ATOM     28  H   UNL     1      34.564 -24.744 -11.288  0.00  0.00    +0.158 HD
ENDBRANCH  20  25
ENDBRANCH   1  20
TORSDOF 5
ENDMDL
MODEL 6
REMARK VINA RESULT:     -11.5      1.328      2.311
REMARK  Name = 204109
REMARK  5 active torsions:
REMARK  status: ('A' for Active; 'I' for Inactive)
REMARK    1  A    between atoms: C_1  and  C_20
REMARK    2  A    between atoms: C_9  and  O_11
REMARK    3  A    between atoms: O_11  and  C_12
REMARK    4  A    between atoms: C_12  and  C_14
REMARK    5  A    between atoms: C_20  and  C_25
REMARK                            x       y       z     vdW  Elec       q    Type
REMARK                         _______ _______ _______ _____ _____    ______ ____
ROOT
ATOM      1  C   UNL     1      34.976 -20.442 -20.878  0.00  0.00    -0.021 C 
ATOM      2  C   UNL     1      35.307 -21.722 -18.836  0.00  0.00    -0.000 C 
ATOM      3  C   UNL     1      35.813 -20.915 -19.868  0.00  0.00    -0.004 C 
ATOM      4  C   UNL     1      33.931 -22.053 -18.829  0.00  0.00    +0.003 C 
ATOM      5  C   UNL     1      33.623 -20.769 -20.872  0.00  0.00    -0.004 C 
ATOM      6  C   UNL     1      33.102 -21.568 -19.854  0.00  0.00    -0.000 C 
ATOM      7  C   UNL     1      33.424 -22.860 -17.797  0.00  0.00    +0.037 C 
ATOM      8  C   UNL     1      36.135 -22.207 -17.810  0.00  0.00    +0.003 C 
ATOM      9  C   UNL     1      34.262 -23.333 -16.786  0.00  0.00    +0.139 C 
ATOM     10  C   UNL     1      35.615 -23.006 -16.793  0.00  0.00    +0.037 C 
ENDROOT
BRANCH   9  11
ATOM     11  O   UNL     1      33.756 -24.113 -15.792  0.00  0.00    -0.471 OA
BRANCH  11  12
ATOM     12  C   UNL     1      32.857 -23.495 -14.874  0.00  0.00    +0.234 C 
BRANCH  12  14
ATOM     13  F   UNL     1      31.729 -25.777 -13.647  0.00  0.00    -0.204 F 
ATOM     14  C   UNL     1      31.447 -23.922 -15.103  0.00  0.00    +0.049 C 
ATOM     15  C   UNL     1      30.949 -25.059 -14.468  0.00  0.00    +0.140 C 
ATOM     16  C   UNL     1      30.627 -23.183 -15.955  0.00  0.00    +0.002 C 
ATOM     17  C   UNL     1      29.629 -25.457 -14.683  0.00  0.00    +0.029 C 
ATOM     18  C   UNL     1      29.307 -23.581 -16.172  0.00  0.00    -0.000 C 
ATOM     19  C   UNL     1      28.808 -24.717 -15.536  0.00  0.00    +0.002 C 
ENDBRANCH  12  14
ENDBRANCH  11  12
ENDBRANCH   9  11
BRANCH   1  20
ATOM     20  C   UNL     1      35.531 -19.587 -21.967  0.00  0.00    +0.047 C 
BRANCH  20  25
ATOM     21  S   UNL     1      34.446 -18.642 -24.323  0.00  0.00    -0.048 S 
ATOM     22  O   UNL     1      35.039 -16.786 -20.991  0.00  0.00    -0.274 OA
ATOM     23  O   UNL     1      34.858 -16.374 -25.587  0.00  0.00    -0.263 OA
ATOM     24  N   UNL     1      34.978 -16.378 -23.266  0.00  0.00    -0.246 N 
ATOM     25  C   UNL     1      34.504 -18.593 -22.505  0.00  0.00    +0.137 C 
ATOM     26  C   UNL     1      34.869 -17.171 -22.143  0.00  0.00    +0.239 C 
ATOM     27  C   UNL     1      34.794 -16.936 -24.504  0.00  0.00    +0.279 C 
ATOM     28  H   UNL     1      35.187 -15.420 -23.180  0.00  0.00    +0.158 HD
ENDBRANCH  20  25
ENDBRANCH   1  20
TORSDOF 5
ENDMDL
MODEL 7
REMARK VINA RESULT:     -11.4      4.802      9.795
REMARK  Name = 204109
REMARK  5 active torsions:
REMARK  status: ('A' for Active; 'I' for Inactive)
REMARK    1  A    between atoms: C_1  and  C_20
REMARK    2  A    between atoms: C_9  and  O_11
REMARK    3  A    between atoms: O_11  and  C_12
REMARK    4  A    between atoms: C_12  and  C_14
REMARK    5  A    between atoms: C_20  and  C_25
REMARK                            x       y       z     vdW  Elec       q    Type
REMARK                         _______ _______ _______ _____ _____    ______ ____
ROOT
ATOM      1  C   UNL     1      34.127 -22.777 -18.001  0.00  0.00    -0.021 C 
ATOM      2  C   UNL     1      33.558 -21.317 -19.862  0.00  0.00    -0.000 C 
ATOM      3  C   UNL     1      33.172 -22.182 -18.825  0.00  0.00    -0.004 C 
ATOM      4  C   UNL     1      34.933 -21.052 -20.065  0.00  0.00    +0.003 C 
ATOM      5  C   UNL     1      35.479 -22.516 -18.201  0.00  0.00    -0.004 C 
ATOM      6  C   UNL     1      35.882 -21.658 -19.225  0.00  0.00    -0.000 C 
ATOM      7  C   UNL     1      35.320 -20.186 -21.101  0.00  0.00    +0.037 C 
ATOM      8  C   UNL     1      32.611 -20.709 -20.701  0.00  0.00    +0.003 C 
ATOM      9  C   UNL     1      34.365 -19.591 -21.926  0.00  0.00    +0.139 C 
ATOM     10  C   UNL     1      33.012 -19.852 -21.726  0.00  0.00    +0.037 C 
ENDROOT
BRANCH   9  11
ATOM     11  O   UNL     1      34.755 -18.753 -22.926  0.00  0.00    -0.471 OA
BRANCH  11  12
ATOM     12  C   UNL     1      35.650 -17.699 -22.578  0.00  0.00    +0.234 C 
BRANCH  12  14
ATOM     13  F   UNL     1      35.147 -16.388 -25.031  0.00  0.00    -0.204 F 
ATOM     14  C   UNL     1      34.995 -16.363 -22.661  0.00  0.00    +0.049 C 
ATOM     15  C   UNL     1      34.774 -15.767 -23.903  0.00  0.00    +0.140 C 
ATOM     16  C   UNL     1      34.603 -15.707 -21.494  0.00  0.00    +0.002 C 
ATOM     17  C   UNL     1      34.160 -14.516 -23.978  0.00  0.00    +0.029 C 
ATOM     18  C   UNL     1      33.990 -14.456 -21.568  0.00  0.00    -0.000 C 
ATOM     19  C   UNL     1      33.768 -13.861 -22.810  0.00  0.00    +0.002 C 
ENDBRANCH  12  14
ENDBRANCH  11  12
ENDBRANCH   9  11
BRANCH   1  20
ATOM     20  C   UNL     1      33.698 -23.694 -16.905  0.00  0.00    +0.047 C 
BRANCH  20  25
ATOM     21  S   UNL     1      35.143 -23.796 -14.555  0.00  0.00    -0.048 S 
ATOM     22  O   UNL     1      31.429 -22.899 -15.100  0.00  0.00    -0.274 OA
ATOM     23  O   UNL     1      34.493 -24.791 -12.210  0.00  0.00    -0.263 OA
ATOM     24  N   UNL     1      32.810 -23.868 -13.518  0.00  0.00    -0.246 N 
ATOM     25  C   UNL     1      33.804 -23.042 -15.528  0.00  0.00    +0.137 C 
ATOM     26  C   UNL     1      32.542 -23.248 -14.721  0.00  0.00    +0.239 C 
ATOM     27  C   UNL     1      34.096 -24.237 -13.223  0.00  0.00    +0.279 C 
ATOM     28  H   UNL     1      32.084 -24.044 -12.878  0.00  0.00    +0.158 HD
ENDBRANCH  20  25
ENDBRANCH   1  20
TORSDOF 5
ENDMDL
MODEL 8
REMARK VINA RESULT:     -11.4      2.064      3.105
REMARK  Name = 204109
REMARK  5 active torsions:
REMARK  status: ('A' for Active; 'I' for Inactive)
REMARK    1  A    between atoms: C_1  and  C_20
REMARK    2  A    between atoms: C_9  and  O_11
REMARK    3  A    between atoms: O_11  and  C_12
REMARK    4  A    between atoms: C_12  and  C_14
REMARK    5  A    between atoms: C_20  and  C_25
REMARK                            x       y       z     vdW  Elec       q    Type
REMARK                         _______ _______ _______ _____ _____    ______ ____
ROOT
ATOM      1  C   UNL     1      34.917 -18.404 -23.030  0.00  0.00    -0.021 C 
ATOM      2  C   UNL     1      34.671 -20.072 -21.275  0.00  0.00    -0.000 C 
ATOM      3  C   UNL     1      34.118 -19.281 -22.295  0.00  0.00    -0.004 C 
ATOM      4  C   UNL     1      36.055 -19.971 -20.996  0.00  0.00    +0.003 C 
ATOM      5  C   UNL     1      36.277 -18.306 -22.755  0.00  0.00    -0.004 C 
ATOM      6  C   UNL     1      36.845 -19.084 -21.745  0.00  0.00    -0.000 C 
ATOM      7  C   UNL     1      36.609 -20.762 -19.976  0.00  0.00    +0.037 C 
ATOM      8  C   UNL     1      33.882 -20.960 -20.526  0.00  0.00    +0.003 C 
ATOM      9  C   UNL     1      35.809 -21.639 -19.241  0.00  0.00    +0.139 C 
ATOM     10  C   UNL     1      34.448 -21.737 -19.516  0.00  0.00    +0.037 C 
ENDROOT
BRANCH   9  11
ATOM     11  O   UNL     1      36.360 -22.400 -18.256  0.00  0.00    -0.471 OA
BRANCH  11  12
ATOM     12  C   UNL     1      36.399 -21.837 -16.946  0.00  0.00    +0.234 C 
BRANCH  12  14
ATOM     13  F   UNL     1      33.820 -22.922 -16.544  0.00  0.00    -0.204 F 
ATOM     14  C   UNL     1      36.104 -22.853 -15.895  0.00  0.00    +0.049 C 
ATOM     15  C   UNL     1      34.809 -23.350 -15.747  0.00  0.00    +0.140 C 
ATOM     16  C   UNL     1      37.124 -23.306 -15.060  0.00  0.00    +0.002 C 
ATOM     17  C   UNL     1      34.535 -24.301 -14.763  0.00  0.00    +0.029 C 
ATOM     18  C   UNL     1      36.851 -24.256 -14.075  0.00  0.00    -0.000 C 
ATOM     19  C   UNL     1      35.557 -24.754 -13.927  0.00  0.00    +0.002 C 
ENDBRANCH  12  14
ENDBRANCH  11  12
ENDBRANCH   9  11
BRANCH   1  20
ATOM     20  C   UNL     1      34.312 -17.572 -24.110  0.00  0.00    +0.047 C 
BRANCH  20  25
ATOM     21  S   UNL     1      34.469 -15.486 -22.309  0.00  0.00    -0.048 S 
ATOM     22  O   UNL     1      33.735 -15.392 -26.097  0.00  0.00    -0.274 OA
ATOM     23  O   UNL     1      32.924 -13.378 -22.021  0.00  0.00    -0.263 OA
ATOM     24  N   UNL     1      33.222 -14.241 -24.159  0.00  0.00    -0.246 N 
ATOM     25  C   UNL     1      34.712 -16.102 -24.003  0.00  0.00    +0.137 C 
ATOM     26  C   UNL     1      33.849 -15.230 -24.887  0.00  0.00    +0.239 C 
ATOM     27  C   UNL     1      33.406 -14.185 -22.802  0.00  0.00    +0.279 C 
ATOM     28  H   UNL     1      32.646 -13.582 -24.609  0.00  0.00    +0.158 HD
ENDBRANCH  20  25
ENDBRANCH   1  20
TORSDOF 5
ENDMDL
MODEL 9
REMARK VINA RESULT:     -11.3      3.811      6.452
REMARK  Name = 204109
REMARK  5 active torsions:
REMARK  status: ('A' for Active; 'I' for Inactive)
REMARK    1  A    between atoms: C_1  and  C_20
REMARK    2  A    between atoms: C_9  and  O_11
REMARK    3  A    between atoms: O_11  and  C_12
REMARK    4  A    between atoms: C_12  and  C_14
REMARK    5  A    between atoms: C_20  and  C_25
REMARK                            x       y       z     vdW  Elec       q    Type
REMARK                         _______ _______ _______ _____ _____    ______ ____
ROOT
ATOM      1  C   UNL     1      33.684 -13.668 -24.656  0.00  0.00    -0.021 C 
ATOM      2  C   UNL     1      33.929 -16.089 -24.705  0.00  0.00    -0.000 C 
ATOM      3  C   UNL     1      33.538 -14.887 -25.319  0.00  0.00    -0.004 C 
ATOM      4  C   UNL     1      34.476 -16.052 -23.400  0.00  0.00    +0.003 C 
ATOM      5  C   UNL     1      34.222 -13.633 -23.373  0.00  0.00    -0.004 C 
ATOM      6  C   UNL     1      34.617 -14.817 -22.748  0.00  0.00    -0.000 C 
ATOM      7  C   UNL     1      34.867 -17.253 -22.787  0.00  0.00    +0.037 C 
ATOM      8  C   UNL     1      33.788 -17.324 -25.357  0.00  0.00    +0.003 C 
ATOM      9  C   UNL     1      34.720 -18.473 -23.449  0.00  0.00    +0.139 C 
ATOM     10  C   UNL     1      34.182 -18.508 -24.732  0.00  0.00    +0.037 C 
ENDROOT
BRANCH   9  11
ATOM     11  O   UNL     1      35.104 -19.629 -22.842  0.00  0.00    -0.471 OA
BRANCH  11  12
ATOM     12  C   UNL     1      35.473 -19.549 -21.467  0.00  0.00    +0.234 C 
BRANCH  12  14
ATOM     13  F   UNL     1      36.705 -21.557 -19.905  0.00  0.00    -0.204 F 
ATOM     14  C   UNL     1      34.700 -20.508 -20.626  0.00  0.00    +0.049 C 
ATOM     15  C   UNL     1      35.367 -21.477 -19.878  0.00  0.00    +0.140 C 
ATOM     16  C   UNL     1      33.308 -20.435 -20.591  0.00  0.00    +0.002 C 
ATOM     17  C   UNL     1      34.641 -22.374 -19.092  0.00  0.00    +0.029 C 
ATOM     18  C   UNL     1      32.582 -21.331 -19.806  0.00  0.00    -0.000 C 
ATOM     19  C   UNL     1      33.248 -22.300 -19.056  0.00  0.00    +0.002 C 
ENDBRANCH  12  14
ENDBRANCH  11  12
ENDBRANCH   9  11
BRANCH   1  20
ATOM     20  C   UNL     1      33.264 -12.402 -25.323  0.00  0.00    +0.047 C 
BRANCH  20  25
ATOM     21  S   UNL     1      33.478  -9.960 -24.054  0.00  0.00    -0.048 S 
ATOM     22  O   UNL     1      35.165 -11.178 -27.305  0.00  0.00    -0.274 OA
ATOM     23  O   UNL     1      33.459  -7.527 -25.049  0.00  0.00    -0.263 OA
ATOM     24  N   UNL     1      34.375  -9.234 -26.333  0.00  0.00    -0.246 N 
ATOM     25  C   UNL     1      34.245 -11.259 -25.071  0.00  0.00    +0.137 C 
ATOM     26  C   UNL     1      34.651 -10.586 -26.362  0.00  0.00    +0.239 C 
ATOM     27  C   UNL     1      33.769  -8.695 -25.228  0.00  0.00    +0.279 C 
ATOM     28  H   UNL     1      34.610  -8.663 -27.098  0.00  0.00    +0.158 HD
ENDBRANCH  20  25
ENDBRANCH   1  20
TORSDOF 5
ENDMDL
