MODEL 1
REMARK VINA RESULT:     -12.3      0.000      0.000
REMARK  Name = 44141871
REMARK  6 active torsions:
REMARK  status: ('A' for Active; 'I' for Inactive)
REMARK    1  A    between atoms: C_1  and  C_10
REMARK    2  A    between atoms: C_4  and  O_20
REMARK    3  A    between atoms: C_9  and  C_13
REMARK    4  A    between atoms: C_13  and  C_15
REMARK    5  A    between atoms: O_20  and  C_21
REMARK    6  A    between atoms: C_21  and  C_23
REMARK                            x       y       z     vdW  Elec       q    Type
REMARK                         _______ _______ _______ _____ _____    ______ ____
ROOT
ATOM      1  C   UNL     1      34.805 -18.877 -22.292  0.00  0.00    +0.015 C 
ATOM      2  C   UNL     1      33.655 -19.556 -21.891  0.00  0.00    +0.004 C 
ATOM      3  C   UNL     1      36.027 -19.154 -21.680  0.00  0.00    +0.004 C 
ATOM      4  C   UNL     1      34.949 -20.790 -20.265  0.00  0.00    +0.139 C 
ATOM      5  C   UNL     1      33.727 -20.512 -20.878  0.00  0.00    +0.037 C 
ATOM      6  C   UNL     1      36.099 -20.111 -20.667  0.00  0.00    +0.037 C 
ENDROOT
BRANCH   1  10
ATOM      7  N   UNL     1      34.616 -18.221 -24.657  0.00  0.00    -0.236 N 
ATOM      8  N   UNL     1      34.562 -17.161 -25.482  0.00  0.00    -0.180 NA
ATOM      9  C   UNL     1      34.753 -16.516 -23.299  0.00  0.00    +0.018 C 
ATOM     10  C   UNL     1      34.730 -17.889 -23.340  0.00  0.00    +0.063 C 
ATOM     11  C   UNL     1      34.646 -16.122 -24.647  0.00  0.00    +0.115 C 
ATOM     12  H   UNL     1      34.576 -19.152 -24.975  0.00  0.00    +0.174 HD
BRANCH   9  13
ATOM     13  C   UNL     1      34.865 -15.641 -22.119  0.00  0.00    +0.056 C 
BRANCH  13  15
ATOM     14  N   UNL     1      31.968 -12.440 -21.981  0.00  0.00    -0.242 NA
ATOM     15  C   UNL     1      33.843 -14.512 -22.071  0.00  0.00    -0.015 C 
ATOM     16  C   UNL     1      33.773 -13.589 -23.109  0.00  0.00    +0.017 C 
ATOM     17  C   UNL     1      32.977 -14.400 -20.989  0.00  0.00    +0.017 C 
ATOM     18  C   UNL     1      32.827 -12.581 -23.016  0.00  0.00    +0.099 C 
ATOM     19  C   UNL     1      32.066 -13.356 -20.992  0.00  0.00    +0.099 C 
ENDBRANCH  13  15
ENDBRANCH   9  13
ENDBRANCH   1  10
BRANCH   4  20
ATOM     20  O   UNL     1      35.020 -21.731 -19.273  0.00  0.00    -0.468 OA
BRANCH  20  21
ATOM     21  C   UNL     1      34.077 -22.793 -19.328  0.00  0.00    +0.264 C 
BRANCH  21  23
ATOM     22  N   UNL     1      32.126 -22.956 -17.904  0.00  0.00    -0.406 NA
ATOM     23  C   UNL     1      33.476 -22.992 -17.976  0.00  0.00    +0.152 C 
ATOM     24  C   UNL     1      32.308 -23.349 -15.535  0.00  0.00    +0.026 C 
ATOM     25  C   UNL     1      31.547 -23.131 -16.702  0.00  0.00    +0.113 C 
ATOM     26  C   UNL     1      34.303 -23.198 -16.892  0.00  0.00    +0.031 C 
ATOM     27  C   UNL     1      33.704 -23.379 -15.653  0.00  0.00    +0.005 C 
ATOM     28  C   UNL     1      31.671 -23.529 -14.295  0.00  0.00    +0.002 C 
ATOM     29  C   UNL     1      30.160 -23.101 -16.583  0.00  0.00    +0.085 C 
ATOM     30  C   UNL     1      30.282 -23.494 -14.205  0.00  0.00    -0.004 C 
ATOM     31  C   UNL     1      29.526 -23.280 -15.351  0.00  0.00    -0.019 C 
ENDBRANCH  21  23
ENDBRANCH  20  21
ENDBRANCH   4  20
TORSDOF 6
ENDMDL
MODEL 2
REMARK VINA RESULT:     -12.1      2.020      9.990
REMARK  Name = 44141871
REMARK  6 active torsions:
REMARK  status: ('A' for Active; 'I' for Inactive)
REMARK    1  A    between atoms: C_1  and  C_10
REMARK    2  A    between atoms: C_4  and  O_20
REMARK    3  A    between atoms: C_9  and  C_13
REMARK    4  A    between atoms: C_13  and  C_15
REMARK    5  A    between atoms: O_20  and  C_21
REMARK    6  A    between atoms: C_21  and  C_23
REMARK                            x       y       z     vdW  Elec       q    Type
REMARK                         _______ _______ _______ _____ _____    ______ ____
ROOT
ATOM      1  C   UNL     1      34.354 -22.921 -17.407  0.00  0.00    +0.015 C 
ATOM      2  C   UNL     1      35.598 -22.356 -17.685  0.00  0.00    +0.004 C 
ATOM      3  C   UNL     1      33.303 -22.775 -18.313  0.00  0.00    +0.004 C 
ATOM      4  C   UNL     1      34.741 -21.499 -19.776  0.00  0.00    +0.139 C 
ATOM      5  C   UNL     1      35.792 -21.645 -18.870  0.00  0.00    +0.037 C 
ATOM      6  C   UNL     1      33.497 -22.064 -19.497  0.00  0.00    +0.037 C 
ENDROOT
BRANCH   1  10
ATOM      7  N   UNL     1      35.015 -24.625 -15.758  0.00  0.00    -0.236 N 
ATOM      8  N   UNL     1      34.658 -25.198 -14.595  0.00  0.00    -0.180 NA
ATOM      9  C   UNL     1      33.165 -23.589 -15.231  0.00  0.00    +0.018 C 
ATOM     10  C   UNL     1      34.154 -23.656 -16.182  0.00  0.00    +0.063 C 
ATOM     11  C   UNL     1      33.527 -24.561 -14.278  0.00  0.00    +0.115 C 
ATOM     12  H   UNL     1      35.823 -24.883 -16.257  0.00  0.00    +0.174 HD
BRANCH   9  13
ATOM     13  C   UNL     1      31.986 -22.706 -15.203  0.00  0.00    +0.056 C 
BRANCH  13  15
ATOM     14  N   UNL     1      28.266 -24.649 -16.223  0.00  0.00    -0.242 NA
ATOM     15  C   UNL     1      30.674 -23.391 -15.563  0.00  0.00    -0.015 C 
ATOM     16  C   UNL     1      30.259 -24.517 -14.859  0.00  0.00    +0.017 C 
ATOM     17  C   UNL     1      29.887 -22.894 -16.595  0.00  0.00    +0.017 C 
ATOM     18  C   UNL     1      29.059 -25.104 -15.225  0.00  0.00    +0.099 C 
ATOM     19  C   UNL     1      28.703 -23.553 -16.883  0.00  0.00    +0.099 C 
ENDBRANCH  13  15
ENDBRANCH   9  13
ENDBRANCH   1  10
BRANCH   4  20
ATOM     20  O   UNL     1      34.932 -20.804 -20.940  0.00  0.00    -0.468 OA
BRANCH  20  21
ATOM     21  C   UNL     1      35.889 -19.753 -20.910  0.00  0.00    +0.264 C 
BRANCH  21  23
ATOM     22  N   UNL     1      35.201 -17.463 -21.289  0.00  0.00    -0.406 NA
ATOM     23  C   UNL     1      35.463 -18.668 -21.843  0.00  0.00    +0.152 C 
ATOM     24  C   UNL     1      34.680 -16.638 -23.491  0.00  0.00    +0.026 C 
ATOM     25  C   UNL     1      34.815 -16.460 -22.099  0.00  0.00    +0.113 C 
ATOM     26  C   UNL     1      35.359 -18.939 -23.192  0.00  0.00    +0.031 C 
ATOM     27  C   UNL     1      34.961 -17.903 -24.025  0.00  0.00    +0.005 C 
ATOM     28  C   UNL     1      34.274 -15.568 -24.308  0.00  0.00    +0.002 C 
ATOM     29  C   UNL     1      34.535 -15.203 -21.570  0.00  0.00    +0.085 C 
ATOM     30  C   UNL     1      34.001 -14.322 -23.752  0.00  0.00    -0.004 C 
ATOM     31  C   UNL     1      34.132 -14.139 -22.381  0.00  0.00    -0.019 C 
ENDBRANCH  21  23
ENDBRANCH  20  21
ENDBRANCH   4  20
TORSDOF 6
ENDMDL
MODEL 3
REMARK VINA RESULT:     -12.1      1.759      2.452
REMARK  Name = 44141871
REMARK  6 active torsions:
REMARK  status: ('A' for Active; 'I' for Inactive)
REMARK    1  A    between atoms: C_1  and  C_10
REMARK    2  A    between atoms: C_4  and  O_20
REMARK    3  A    between atoms: C_9  and  C_13
REMARK    4  A    between atoms: C_13  and  C_15
REMARK    5  A    between atoms: O_20  and  C_21
REMARK    6  A    between atoms: C_21  and  C_23
REMARK                            x       y       z     vdW  Elec       q    Type
REMARK                         _______ _______ _______ _____ _____    ______ ____
ROOT
ATOM      1  C   UNL     1      35.088 -18.289 -22.559  0.00  0.00    +0.015 C 
ATOM      2  C   UNL     1      34.196 -19.244 -22.072  0.00  0.00    +0.004 C 
ATOM      3  C   UNL     1      36.400 -18.255 -22.085  0.00  0.00    +0.004 C 
ATOM      4  C   UNL     1      35.927 -20.131 -20.638  0.00  0.00    +0.139 C 
ATOM      5  C   UNL     1      34.615 -20.165 -21.112  0.00  0.00    +0.037 C 
ATOM      6  C   UNL     1      36.819 -19.175 -21.125  0.00  0.00    +0.037 C 
ENDROOT
BRANCH   1  10
ATOM      7  N   UNL     1      34.329 -17.701 -24.825  0.00  0.00    -0.236 N 
ATOM      8  N   UNL     1      33.949 -16.673 -25.604  0.00  0.00    -0.180 NA
ATOM      9  C   UNL     1      34.477 -15.977 -23.493  0.00  0.00    +0.018 C 
ATOM     10  C   UNL     1      34.655 -17.338 -23.552  0.00  0.00    +0.063 C 
ATOM     11  C   UNL     1      34.042 -15.622 -24.784  0.00  0.00    +0.115 C 
ATOM     12  H   UNL     1      34.367 -18.632 -25.145  0.00  0.00    +0.174 HD
BRANCH   9  13
ATOM     13  C   UNL     1      34.691 -15.079 -22.344  0.00  0.00    +0.056 C 
BRANCH  13  15
ATOM     14  N   UNL     1      31.548 -12.183 -21.724  0.00  0.00    -0.242 NA
ATOM     15  C   UNL     1      33.583 -14.057 -22.126  0.00  0.00    -0.015 C 
ATOM     16  C   UNL     1      32.769 -14.141 -21.001  0.00  0.00    +0.017 C 
ATOM     17  C   UNL     1      33.381 -13.038 -23.049  0.00  0.00    +0.017 C 
ATOM     18  C   UNL     1      31.775 -13.188 -20.849  0.00  0.00    +0.099 C 
ATOM     19  C   UNL     1      32.359 -12.134 -22.804  0.00  0.00    +0.099 C 
ENDBRANCH  13  15
ENDBRANCH   9  13
ENDBRANCH   1  10
BRANCH   4  20
ATOM     20  O   UNL     1      36.340 -21.037 -19.698  0.00  0.00    -0.468 OA
BRANCH  20  21
ATOM     21  C   UNL     1      35.382 -21.995 -19.267  0.00  0.00    +0.264 C 
BRANCH  21  23
ATOM     22  N   UNL     1      34.638 -22.983 -17.186  0.00  0.00    -0.406 NA
ATOM     23  C   UNL     1      35.635 -22.342 -17.838  0.00  0.00    +0.152 C 
ATOM     24  C   UNL     1      36.028 -23.006 -15.219  0.00  0.00    +0.026 C 
ATOM     25  C   UNL     1      34.829 -23.312 -15.895  0.00  0.00    +0.113 C 
ATOM     26  C   UNL     1      36.841 -22.000 -17.262  0.00  0.00    +0.031 C 
ATOM     27  C   UNL     1      37.035 -22.340 -15.930  0.00  0.00    +0.005 C 
ATOM     28  C   UNL     1      36.193 -23.365 -13.870  0.00  0.00    +0.002 C 
ATOM     29  C   UNL     1      33.828 -23.973 -15.187  0.00  0.00    +0.085 C 
ATOM     30  C   UNL     1      35.176 -24.025 -13.187  0.00  0.00    -0.004 C 
ATOM     31  C   UNL     1      33.992 -24.330 -13.847  0.00  0.00    -0.019 C 
ENDBRANCH  21  23
ENDBRANCH  20  21
ENDBRANCH   4  20
TORSDOF 6
ENDMDL
MODEL 4
REMARK VINA RESULT:     -12.0      3.192      6.595
REMARK  Name = 44141871
REMARK  6 active torsions:
REMARK  status: ('A' for Active; 'I' for Inactive)
REMARK    1  A    between atoms: C_1  and  C_10
REMARK    2  A    between atoms: C_4  and  O_20
REMARK    3  A    between atoms: C_9  and  C_13
REMARK    4  A    between atoms: C_13  and  C_15
REMARK    5  A    between atoms: O_20  and  C_21
REMARK    6  A    between atoms: C_21  and  C_23
REMARK                            x       y       z     vdW  Elec       q    Type
REMARK                         _______ _______ _______ _____ _____    ______ ____
ROOT
ATOM      1  C   UNL     1      32.870 -13.202 -22.497  0.00  0.00    +0.015 C 
ATOM      2  C   UNL     1      33.499 -13.883 -21.455  0.00  0.00    +0.004 C 
ATOM      3  C   UNL     1      33.080 -13.601 -23.817  0.00  0.00    +0.004 C 
ATOM      4  C   UNL     1      34.547 -15.362 -23.052  0.00  0.00    +0.139 C 
ATOM      5  C   UNL     1      34.337 -14.963 -21.733  0.00  0.00    +0.037 C 
ATOM      6  C   UNL     1      33.918 -14.681 -24.095  0.00  0.00    +0.037 C 
ENDROOT
BRANCH   1  10
ATOM      7  N   UNL     1      30.928 -12.185 -21.377  0.00  0.00    -0.236 N 
ATOM      8  N   UNL     1      30.242 -11.038 -21.236  0.00  0.00    -0.180 NA
ATOM      9  C   UNL     1      32.023 -10.783 -22.645  0.00  0.00    +0.018 C 
ATOM     10  C   UNL     1      32.003 -12.086 -22.210  0.00  0.00    +0.063 C 
ATOM     11  C   UNL     1      30.915 -10.185 -22.013  0.00  0.00    +0.115 C 
ATOM     12  H   UNL     1      30.678 -13.021 -20.920  0.00  0.00    +0.174 HD
BRANCH   9  13
ATOM     13  C   UNL     1      32.979 -10.143 -23.565  0.00  0.00    +0.056 C 
BRANCH  13  15
ATOM     14  N   UNL     1      32.486  -5.873 -23.979  0.00  0.00    -0.242 NA
ATOM     15  C   UNL     1      32.805  -8.637 -23.711  0.00  0.00    -0.015 C 
ATOM     16  C   UNL     1      32.081  -8.119 -24.780  0.00  0.00    +0.017 C 
ATOM     17  C   UNL     1      33.369  -7.775 -22.777  0.00  0.00    +0.017 C 
ATOM     18  C   UNL     1      31.953  -6.742 -24.867  0.00  0.00    +0.099 C 
ATOM     19  C   UNL     1      33.182  -6.414 -22.955  0.00  0.00    +0.099 C 
ENDBRANCH  13  15
ENDBRANCH   9  13
ENDBRANCH   1  10
BRANCH   4  20
ATOM     20  O   UNL     1      35.367 -16.424 -23.325  0.00  0.00    -0.468 OA
BRANCH  20  21
ATOM     21  C   UNL     1      34.735 -17.670 -23.592  0.00  0.00    +0.264 C 
BRANCH  21  23
ATOM     22  N   UNL     1      34.058 -19.365 -22.002  0.00  0.00    -0.406 NA
ATOM     23  C   UNL     1      35.080 -18.642 -22.513  0.00  0.00    +0.152 C 
ATOM     24  C   UNL     1      35.638 -20.439 -20.535  0.00  0.00    +0.026 C 
ATOM     25  C   UNL     1      34.330 -20.252 -21.027  0.00  0.00    +0.113 C 
ATOM     26  C   UNL     1      36.391 -18.754 -22.097  0.00  0.00    +0.031 C 
ATOM     27  C   UNL     1      36.669 -19.669 -21.091  0.00  0.00    +0.005 C 
ATOM     28  C   UNL     1      35.886 -21.375 -19.516  0.00  0.00    +0.002 C 
ATOM     29  C   UNL     1      33.307 -21.017 -20.473  0.00  0.00    +0.085 C 
ATOM     30  C   UNL     1      34.844 -22.126 -18.980  0.00  0.00    -0.004 C 
ATOM     31  C   UNL     1      33.553 -21.948 -19.460  0.00  0.00    -0.019 C 
ENDBRANCH  21  23
ENDBRANCH  20  21
ENDBRANCH   4  20
TORSDOF 6
ENDMDL
MODEL 5
REMARK VINA RESULT:     -12.0      2.278     10.451
REMARK  Name = 44141871
REMARK  6 active torsions:
REMARK  status: ('A' for Active; 'I' for Inactive)
REMARK    1  A    between atoms: C_1  and  C_10
REMARK    2  A    between atoms: C_4  and  O_20
REMARK    3  A    between atoms: C_9  and  C_13
REMARK    4  A    between atoms: C_13  and  C_15
REMARK    5  A    between atoms: O_20  and  C_21
REMARK    6  A    between atoms: C_21  and  C_23
REMARK                            x       y       z     vdW  Elec       q    Type
REMARK                         _______ _______ _______ _____ _____    ______ ____
ROOT
ATOM      1  C   UNL     1      33.850 -22.034 -18.831  0.00  0.00    +0.015 C 
ATOM      2  C   UNL     1      32.973 -21.293 -19.624  0.00  0.00    +0.004 C 
ATOM      3  C   UNL     1      35.218 -22.020 -19.105  0.00  0.00    +0.004 C 
ATOM      4  C   UNL     1      34.832 -20.525 -20.963  0.00  0.00    +0.139 C 
ATOM      5  C   UNL     1      33.464 -20.538 -20.689  0.00  0.00    +0.037 C 
ATOM      6  C   UNL     1      35.709 -21.266 -20.170  0.00  0.00    +0.037 C 
ENDROOT
BRANCH   1  10
ATOM      7  N   UNL     1      32.053 -23.256 -17.675  0.00  0.00    -0.236 N 
ATOM      8  N   UNL     1      31.768 -23.965 -16.569  0.00  0.00    -0.180 NA
ATOM      9  C   UNL     1      33.943 -23.263 -16.579  0.00  0.00    +0.018 C 
ATOM     10  C   UNL     1      33.341 -22.813 -17.729  0.00  0.00    +0.063 C 
ATOM     11  C   UNL     1      32.926 -23.966 -15.903  0.00  0.00    +0.115 C 
ATOM     12  H   UNL     1      31.391 -23.074 -18.381  0.00  0.00    +0.174 HD
BRANCH   9  13
ATOM     13  C   UNL     1      35.334 -23.062 -16.139  0.00  0.00    +0.056 C 
BRANCH  13  15
ATOM     14  N   UNL     1      36.593 -25.666 -12.932  0.00  0.00    -0.242 NA
ATOM     15  C   UNL     1      35.778 -23.980 -15.008  0.00  0.00    -0.015 C 
ATOM     16  C   UNL     1      36.243 -25.260 -15.290  0.00  0.00    +0.017 C 
ATOM     17  C   UNL     1      35.720 -23.542 -13.690  0.00  0.00    +0.017 C 
ATOM     18  C   UNL     1      36.635 -26.056 -14.226  0.00  0.00    +0.099 C 
ATOM     19  C   UNL     1      36.135 -24.415 -12.697  0.00  0.00    +0.099 C 
ENDBRANCH  13  15
ENDBRANCH   9  13
ENDBRANCH   1  10
BRANCH   4  20
ATOM     20  O   UNL     1      35.315 -19.781 -22.007  0.00  0.00    -0.468 OA
BRANCH  20  21
ATOM     21  C   UNL     1      35.729 -18.454 -21.710  0.00  0.00    +0.264 C 
BRANCH  21  23
ATOM     22  N   UNL     1      34.958 -16.243 -22.324  0.00  0.00    -0.406 NA
ATOM     23  C   UNL     1      35.161 -17.519 -22.725  0.00  0.00    +0.152 C 
ATOM     24  C   UNL     1      34.121 -15.753 -24.529  0.00  0.00    +0.026 C 
ATOM     25  C   UNL     1      34.446 -15.370 -23.212  0.00  0.00    +0.113 C 
ATOM     26  C   UNL     1      34.874 -17.987 -23.991  0.00  0.00    +0.031 C 
ATOM     27  C   UNL     1      34.346 -17.085 -24.904  0.00  0.00    +0.005 C 
ATOM     28  C   UNL     1      33.589 -14.815 -25.430  0.00  0.00    +0.002 C 
ATOM     29  C   UNL     1      34.222 -14.047 -22.840  0.00  0.00    +0.085 C 
ATOM     30  C   UNL     1      33.374 -13.499 -25.032  0.00  0.00    -0.004 C 
ATOM     31  C   UNL     1      33.692 -13.114 -23.736  0.00  0.00    -0.019 C 
ENDBRANCH  21  23
ENDBRANCH  20  21
ENDBRANCH   4  20
TORSDOF 6
ENDMDL
MODEL 6
REMARK VINA RESULT:     -11.9      3.021      5.634
REMARK  Name = 44141871
REMARK  6 active torsions:
REMARK  status: ('A' for Active; 'I' for Inactive)
REMARK    1  A    between atoms: C_1  and  C_10
REMARK    2  A    between atoms: C_4  and  O_20
REMARK    3  A    between atoms: C_9  and  C_13
REMARK    4  A    between atoms: C_13  and  C_15
REMARK    5  A    between atoms: O_20  and  C_21
REMARK    6  A    between atoms: C_21  and  C_23
REMARK                            x       y       z     vdW  Elec       q    Type
REMARK                         _______ _______ _______ _____ _____    ______ ____
ROOT
ATOM      1  C   UNL     1      33.996 -13.543 -23.857  0.00  0.00    +0.015 C 
ATOM      2  C   UNL     1      33.831 -14.414 -24.933  0.00  0.00    +0.004 C 
ATOM      3  C   UNL     1      34.367 -14.041 -22.608  0.00  0.00    +0.004 C 
ATOM      4  C   UNL     1      34.408 -16.281 -23.512  0.00  0.00    +0.139 C 
ATOM      5  C   UNL     1      34.037 -15.783 -24.761  0.00  0.00    +0.037 C 
ATOM      6  C   UNL     1      34.574 -15.410 -22.436  0.00  0.00    +0.037 C 
ENDROOT
BRANCH   1  10
ATOM      7  N   UNL     1      34.579 -11.360 -24.833  0.00  0.00    -0.236 N 
ATOM      8  N   UNL     1      34.222 -10.064 -24.870  0.00  0.00    -0.180 NA
ATOM      9  C   UNL     1      32.841 -11.276 -23.513  0.00  0.00    +0.018 C 
ATOM     10  C   UNL     1      33.784 -12.128 -24.035  0.00  0.00    +0.063 C 
ATOM     11  C   UNL     1      33.160 -10.019 -24.062  0.00  0.00    +0.115 C 
ATOM     12  H   UNL     1      35.344 -11.721 -25.337  0.00  0.00    +0.174 HD
BRANCH   9  13
ATOM     13  C   UNL     1      31.740 -11.592 -22.586  0.00  0.00    +0.056 C 
BRANCH  13  15
ATOM     14  N   UNL     1      31.557  -9.065 -19.089  0.00  0.00    -0.242 NA
ATOM     15  C   UNL     1      31.676 -10.701 -21.353  0.00  0.00    -0.015 C 
ATOM     16  C   UNL     1      31.573 -11.268 -20.087  0.00  0.00    +0.017 C 
ATOM     17  C   UNL     1      31.719  -9.318 -21.488  0.00  0.00    +0.017 C 
ATOM     18  C   UNL     1      31.517 -10.414 -18.998  0.00  0.00    +0.099 C 
ATOM     19  C   UNL     1      31.657  -8.552 -20.335  0.00  0.00    +0.099 C 
ENDBRANCH  13  15
ENDBRANCH   9  13
ENDBRANCH   1  10
BRANCH   4  20
ATOM     20  O   UNL     1      34.614 -17.624 -23.344  0.00  0.00    -0.468 OA
BRANCH  20  21
ATOM     21  C   UNL     1      35.869 -18.018 -22.803  0.00  0.00    +0.264 C 
BRANCH  21  23
ATOM     22  N   UNL     1      34.377 -19.458 -21.554  0.00  0.00    -0.406 NA
ATOM     23  C   UNL     1      35.659 -19.106 -21.803  0.00  0.00    +0.152 C 
ATOM     24  C   UNL     1      35.201 -21.088 -19.984  0.00  0.00    +0.026 C 
ATOM     25  C   UNL     1      34.148 -20.435 -20.657  0.00  0.00    +0.113 C 
ATOM     26  C   UNL     1      36.753 -19.686 -21.195  0.00  0.00    +0.031 C 
ATOM     27  C   UNL     1      36.514 -20.693 -20.271  0.00  0.00    +0.005 C 
ATOM     28  C   UNL     1      34.925 -22.106 -19.054  0.00  0.00    +0.002 C 
ATOM     29  C   UNL     1      32.843 -20.829 -20.371  0.00  0.00    +0.085 C 
ATOM     30  C   UNL     1      33.611 -22.479 -18.786  0.00  0.00    -0.004 C 
ATOM     31  C   UNL     1      32.569 -21.840 -19.447  0.00  0.00    -0.019 C 
ENDBRANCH  21  23
ENDBRANCH  20  21
ENDBRANCH   4  20
TORSDOF 6
ENDMDL
MODEL 7
REMARK VINA RESULT:     -11.7      6.043      9.935
REMARK  Name = 44141871
REMARK  6 active torsions:
REMARK  status: ('A' for Active; 'I' for Inactive)
REMARK    1  A    between atoms: C_1  and  C_10
REMARK    2  A    between atoms: C_4  and  O_20
REMARK    3  A    between atoms: C_9  and  C_13
REMARK    4  A    between atoms: C_13  and  C_15
REMARK    5  A    between atoms: O_20  and  C_21
REMARK    6  A    between atoms: C_21  and  C_23
REMARK                            x       y       z     vdW  Elec       q    Type
REMARK                         _______ _______ _______ _____ _____    ______ ____
ROOT
ATOM      1  C   UNL     1      33.568  -8.764 -25.180  0.00  0.00    +0.015 C 
ATOM      2  C   UNL     1      32.934  -9.288 -26.306  0.00  0.00    +0.004 C 
ATOM      3  C   UNL     1      34.381  -9.581 -24.394  0.00  0.00    +0.004 C 
ATOM      4  C   UNL     1      33.927 -11.446 -25.861  0.00  0.00    +0.139 C 
ATOM      5  C   UNL     1      33.114 -10.629 -26.647  0.00  0.00    +0.037 C 
ATOM      6  C   UNL     1      34.560 -10.922 -24.735  0.00  0.00    +0.037 C 
ENDROOT
BRANCH   1  10
ATOM      7  N   UNL     1      34.293  -6.412 -25.142  0.00  0.00    -0.236 N 
ATOM      8  N   UNL     1      33.943  -5.181 -24.729  0.00  0.00    -0.180 NA
ATOM      9  C   UNL     1      32.367  -6.736 -24.162  0.00  0.00    +0.018 C 
ATOM     10  C   UNL     1      33.383  -7.378 -24.828  0.00  0.00    +0.063 C 
ATOM     11  C   UNL     1      32.766  -5.385 -24.131  0.00  0.00    +0.115 C 
ATOM     12  H   UNL     1      35.129  -6.598 -25.628  0.00  0.00    +0.174 HD
BRANCH   9  13
ATOM     13  C   UNL     1      31.135  -7.316 -23.602  0.00  0.00    +0.056 C 
BRANCH  13  15
ATOM     14  N   UNL     1      31.765  -9.998 -20.277  0.00  0.00    -0.242 NA
ATOM     15  C   UNL     1      31.358  -8.262 -22.429  0.00  0.00    -0.015 C 
ATOM     16  C   UNL     1      31.083  -9.619 -22.565  0.00  0.00    +0.017 C 
ATOM     17  C   UNL     1      31.836  -7.773 -21.219  0.00  0.00    +0.017 C 
ATOM     18  C   UNL     1      31.301 -10.437 -21.469  0.00  0.00    +0.099 C 
ATOM     19  C   UNL     1      32.021  -8.674 -20.183  0.00  0.00    +0.099 C 
ENDBRANCH  13  15
ENDBRANCH   9  13
ENDBRANCH   1  10
BRANCH   4  20
ATOM     20  O   UNL     1      34.106 -12.761 -26.197  0.00  0.00    -0.468 OA
BRANCH  20  21
ATOM     21  C   UNL     1      33.075 -13.666 -25.819  0.00  0.00    +0.264 C 
BRANCH  21  23
ATOM     22  N   UNL     1      33.582 -15.996 -25.402  0.00  0.00    -0.406 NA
ATOM     23  C   UNL     1      33.646 -14.727 -24.938  0.00  0.00    +0.152 C 
ATOM     24  C   UNL     1      34.669 -16.720 -23.379  0.00  0.00    +0.026 C 
ATOM     25  C   UNL     1      34.086 -16.980 -24.636  0.00  0.00    +0.113 C 
ATOM     26  C   UNL     1      34.196 -14.374 -23.724  0.00  0.00    +0.031 C 
ATOM     27  C   UNL     1      34.715 -15.391 -22.935  0.00  0.00    +0.005 C 
ATOM     28  C   UNL     1      35.186 -17.773 -22.605  0.00  0.00    +0.002 C 
ATOM     29  C   UNL     1      34.040 -18.301 -25.076  0.00  0.00    +0.085 C 
ATOM     30  C   UNL     1      35.127 -19.084 -23.069  0.00  0.00    -0.004 C 
ATOM     31  C   UNL     1      34.554 -19.348 -24.306  0.00  0.00    -0.019 C 
ENDBRANCH  21  23
ENDBRANCH  20  21
ENDBRANCH   4  20
TORSDOF 6
ENDMDL
MODEL 8
REMARK VINA RESULT:     -11.6      1.234      2.180
REMARK  Name = 44141871
REMARK  6 active torsions:
REMARK  status: ('A' for Active; 'I' for Inactive)
REMARK    1  A    between atoms: C_1  and  C_10
REMARK    2  A    between atoms: C_4  and  O_20
REMARK    3  A    between atoms: C_9  and  C_13
REMARK    4  A    between atoms: C_13  and  C_15
REMARK    5  A    between atoms: O_20  and  C_21
REMARK    6  A    between atoms: C_21  and  C_23
REMARK                            x       y       z     vdW  Elec       q    Type
REMARK                         _______ _______ _______ _____ _____    ______ ____
ROOT
ATOM      1  C   UNL     1      34.689 -19.098 -22.209  0.00  0.00    +0.015 C 
ATOM      2  C   UNL     1      33.515 -19.656 -21.702  0.00  0.00    +0.004 C 
ATOM      3  C   UNL     1      35.924 -19.480 -21.686  0.00  0.00    +0.004 C 
ATOM      4  C   UNL     1      34.813 -20.978 -20.150  0.00  0.00    +0.139 C 
ATOM      5  C   UNL     1      33.578 -20.596 -20.673  0.00  0.00    +0.037 C 
ATOM      6  C   UNL     1      35.987 -20.420 -20.657  0.00  0.00    +0.037 C 
ENDROOT
BRANCH   1  10
ATOM      7  N   UNL     1      34.484 -18.480 -24.582  0.00  0.00    -0.236 N 
ATOM      8  N   UNL     1      34.445 -17.433 -25.426  0.00  0.00    -0.180 NA
ATOM      9  C   UNL     1      34.682 -16.754 -23.257  0.00  0.00    +0.018 C 
ATOM     10  C   UNL     1      34.624 -18.127 -23.273  0.00  0.00    +0.063 C 
ATOM     11  C   UNL     1      34.566 -16.382 -24.610  0.00  0.00    +0.115 C 
ATOM     12  H   UNL     1      34.417 -19.415 -24.883  0.00  0.00    +0.174 HD
BRANCH   9  13
ATOM     13  C   UNL     1      34.830 -15.862 -22.095  0.00  0.00    +0.056 C 
BRANCH  13  15
ATOM     14  N   UNL     1      32.155 -12.472 -22.083  0.00  0.00    -0.242 NA
ATOM     15  C   UNL     1      33.887 -14.666 -22.091  0.00  0.00    -0.015 C 
ATOM     16  C   UNL     1      33.884 -13.776 -23.159  0.00  0.00    +0.017 C 
ATOM     17  C   UNL     1      33.025 -14.461 -21.020  0.00  0.00    +0.017 C 
ATOM     18  C   UNL     1      33.007 -12.704 -23.107  0.00  0.00    +0.099 C 
ATOM     19  C   UNL     1      32.186 -13.359 -21.064  0.00  0.00    +0.099 C 
ENDBRANCH  13  15
ENDBRANCH   9  13
ENDBRANCH   1  10
BRANCH   4  20
ATOM     20  O   UNL     1      34.875 -21.903 -19.143  0.00  0.00    -0.468 OA
BRANCH  20  21
ATOM     21  C   UNL     1      33.702 -22.672 -18.906  0.00  0.00    +0.264 C 
BRANCH  21  23
ATOM     22  N   UNL     1      34.820 -23.015 -16.787  0.00  0.00    -0.406 NA
ATOM     23  C   UNL     1      33.654 -23.074 -17.470  0.00  0.00    +0.152 C 
ATOM     24  C   UNL     1      33.641 -23.796 -14.837  0.00  0.00    +0.026 C 
ATOM     25  C   UNL     1      34.817 -23.371 -15.488  0.00  0.00    +0.113 C 
ATOM     26  C   UNL     1      32.455 -23.477 -16.920  0.00  0.00    +0.031 C 
ATOM     27  C   UNL     1      32.454 -23.843 -15.581  0.00  0.00    +0.005 C 
ATOM     28  C   UNL     1      33.673 -24.159 -13.480  0.00  0.00    +0.002 C 
ATOM     29  C   UNL     1      35.995 -23.324 -14.748  0.00  0.00    +0.085 C 
ATOM     30  C   UNL     1      34.866 -24.104 -12.764  0.00  0.00    -0.004 C 
ATOM     31  C   UNL     1      36.028 -23.685 -13.399  0.00  0.00    -0.019 C 
ENDBRANCH  21  23
ENDBRANCH  20  21
ENDBRANCH   4  20
TORSDOF 6
ENDMDL
MODEL 9
REMARK VINA RESULT:     -11.6      4.588      7.604
REMARK  Name = 44141871
REMARK  6 active torsions:
REMARK  status: ('A' for Active; 'I' for Inactive)
REMARK    1  A    between atoms: C_1  and  C_10
REMARK    2  A    between atoms: C_4  and  O_20
REMARK    3  A    between atoms: C_9  and  C_13
REMARK    4  A    between atoms: C_13  and  C_15
REMARK    5  A    between atoms: O_20  and  C_21
REMARK    6  A    between atoms: C_21  and  C_23
REMARK                            x       y       z     vdW  Elec       q    Type
REMARK                         _______ _______ _______ _____ _____    ______ ____
ROOT
ATOM      1  C   UNL     1      34.005 -11.843 -24.502  0.00  0.00    +0.015 C 
ATOM      2  C   UNL     1      34.162 -12.730 -23.437  0.00  0.00    +0.004 C 
ATOM      3  C   UNL     1      33.658 -12.325 -25.764  0.00  0.00    +0.004 C 
ATOM      4  C   UNL     1      33.626 -14.579 -24.896  0.00  0.00    +0.139 C 
ATOM      5  C   UNL     1      33.972 -14.097 -23.634  0.00  0.00    +0.037 C 
ATOM      6  C   UNL     1      33.468 -13.692 -25.961  0.00  0.00    +0.037 C 
ENDROOT
BRANCH   1  10
ATOM      7  N   UNL     1      35.390  -9.809 -24.541  0.00  0.00    -0.236 N 
ATOM      8  N   UNL     1      35.376  -8.488 -24.289  0.00  0.00    -0.180 NA
ATOM      9  C   UNL     1      33.348  -9.447 -23.854  0.00  0.00    +0.018 C 
ATOM     10  C   UNL     1      34.201 -10.429 -24.297  0.00  0.00    +0.063 C 
ATOM     11  C   UNL     1      34.126  -8.273 -23.870  0.00  0.00    +0.115 C 
ATOM     12  H   UNL     1      36.187 -10.284 -24.872  0.00  0.00    +0.174 HD
BRANCH   9  13
ATOM     13  C   UNL     1      31.938  -9.578 -23.450  0.00  0.00    +0.056 C 
BRANCH  13  15
ATOM     14  N   UNL     1      31.341 -10.328 -19.239  0.00  0.00    -0.242 NA
ATOM     15  C   UNL     1      31.727  -9.843 -21.965  0.00  0.00    -0.015 C 
ATOM     16  C   UNL     1      31.795  -8.794 -21.053  0.00  0.00    +0.017 C 
ATOM     17  C   UNL     1      31.467 -11.132 -21.516  0.00  0.00    +0.017 C 
ATOM     18  C   UNL     1      31.597  -9.088 -19.714  0.00  0.00    +0.099 C 
ATOM     19  C   UNL     1      31.283 -11.320 -20.155  0.00  0.00    +0.099 C 
ENDBRANCH  13  15
ENDBRANCH   9  13
ENDBRANCH   1  10
BRANCH   4  20
ATOM     20  O   UNL     1      33.436 -15.921 -25.089  0.00  0.00    -0.468 OA
BRANCH  20  21
ATOM     21  C   UNL     1      34.603 -16.715 -25.264  0.00  0.00    +0.264 C 
BRANCH  21  23
ATOM     22  N   UNL     1      35.757 -17.699 -23.377  0.00  0.00    -0.406 NA
ATOM     23  C   UNL     1      34.671 -17.741 -24.182  0.00  0.00    +0.152 C 
ATOM     24  C   UNL     1      34.862 -19.590 -22.183  0.00  0.00    +0.026 C 
ATOM     25  C   UNL     1      35.853 -18.609 -22.390  0.00  0.00    +0.113 C 
ATOM     26  C   UNL     1      33.652 -18.662 -24.058  0.00  0.00    +0.031 C 
ATOM     27  C   UNL     1      33.754 -19.599 -23.040  0.00  0.00    +0.005 C 
ATOM     28  C   UNL     1      34.995 -20.525 -21.141  0.00  0.00    +0.002 C 
ATOM     29  C   UNL     1      36.955 -18.600 -21.537  0.00  0.00    +0.085 C 
ATOM     30  C   UNL     1      36.107 -20.493 -20.304  0.00  0.00    -0.004 C 
ATOM     31  C   UNL     1      37.087 -19.529 -20.502  0.00  0.00    -0.019 C 
ENDBRANCH  21  23
ENDBRANCH  20  21
ENDBRANCH   4  20
TORSDOF 6
ENDMDL
