MODEL 1
REMARK VINA RESULT:     -12.0      0.000      0.000
REMARK  Name = 9998128
REMARK  2 active torsions:
REMARK  status: ('A' for Active; 'I' for Inactive)
REMARK    1  A    between atoms: N_1  and  C_15
REMARK    2  A    between atoms: C_7  and  C_24
REMARK                            x       y       z     vdW  Elec       q    Type
REMARK                         _______ _______ _______ _____ _____    ______ ____
ROOT
ATOM      1  N   UNL     1      33.566 -25.030 -14.742  0.00  0.00    -0.290 N 
ATOM      2  N   UNL     1      33.507 -23.646 -16.644  0.00  0.00    -0.327 NA
ATOM      3  N   UNL     1      31.410 -22.834 -17.509  0.00  0.00    -0.342 NA
ATOM      4  C   UNL     1      31.426 -24.242 -15.568  0.00  0.00    +0.143 C 
ATOM      5  C   UNL     1      32.814 -24.283 -15.682  0.00  0.00    +0.184 C 
ATOM      6  C   UNL     1      30.748 -23.482 -16.534  0.00  0.00    +0.133 C 
ATOM      7  C   UNL     1      32.753 -22.951 -17.511  0.00  0.00    +0.165 C 
ATOM      8  C   UNL     1      30.724 -24.916 -14.554  0.00  0.00    -0.011 C 
ATOM      9  C   UNL     1      29.359 -23.418 -16.454  0.00  0.00    +0.029 C 
ATOM     10  C   UNL     1      29.337 -24.835 -14.497  0.00  0.00    -0.004 C 
ATOM     11  C   UNL     1      28.653 -24.085 -15.448  0.00  0.00    +0.002 C 
ATOM     12  H   UNL     1      33.087 -25.810 -14.379  0.00  0.00    +0.154 HD
ENDROOT
BRANCH   1  15
ATOM     13  N   UNL     1      38.555 -24.208 -12.558  0.00  0.00    -0.236 N 
ATOM     14  N   UNL     1      38.360 -23.227 -11.661  0.00  0.00    -0.180 NA
ATOM     15  C   UNL     1      34.863 -24.874 -14.229  0.00  0.00    +0.050 C 
ATOM     16  C   UNL     1      36.413 -23.772 -12.733  0.00  0.00    +0.037 C 
ATOM     17  C   UNL     1      37.426 -24.582 -13.234  0.00  0.00    +0.067 C 
ATOM     18  C   UNL     1      35.108 -23.914 -13.232  0.00  0.00    +0.018 C 
ATOM     19  C   UNL     1      35.908 -25.672 -14.713  0.00  0.00    +0.016 C 
ATOM     20  C   UNL     1      37.212 -25.544 -14.225  0.00  0.00    +0.017 C 
ATOM     21  C   UNL     1      37.056 -22.964 -11.771  0.00  0.00    +0.119 C 
ATOM     22  H   UNL     1      39.435 -24.623 -12.714  0.00  0.00    +0.174 HD
ENDBRANCH   1  15
BRANCH   7  24
ATOM     23  N   UNL     1      32.672 -21.539 -19.397  0.00  0.00    -0.398 NA
ATOM     24  C   UNL     1      33.455 -22.254 -18.557  0.00  0.00    +0.197 C 
ATOM     25  C   UNL     1      34.836 -22.332 -18.670  0.00  0.00    +0.098 C 
ATOM     26  C   UNL     1      33.302 -20.873 -20.391  0.00  0.00    +0.110 C 
ATOM     27  C   UNL     1      35.448 -21.634 -19.704  0.00  0.00    -0.016 C 
ATOM     28  C   UNL     1      34.673 -20.887 -20.586  0.00  0.00    +0.023 C 
ATOM     29  C   UNL     1      32.439 -20.083 -21.318  0.00  0.00    +0.066 C 
ENDBRANCH   7  24
TORSDOF 2
ENDMDL
MODEL 2
REMARK VINA RESULT:     -11.8      1.340      4.798
REMARK  Name = 9998128
REMARK  2 active torsions:
REMARK  status: ('A' for Active; 'I' for Inactive)
REMARK    1  A    between atoms: N_1  and  C_15
REMARK    2  A    between atoms: C_7  and  C_24
REMARK                            x       y       z     vdW  Elec       q    Type
REMARK                         _______ _______ _______ _____ _____    ______ ____
ROOT
ATOM      1  N   UNL     1      35.628 -22.992 -16.481  0.00  0.00    -0.290 N 
ATOM      2  N   UNL     1      33.285 -23.181 -16.580  0.00  0.00    -0.327 NA
ATOM      3  N   UNL     1      32.065 -22.353 -18.486  0.00  0.00    -0.342 NA
ATOM      4  C   UNL     1      34.452 -22.141 -18.423  0.00  0.00    +0.143 C 
ATOM      5  C   UNL     1      34.416 -22.765 -17.179  0.00  0.00    +0.184 C 
ATOM      6  C   UNL     1      33.214 -21.950 -19.057  0.00  0.00    +0.133 C 
ATOM      7  C   UNL     1      32.162 -22.946 -17.279  0.00  0.00    +0.165 C 
ATOM      8  C   UNL     1      35.648 -21.715 -19.029  0.00  0.00    -0.011 C 
ATOM      9  C   UNL     1      33.209 -21.328 -20.303  0.00  0.00    +0.029 C 
ATOM     10  C   UNL     1      35.614 -21.096 -20.274  0.00  0.00    -0.004 C 
ATOM     11  C   UNL     1      34.393 -20.902 -20.912  0.00  0.00    +0.002 C 
ATOM     12  H   UNL     1      36.325 -22.321 -16.666  0.00  0.00    +0.154 HD
ENDROOT
BRANCH   1  15
ATOM     13  N   UNL     1      37.314 -26.690 -12.763  0.00  0.00    -0.236 N 
ATOM     14  N   UNL     1      37.936 -25.952 -11.829  0.00  0.00    -0.180 NA
ATOM     15  C   UNL     1      36.027 -23.987 -15.574  0.00  0.00    +0.050 C 
ATOM     16  C   UNL     1      37.126 -24.641 -13.520  0.00  0.00    +0.037 C 
ATOM     17  C   UNL     1      36.805 -25.963 -13.804  0.00  0.00    +0.067 C 
ATOM     18  C   UNL     1      36.734 -23.630 -14.414  0.00  0.00    +0.018 C 
ATOM     19  C   UNL     1      35.721 -25.330 -15.831  0.00  0.00    +0.016 C 
ATOM     20  C   UNL     1      36.103 -26.347 -14.950  0.00  0.00    +0.017 C 
ATOM     21  C   UNL     1      37.819 -24.705 -12.293  0.00  0.00    +0.119 C 
ATOM     22  H   UNL     1      37.231 -27.669 -12.702  0.00  0.00    +0.174 HD
ENDBRANCH   1  15
BRANCH   7  24
ATOM     23  N   UNL     1      29.811 -22.816 -17.192  0.00  0.00    -0.398 NA
ATOM     24  C   UNL     1      30.928 -23.375 -16.674  0.00  0.00    +0.197 C 
ATOM     25  C   UNL     1      30.920 -24.296 -15.636  0.00  0.00    +0.098 C 
ATOM     26  C   UNL     1      28.635 -23.198 -16.644  0.00  0.00    +0.110 C 
ATOM     27  C   UNL     1      29.693 -24.664 -15.099  0.00  0.00    -0.016 C 
ATOM     28  C   UNL     1      28.522 -24.109 -15.607  0.00  0.00    +0.023 C 
ATOM     29  C   UNL     1      27.401 -22.582 -17.213  0.00  0.00    +0.066 C 
ENDBRANCH   7  24
TORSDOF 2
ENDMDL
MODEL 3
REMARK VINA RESULT:     -11.8      1.839      5.990
REMARK  Name = 9998128
REMARK  2 active torsions:
REMARK  status: ('A' for Active; 'I' for Inactive)
REMARK    1  A    between atoms: N_1  and  C_15
REMARK    2  A    between atoms: C_7  and  C_24
REMARK                            x       y       z     vdW  Elec       q    Type
REMARK                         _______ _______ _______ _____ _____    ______ ____
ROOT
ATOM      1  N   UNL     1      32.938 -24.056 -14.165  0.00  0.00    -0.290 N 
ATOM      2  N   UNL     1      34.152 -23.197 -15.988  0.00  0.00    -0.327 NA
ATOM      3  N   UNL     1      36.553 -23.384 -16.064  0.00  0.00    -0.342 NA
ATOM      4  C   UNL     1      35.353 -24.272 -14.187  0.00  0.00    +0.143 C 
ATOM      5  C   UNL     1      34.183 -23.833 -14.802  0.00  0.00    +0.184 C 
ATOM      6  C   UNL     1      36.549 -24.017 -14.877  0.00  0.00    +0.133 C 
ATOM      7  C   UNL     1      35.354 -23.009 -16.555  0.00  0.00    +0.165 C 
ATOM      8  C   UNL     1      35.361 -24.934 -12.947  0.00  0.00    -0.011 C 
ATOM      9  C   UNL     1      37.740 -24.441 -14.294  0.00  0.00    +0.029 C 
ATOM     10  C   UNL     1      36.565 -25.348 -12.387  0.00  0.00    -0.004 C 
ATOM     11  C   UNL     1      37.756 -25.101 -13.061  0.00  0.00    +0.002 C 
ATOM     12  H   UNL     1      32.991 -24.072 -13.181  0.00  0.00    +0.154 HD
ENDROOT
BRANCH   1  15
ATOM     13  N   UNL     1      27.869 -24.590 -16.254  0.00  0.00    -0.236 N 
ATOM     14  N   UNL     1      27.691 -23.465 -16.967  0.00  0.00    -0.180 NA
ATOM     15  C   UNL     1      31.641 -24.257 -14.664  0.00  0.00    +0.050 C 
ATOM     16  C   UNL     1      29.753 -23.502 -15.975  0.00  0.00    +0.037 C 
ATOM     17  C   UNL     1      29.086 -24.673 -15.633  0.00  0.00    +0.067 C 
ATOM     18  C   UNL     1      31.052 -23.283 -15.487  0.00  0.00    +0.018 C 
ATOM     19  C   UNL     1      30.940 -25.426 -14.339  0.00  0.00    +0.016 C 
ATOM     20  C   UNL     1      29.647 -25.659 -14.817  0.00  0.00    +0.017 C 
ATOM     21  C   UNL     1      28.840 -22.806 -16.795  0.00  0.00    +0.119 C 
ATOM     22  H   UNL     1      27.183 -25.292 -16.184  0.00  0.00    +0.174 HD
ENDBRANCH   1  15
BRANCH   7  24
ATOM     23  N   UNL     1      34.157 -22.198 -18.417  0.00  0.00    -0.398 NA
ATOM     24  C   UNL     1      35.366 -22.332 -17.825  0.00  0.00    +0.197 C 
ATOM     25  C   UNL     1      36.550 -21.863 -18.377  0.00  0.00    +0.098 C 
ATOM     26  C   UNL     1      34.135 -21.567 -19.612  0.00  0.00    +0.110 C 
ATOM     27  C   UNL     1      36.488 -21.220 -19.608  0.00  0.00    -0.016 C 
ATOM     28  C   UNL     1      35.261 -21.064 -20.244  0.00  0.00    +0.023 C 
ATOM     29  C   UNL     1      32.803 -21.419 -20.266  0.00  0.00    +0.066 C 
ENDBRANCH   7  24
TORSDOF 2
ENDMDL
MODEL 4
REMARK VINA RESULT:     -11.5      0.807      1.970
REMARK  Name = 9998128
REMARK  2 active torsions:
REMARK  status: ('A' for Active; 'I' for Inactive)
REMARK    1  A    between atoms: N_1  and  C_15
REMARK    2  A    between atoms: C_7  and  C_24
REMARK                            x       y       z     vdW  Elec       q    Type
REMARK                         _______ _______ _______ _____ _____    ______ ____
ROOT
ATOM      1  N   UNL     1      33.598 -24.980 -15.003  0.00  0.00    -0.290 N 
ATOM      2  N   UNL     1      33.436 -23.545 -16.861  0.00  0.00    -0.327 NA
ATOM      3  N   UNL     1      31.290 -22.754 -17.620  0.00  0.00    -0.342 NA
ATOM      4  C   UNL     1      31.411 -24.216 -15.723  0.00  0.00    +0.143 C 
ATOM      5  C   UNL     1      32.794 -24.223 -15.891  0.00  0.00    +0.184 C 
ATOM      6  C   UNL     1      30.680 -23.444 -16.640  0.00  0.00    +0.133 C 
ATOM      7  C   UNL     1      32.634 -22.842 -17.677  0.00  0.00    +0.165 C 
ATOM      8  C   UNL     1      30.763 -24.934 -14.702  0.00  0.00    -0.011 C 
ATOM      9  C   UNL     1      29.294 -23.413 -16.504  0.00  0.00    +0.029 C 
ATOM     10  C   UNL     1      29.378 -24.884 -14.589  0.00  0.00    -0.004 C 
ATOM     11  C   UNL     1      28.642 -24.123 -15.492  0.00  0.00    +0.002 C 
ATOM     12  H   UNL     1      33.149 -25.780 -14.644  0.00  0.00    +0.154 HD
ENDROOT
BRANCH   1  15
ATOM     13  N   UNL     1      38.827 -24.540 -13.329  0.00  0.00    -0.236 N 
ATOM     14  N   UNL     1      39.460 -25.533 -13.976  0.00  0.00    -0.180 NA
ATOM     15  C   UNL     1      34.910 -24.810 -14.535  0.00  0.00    +0.050 C 
ATOM     16  C   UNL     1      37.233 -25.488 -14.499  0.00  0.00    +0.037 C 
ATOM     17  C   UNL     1      37.488 -24.458 -13.600  0.00  0.00    +0.067 C 
ATOM     18  C   UNL     1      35.926 -25.673 -14.980  0.00  0.00    +0.018 C 
ATOM     19  C   UNL     1      35.202 -23.783 -13.628  0.00  0.00    +0.016 C 
ATOM     20  C   UNL     1      36.498 -23.585 -13.141  0.00  0.00    +0.017 C 
ATOM     21  C   UNL     1      38.487 -26.107 -14.687  0.00  0.00    +0.119 C 
ATOM     22  H   UNL     1      39.287 -23.924 -12.714  0.00  0.00    +0.174 HD
ENDBRANCH   1  15
BRANCH   7  24
ATOM     23  N   UNL     1      34.627 -22.218 -18.770  0.00  0.00    -0.398 NA
ATOM     24  C   UNL     1      33.280 -22.101 -18.729  0.00  0.00    +0.197 C 
ATOM     25  C   UNL     1      32.545 -21.331 -19.619  0.00  0.00    +0.098 C 
ATOM     26  C   UNL     1      35.263 -21.533 -19.747  0.00  0.00    +0.110 C 
ATOM     27  C   UNL     1      33.234 -20.641 -20.610  0.00  0.00    -0.016 C 
ATOM     28  C   UNL     1      34.620 -20.738 -20.683  0.00  0.00    +0.023 C 
ATOM     29  C   UNL     1      36.749 -21.660 -19.794  0.00  0.00    +0.066 C 
ENDBRANCH   7  24
TORSDOF 2
ENDMDL
MODEL 5
REMARK VINA RESULT:     -11.2      1.984      7.071
REMARK  Name = 9998128
REMARK  2 active torsions:
REMARK  status: ('A' for Active; 'I' for Inactive)
REMARK    1  A    between atoms: N_1  and  C_15
REMARK    2  A    between atoms: C_7  and  C_24
REMARK                            x       y       z     vdW  Elec       q    Type
REMARK                         _______ _______ _______ _____ _____    ______ ____
ROOT
ATOM      1  N   UNL     1      35.047 -22.843 -17.662  0.00  0.00    -0.290 N 
ATOM      2  N   UNL     1      33.090 -23.535 -16.554  0.00  0.00    -0.327 NA
ATOM      3  N   UNL     1      33.156 -24.189 -14.237  0.00  0.00    -0.342 NA
ATOM      4  C   UNL     1      35.173 -23.491 -15.329  0.00  0.00    +0.143 C 
ATOM      5  C   UNL     1      34.414 -23.304 -16.482  0.00  0.00    +0.184 C 
ATOM      6  C   UNL     1      34.479 -23.949 -14.198  0.00  0.00    +0.133 C 
ATOM      7  C   UNL     1      32.534 -23.970 -15.413  0.00  0.00    +0.165 C 
ATOM      8  C   UNL     1      36.556 -23.243 -15.277  0.00  0.00    -0.011 C 
ATOM      9  C   UNL     1      35.204 -24.148 -13.026  0.00  0.00    +0.029 C 
ATOM     10  C   UNL     1      37.256 -23.450 -14.094  0.00  0.00    -0.004 C 
ATOM     11  C   UNL     1      36.579 -23.903 -12.966  0.00  0.00    +0.002 C 
ATOM     12  H   UNL     1      35.990 -23.118 -17.742  0.00  0.00    +0.154 HD
ENDROOT
BRANCH   1  15
ATOM     13  N   UNL     1      33.528 -19.731 -21.946  0.00  0.00    -0.236 N 
ATOM     14  N   UNL     1      34.683 -19.219 -22.402  0.00  0.00    -0.180 NA
ATOM     15  C   UNL     1      34.591 -22.070 -18.742  0.00  0.00    +0.050 C 
ATOM     16  C   UNL     1      35.033 -20.574 -20.591  0.00  0.00    +0.037 C 
ATOM     17  C   UNL     1      33.669 -20.553 -20.861  0.00  0.00    +0.067 C 
ATOM     18  C   UNL     1      35.510 -21.342 -19.516  0.00  0.00    +0.018 C 
ATOM     19  C   UNL     1      33.223 -22.025 -19.041  0.00  0.00    +0.016 C 
ATOM     20  C   UNL     1      32.733 -21.266 -20.108  0.00  0.00    +0.017 C 
ATOM     21  C   UNL     1      35.597 -19.734 -21.575  0.00  0.00    +0.119 C 
ATOM     22  H   UNL     1      32.656 -19.533 -22.358  0.00  0.00    +0.174 HD
ENDBRANCH   1  15
BRANCH   7  24
ATOM     23  N   UNL     1      30.390 -23.350 -16.172  0.00  0.00    -0.398 NA
ATOM     24  C   UNL     1      31.118 -24.229 -15.446  0.00  0.00    +0.197 C 
ATOM     25  C   UNL     1      30.571 -25.312 -14.772  0.00  0.00    +0.098 C 
ATOM     26  C   UNL     1      29.056 -23.567 -16.222  0.00  0.00    +0.110 C 
ATOM     27  C   UNL     1      29.197 -25.502 -14.847  0.00  0.00    -0.016 C 
ATOM     28  C   UNL     1      28.417 -24.617 -15.585  0.00  0.00    +0.023 C 
ATOM     29  C   UNL     1      28.251 -22.597 -17.021  0.00  0.00    +0.066 C 
ENDBRANCH   7  24
TORSDOF 2
ENDMDL
MODEL 6
REMARK VINA RESULT:     -10.3      1.588      6.643
REMARK  Name = 9998128
REMARK  2 active torsions:
REMARK  status: ('A' for Active; 'I' for Inactive)
REMARK    1  A    between atoms: N_1  and  C_15
REMARK    2  A    between atoms: C_7  and  C_24
REMARK                            x       y       z     vdW  Elec       q    Type
REMARK                         _______ _______ _______ _____ _____    ______ ____
ROOT
ATOM      1  N   UNL     1      31.926 -22.455 -17.650  0.00  0.00    -0.290 N 
ATOM      2  N   UNL     1      33.212 -23.139 -15.802  0.00  0.00    -0.327 NA
ATOM      3  N   UNL     1      32.313 -24.679 -14.182  0.00  0.00    -0.342 NA
ATOM      4  C   UNL     1      30.970 -24.007 -16.051  0.00  0.00    +0.143 C 
ATOM      5  C   UNL     1      32.043 -23.222 -16.464  0.00  0.00    +0.184 C 
ATOM      6  C   UNL     1      31.158 -24.739 -14.868  0.00  0.00    +0.133 C 
ATOM      7  C   UNL     1      33.277 -23.883 -14.686  0.00  0.00    +0.165 C 
ATOM      8  C   UNL     1      29.757 -24.076 -16.759  0.00  0.00    -0.011 C 
ATOM      9  C   UNL     1      30.106 -25.535 -14.421  0.00  0.00    +0.029 C 
ATOM     10  C   UNL     1      28.723 -24.880 -16.291  0.00  0.00    -0.004 C 
ATOM     11  C   UNL     1      28.898 -25.611 -15.120  0.00  0.00    +0.002 C 
ATOM     12  H   UNL     1      31.007 -22.159 -17.844  0.00  0.00    +0.154 HD
ENDROOT
BRANCH   1  15
ATOM     13  N   UNL     1      35.417 -20.638 -21.504  0.00  0.00    -0.236 N 
ATOM     14  N   UNL     1      34.683 -19.777 -22.228  0.00  0.00    -0.180 NA
ATOM     15  C   UNL     1      32.868 -22.035 -18.603  0.00  0.00    +0.050 C 
ATOM     16  C   UNL     1      33.453 -20.694 -20.530  0.00  0.00    +0.037 C 
ATOM     17  C   UNL     1      34.738 -21.223 -20.470  0.00  0.00    +0.067 C 
ATOM     18  C   UNL     1      32.497 -21.101 -19.584  0.00  0.00    +0.018 C 
ATOM     19  C   UNL     1      34.171 -22.548 -18.572  0.00  0.00    +0.016 C 
ATOM     20  C   UNL     1      35.134 -22.153 -19.506  0.00  0.00    +0.017 C 
ATOM     21  C   UNL     1      33.489 -19.813 -21.632  0.00  0.00    +0.119 C 
ATOM     22  H   UNL     1      36.362 -20.832 -21.701  0.00  0.00    +0.174 HD
ENDBRANCH   1  15
BRANCH   7  24
ATOM     23  N   UNL     1      34.416 -24.170 -12.642  0.00  0.00    -0.398 NA
ATOM     24  C   UNL     1      34.511 -23.824 -13.947  0.00  0.00    +0.197 C 
ATOM     25  C   UNL     1      35.695 -23.435 -14.557  0.00  0.00    +0.098 C 
ATOM     26  C   UNL     1      35.558 -24.125 -11.920  0.00  0.00    +0.110 C 
ATOM     27  C   UNL     1      36.848 -23.399 -13.782  0.00  0.00    -0.016 C 
ATOM     28  C   UNL     1      36.788 -23.750 -12.437  0.00  0.00    +0.023 C 
ATOM     29  C   UNL     1      35.456 -24.506 -10.482  0.00  0.00    +0.066 C 
ENDBRANCH   7  24
TORSDOF 2
ENDMDL
MODEL 7
REMARK VINA RESULT:     -10.0      1.911      6.878
REMARK  Name = 9998128
REMARK  2 active torsions:
REMARK  status: ('A' for Active; 'I' for Inactive)
REMARK    1  A    between atoms: N_1  and  C_15
REMARK    2  A    between atoms: C_7  and  C_24
REMARK                            x       y       z     vdW  Elec       q    Type
REMARK                         _______ _______ _______ _____ _____    ______ ____
ROOT
ATOM      1  N   UNL     1      32.914 -23.253 -17.662  0.00  0.00    -0.290 N 
ATOM      2  N   UNL     1      34.955 -23.426 -16.504  0.00  0.00    -0.327 NA
ATOM      3  N   UNL     1      36.934 -22.328 -17.330  0.00  0.00    -0.342 NA
ATOM      4  C   UNL     1      34.873 -22.127 -18.541  0.00  0.00    +0.143 C 
ATOM      5  C   UNL     1      34.289 -22.928 -17.563  0.00  0.00    +0.184 C 
ATOM      6  C   UNL     1      36.239 -21.846 -18.376  0.00  0.00    +0.133 C 
ATOM      7  C   UNL     1      36.254 -23.092 -16.451  0.00  0.00    +0.165 C 
ATOM      8  C   UNL     1      34.157 -21.618 -19.638  0.00  0.00    -0.011 C 
ATOM      9  C   UNL     1      36.859 -21.048 -19.335  0.00  0.00    +0.029 C 
ATOM     10  C   UNL     1      34.801 -20.824 -20.581  0.00  0.00    -0.004 C 
ATOM     11  C   UNL     1      36.154 -20.538 -20.429  0.00  0.00    +0.002 C 
ATOM     12  H   UNL     1      32.582 -23.300 -18.588  0.00  0.00    +0.154 HD
ENDROOT
BRANCH   1  15
ATOM     13  N   UNL     1      29.262 -24.455 -13.717  0.00  0.00    -0.236 N 
ATOM     14  N   UNL     1      29.974 -25.152 -12.816  0.00  0.00    -0.180 NA
ATOM     15  C   UNL     1      31.932 -23.523 -16.695  0.00  0.00    +0.050 C 
ATOM     16  C   UNL     1      31.273 -24.518 -14.590  0.00  0.00    +0.037 C 
ATOM     17  C   UNL     1      29.983 -24.045 -14.805  0.00  0.00    +0.067 C 
ATOM     18  C   UNL     1      32.269 -24.257 -15.545  0.00  0.00    +0.018 C 
ATOM     19  C   UNL     1      30.622 -23.063 -16.881  0.00  0.00    +0.016 C 
ATOM     20  C   UNL     1      29.619 -23.313 -15.939  0.00  0.00    +0.017 C 
ATOM     21  C   UNL     1      31.197 -25.188 -13.351  0.00  0.00    +0.119 C 
ATOM     22  H   UNL     1      28.304 -24.256 -13.603  0.00  0.00    +0.174 HD
ENDBRANCH   1  15
BRANCH   7  24
ATOM     23  N   UNL     1      36.597 -23.166 -14.120  0.00  0.00    -0.398 NA
ATOM     24  C   UNL     1      37.004 -23.603 -15.334  0.00  0.00    +0.197 C 
ATOM     25  C   UNL     1      38.063 -24.480 -15.522  0.00  0.00    +0.098 C 
ATOM     26  C   UNL     1      37.282 -23.628 -13.050  0.00  0.00    +0.110 C 
ATOM     27  C   UNL     1      38.743 -24.934 -14.399  0.00  0.00    -0.016 C 
ATOM     28  C   UNL     1      38.352 -24.505 -13.134  0.00  0.00    +0.023 C 
ATOM     29  C   UNL     1      36.836 -23.147 -11.711  0.00  0.00    +0.066 C 
ENDBRANCH   7  24
TORSDOF 2
ENDMDL
MODEL 8
REMARK VINA RESULT:     -10.0     13.643     17.749
REMARK  Name = 9998128
REMARK  2 active torsions:
REMARK  status: ('A' for Active; 'I' for Inactive)
REMARK    1  A    between atoms: N_1  and  C_15
REMARK    2  A    between atoms: C_7  and  C_24
REMARK                            x       y       z     vdW  Elec       q    Type
REMARK                         _______ _______ _______ _____ _____    ______ ____
ROOT
ATOM      1  N   UNL     1      33.276  -7.118 -22.666  0.00  0.00    -0.290 N 
ATOM      2  N   UNL     1      33.290  -9.197 -23.768  0.00  0.00    -0.327 NA
ATOM      3  N   UNL     1      32.287 -11.136 -22.749  0.00  0.00    -0.342 NA
ATOM      4  C   UNL     1      32.252  -9.036 -21.591  0.00  0.00    +0.143 C 
ATOM      5  C   UNL     1      32.931  -8.492 -22.679  0.00  0.00    +0.184 C 
ATOM      6  C   UNL     1      31.943 -10.403 -21.675  0.00  0.00    +0.133 C 
ATOM      7  C   UNL     1      32.942 -10.493 -23.737  0.00  0.00    +0.165 C 
ATOM      8  C   UNL     1      31.888  -8.280 -20.463  0.00  0.00    -0.011 C 
ATOM      9  C   UNL     1      31.264 -10.983 -20.606  0.00  0.00    +0.029 C 
ATOM     10  C   UNL     1      31.210  -8.884 -19.410  0.00  0.00    -0.004 C 
ATOM     11  C   UNL     1      30.898 -10.238 -19.481  0.00  0.00    +0.002 C 
ATOM     12  H   UNL     1      33.439  -6.757 -21.763  0.00  0.00    +0.154 HD
ENDROOT
BRANCH   1  15
ATOM     13  N   UNL     1      34.126  -3.542 -26.768  0.00  0.00    -0.236 N 
ATOM     14  N   UNL     1      35.237  -3.997 -27.371  0.00  0.00    -0.180 NA
ATOM     15  C   UNL     1      33.432  -6.171 -23.690  0.00  0.00    +0.050 C 
ATOM     16  C   UNL     1      34.651  -5.323 -25.600  0.00  0.00    +0.037 C 
ATOM     17  C   UNL     1      33.722  -4.293 -25.698  0.00  0.00    +0.067 C 
ATOM     18  C   UNL     1      34.511  -6.281 -24.583  0.00  0.00    +0.018 C 
ATOM     19  C   UNL     1      32.515  -5.120 -23.816  0.00  0.00    +0.016 C 
ATOM     20  C   UNL     1      32.640  -4.158 -24.824  0.00  0.00    +0.017 C 
ATOM     21  C   UNL     1      35.553  -5.081 -26.658  0.00  0.00    +0.119 C 
ATOM     22  H   UNL     1      33.646  -2.738 -27.070  0.00  0.00    +0.174 HD
ENDBRANCH   1  15
BRANCH   7  24
ATOM     23  N   UNL     1      33.269 -12.623 -24.693  0.00  0.00    -0.398 NA
ATOM     24  C   UNL     1      33.307 -11.284 -24.883  0.00  0.00    +0.197 C 
ATOM     25  C   UNL     1      33.668 -10.685 -26.082  0.00  0.00    +0.098 C 
ATOM     26  C   UNL     1      33.607 -13.393 -25.752  0.00  0.00    +0.110 C 
ATOM     27  C   UNL     1      34.009 -11.509 -27.148  0.00  0.00    -0.016 C 
ATOM     28  C   UNL     1      33.981 -12.891 -26.988  0.00  0.00    +0.023 C 
ATOM     29  C   UNL     1      33.566 -14.870 -25.544  0.00  0.00    +0.066 C 
ENDBRANCH   7  24
TORSDOF 2
ENDMDL
MODEL 9
REMARK VINA RESULT:      -9.9     10.272     14.619
REMARK  Name = 9998128
REMARK  2 active torsions:
REMARK  status: ('A' for Active; 'I' for Inactive)
REMARK    1  A    between atoms: N_1  and  C_15
REMARK    2  A    between atoms: C_7  and  C_24
REMARK                            x       y       z     vdW  Elec       q    Type
REMARK                         _______ _______ _______ _____ _____    ______ ____
ROOT
ATOM      1  N   UNL     1      32.221 -12.763 -22.608  0.00  0.00    -0.290 N 
ATOM      2  N   UNL     1      33.146 -10.859 -23.636  0.00  0.00    -0.327 NA
ATOM      3  N   UNL     1      32.898  -8.680 -22.638  0.00  0.00    -0.342 NA
ATOM      4  C   UNL     1      31.940 -10.595 -21.558  0.00  0.00    +0.143 C 
ATOM      5  C   UNL     1      32.444 -11.364 -22.604  0.00  0.00    +0.184 C 
ATOM      6  C   UNL     1      32.200  -9.217 -21.621  0.00  0.00    +0.133 C 
ATOM      7  C   UNL     1      33.333  -9.531 -23.590  0.00  0.00    +0.165 C 
ATOM      8  C   UNL     1      31.208 -11.145 -20.490  0.00  0.00    -0.011 C 
ATOM      9  C   UNL     1      31.711  -8.415 -20.593  0.00  0.00    +0.029 C 
ATOM     10  C   UNL     1      30.732 -10.321 -19.476  0.00  0.00    -0.004 C 
ATOM     11  C   UNL     1      30.984  -8.954 -19.527  0.00  0.00    +0.002 C 
ATOM     12  H   UNL     1      31.381 -13.033 -22.168  0.00  0.00    +0.154 HD
ENDROOT
BRANCH   1  15
ATOM     13  N   UNL     1      35.228 -17.041 -24.338  0.00  0.00    -0.236 N 
ATOM     14  N   UNL     1      35.778 -17.529 -23.213  0.00  0.00    -0.180 NA
ATOM     15  C   UNL     1      32.965 -13.839 -23.117  0.00  0.00    +0.050 C 
ATOM     16  C   UNL     1      34.456 -15.713 -22.773  0.00  0.00    +0.037 C 
ATOM     17  C   UNL     1      34.424 -15.952 -24.142  0.00  0.00    +0.067 C 
ATOM     18  C   UNL     1      33.717 -14.642 -22.243  0.00  0.00    +0.018 C 
ATOM     19  C   UNL     1      32.955 -14.107 -24.492  0.00  0.00    +0.016 C 
ATOM     20  C   UNL     1      33.685 -15.170 -25.034  0.00  0.00    +0.017 C 
ATOM     21  C   UNL     1      35.306 -16.718 -22.263  0.00  0.00    +0.119 C 
ATOM     22  H   UNL     1      35.389 -17.435 -25.225  0.00  0.00    +0.174 HD
ENDBRANCH   1  15
BRANCH   7  24
ATOM     23  N   UNL     1      34.136  -7.598 -24.674  0.00  0.00    -0.398 NA
ATOM     24  C   UNL     1      34.079  -8.949 -24.675  0.00  0.00    +0.197 C 
ATOM     25  C   UNL     1      34.684  -9.746 -25.637  0.00  0.00    +0.098 C 
ATOM     26  C   UNL     1      34.830  -7.021 -25.681  0.00  0.00    +0.110 C 
ATOM     27  C   UNL     1      35.388  -9.117 -26.657  0.00  0.00    -0.016 C 
ATOM     28  C   UNL     1      35.468  -7.729 -26.687  0.00  0.00    +0.023 C 
ATOM     29  C   UNL     1      34.894  -5.531 -25.682  0.00  0.00    +0.066 C 
ENDBRANCH   7  24
TORSDOF 2
ENDMDL
