MODEL 1
REMARK VINA RESULT:     -12.3      0.000      0.000
REMARK  Name = 11677589
REMARK  7 active torsions:
REMARK  status: ('A' for Active; 'I' for Inactive)
REMARK    1  A    between atoms: C_1  and  N_7
REMARK    2  A    between atoms: C_2  and  C_20
REMARK    3  A    between atoms: C_11  and  C_18
REMARK    4  A    between atoms: C_20  and  C_21
REMARK    5  A    between atoms: C_21  and  N_23
REMARK    6  A    between atoms: N_24  and  S_28
REMARK    7  A    between atoms: S_28  and  C_31
REMARK                            x       y       z     vdW  Elec       q    Type
REMARK                         _______ _______ _______ _____ _____    ______ ____
ROOT
ATOM      1  C   UNL     1      33.728 -13.675 -22.925  0.00  0.00    +0.058 C 
ATOM      2  C   UNL     1      34.792 -16.218 -22.600  0.00  0.00    -0.020 C 
ATOM      3  C   UNL     1      33.913 -14.487 -24.037  0.00  0.00    +0.015 C 
ATOM      4  C   UNL     1      34.067 -14.117 -21.654  0.00  0.00    +0.015 C 
ATOM      5  C   UNL     1      34.448 -15.764 -23.873  0.00  0.00    -0.003 C 
ATOM      6  C   UNL     1      34.603 -15.395 -21.490  0.00  0.00    -0.003 C 
ENDROOT
BRANCH   1   7
ATOM      7  N   UNL     1      33.193 -12.396 -23.088  0.00  0.00    -0.242 N 
ATOM      8  N   UNL     1      31.939 -10.600 -22.706  0.00  0.00    -0.387 NA
ATOM      9  N   UNL     1      33.703  -9.299 -25.692  0.00  0.00    -0.408 NA
ATOM     10  C   UNL     1      33.528 -11.500 -24.069  0.00  0.00    +0.091 C 
ATOM     11  C   UNL     1      32.241 -11.812 -22.298  0.00  0.00    +0.168 C 
ATOM     12  C   UNL     1      32.732 -10.388 -23.809  0.00  0.00    +0.172 C 
ATOM     13  C   UNL     1      34.425 -11.560 -25.127  0.00  0.00    +0.045 C 
ATOM     14  C   UNL     1      32.838  -9.279 -24.648  0.00  0.00    +0.140 C 
ATOM     15  C   UNL     1      34.455 -10.408 -25.900  0.00  0.00    +0.110 C 
ATOM     16  C   UNL     1      32.035  -8.036 -24.463  0.00  0.00    +0.069 C 
ATOM     17  C   UNL     1      35.386 -10.358 -27.069  0.00  0.00    +0.066 C 
BRANCH  11  18
ATOM     18  C   UNL     1      31.643 -12.497 -21.132  0.00  0.00    +0.075 C 
ATOM     19  C   UNL     1      31.590 -11.606 -19.887  0.00  0.00    +0.009 C 
ENDBRANCH  11  18
ENDBRANCH   1   7
BRANCH   2  20
ATOM     20  C   UNL     1      35.365 -17.585 -22.426  0.00  0.00    +0.048 C 
BRANCH  20  21
ATOM     21  C   UNL     1      34.302 -18.684 -22.308  0.00  0.00    +0.096 C 
BRANCH  21  23
ATOM     22  O   UNL     1      32.550 -20.588 -21.061  0.00  0.00    -0.251 OA
ATOM     23  N   UNL     1      34.664 -19.692 -21.348  0.00  0.00    -0.287 N 
ATOM     24  N   UNL     1      34.347 -21.479 -19.862  0.00  0.00    -0.169 N 
ATOM     25  C   UNL     1      33.749 -20.574 -20.795  0.00  0.00    +0.319 C 
ATOM     26  H   UNL     1      35.605 -19.759 -21.070  0.00  0.00    +0.151 HD
ATOM     27  H   UNL     1      35.315 -21.393 -19.706  0.00  0.00    +0.178 HD
BRANCH  24  28
ATOM     28  S   UNL     1      33.518 -22.696 -18.995  0.00  0.00    +0.077 S 
ATOM     29  O   UNL     1      32.214 -22.201 -18.598  0.00  0.00    -0.150 OA
ATOM     30  O   UNL     1      33.642 -23.957 -19.702  0.00  0.00    -0.150 OA
BRANCH  28  31
ATOM     31  C   UNL     1      34.522 -22.823 -17.546  0.00  0.00    +0.125 C 
ATOM     32  C   UNL     1      34.019 -23.468 -16.428  0.00  0.00    +0.020 C 
ATOM     33  C   UNL     1      35.793 -22.275 -17.554  0.00  0.00    +0.020 C 
ATOM     34  C   UNL     1      36.095 -23.021 -15.276  0.00  0.00    -0.022 C 
ATOM     35  C   UNL     1      34.812 -23.568 -15.285  0.00  0.00    -0.003 C 
ATOM     36  C   UNL     1      36.586 -22.375 -16.411  0.00  0.00    -0.003 C 
ATOM     37  C   UNL     1      36.943 -23.130 -14.055  0.00  0.00    +0.031 C 
ENDBRANCH  28  31
ENDBRANCH  24  28
ENDBRANCH  21  23
ENDBRANCH  20  21
ENDBRANCH   2  20
TORSDOF 7
ENDMDL
MODEL 2
REMARK VINA RESULT:     -11.9      1.887      2.433
REMARK  Name = 11677589
REMARK  7 active torsions:
REMARK  status: ('A' for Active; 'I' for Inactive)
REMARK    1  A    between atoms: C_1  and  N_7
REMARK    2  A    between atoms: C_2  and  C_20
REMARK    3  A    between atoms: C_11  and  C_18
REMARK    4  A    between atoms: C_20  and  C_21
REMARK    5  A    between atoms: C_21  and  N_23
REMARK    6  A    between atoms: N_24  and  S_28
REMARK    7  A    between atoms: S_28  and  C_31
REMARK                            x       y       z     vdW  Elec       q    Type
REMARK                         _______ _______ _______ _____ _____    ______ ____
ROOT
ATOM      1  C   UNL     1      33.466 -13.200 -23.628  0.00  0.00    +0.058 C 
ATOM      2  C   UNL     1      34.224 -15.861 -23.857  0.00  0.00    -0.020 C 
ATOM      3  C   UNL     1      33.106 -13.920 -24.759  0.00  0.00    +0.015 C 
ATOM      4  C   UNL     1      34.200 -13.793 -22.609  0.00  0.00    +0.015 C 
ATOM      5  C   UNL     1      33.487 -15.257 -24.874  0.00  0.00    -0.003 C 
ATOM      6  C   UNL     1      34.582 -15.130 -22.724  0.00  0.00    -0.003 C 
ENDROOT
BRANCH   1   7
ATOM      7  N   UNL     1      33.085 -11.862 -23.512  0.00  0.00    -0.242 N 
ATOM      8  N   UNL     1      32.031 -10.056 -22.758  0.00  0.00    -0.387 NA
ATOM      9  N   UNL     1      34.031  -8.359 -25.374  0.00  0.00    -0.408 NA
ATOM     10  C   UNL     1      33.553 -10.822 -24.272  0.00  0.00    +0.091 C 
ATOM     11  C   UNL     1      32.179 -11.354 -22.622  0.00  0.00    +0.168 C 
ATOM     12  C   UNL     1      32.880  -9.706 -23.782  0.00  0.00    +0.172 C 
ATOM     13  C   UNL     1      34.473 -10.757 -25.309  0.00  0.00    +0.045 C 
ATOM     14  C   UNL     1      33.139  -8.462 -24.358  0.00  0.00    +0.140 C 
ATOM     15  C   UNL     1      34.659  -9.478 -25.812  0.00  0.00    +0.110 C 
ATOM     16  C   UNL     1      32.476  -7.203 -23.913  0.00  0.00    +0.069 C 
ATOM     17  C   UNL     1      35.628  -9.287 -26.934  0.00  0.00    +0.066 C 
BRANCH  11  18
ATOM     18  C   UNL     1      31.468 -12.199 -21.638  0.00  0.00    +0.075 C 
ATOM     19  C   UNL     1      31.624 -11.690 -20.201  0.00  0.00    +0.009 C 
ENDBRANCH  11  18
ENDBRANCH   1   7
BRANCH   2  20
ATOM     20  C   UNL     1      34.633 -17.291 -23.980  0.00  0.00    +0.048 C 
BRANCH  20  21
ATOM     21  C   UNL     1      35.737 -17.699 -22.998  0.00  0.00    +0.096 C 
BRANCH  21  23
ATOM     22  O   UNL     1      37.384 -19.256 -21.234  0.00  0.00    -0.251 OA
ATOM     23  N   UNL     1      35.300 -18.712 -22.076  0.00  0.00    -0.287 N 
ATOM     24  N   UNL     1      35.496 -20.376 -20.433  0.00  0.00    -0.169 N 
ATOM     25  C   UNL     1      36.168 -19.418 -21.258  0.00  0.00    +0.319 C 
ATOM     26  H   UNL     1      34.338 -18.915 -22.023  0.00  0.00    +0.151 HD
ATOM     27  H   UNL     1      34.518 -20.441 -20.521  0.00  0.00    +0.178 HD
BRANCH  24  28
ATOM     28  S   UNL     1      36.254 -21.416 -19.308  0.00  0.00    +0.077 S 
ATOM     29  O   UNL     1      36.931 -22.482 -20.020  0.00  0.00    -0.150 OA
ATOM     30  O   UNL     1      36.965 -20.621 -18.324  0.00  0.00    -0.150 OA
BRANCH  28  31
ATOM     31  C   UNL     1      34.849 -22.107 -18.487  0.00  0.00    +0.125 C 
ATOM     32  C   UNL     1      33.606 -22.025 -19.089  0.00  0.00    +0.020 C 
ATOM     33  C   UNL     1      35.019 -22.717 -17.257  0.00  0.00    +0.020 C 
ATOM     34  C   UNL     1      32.650 -23.190 -17.201  0.00  0.00    -0.022 C 
ATOM     35  C   UNL     1      32.498 -22.571 -18.441  0.00  0.00    -0.003 C 
ATOM     36  C   UNL     1      33.910 -23.264 -16.608  0.00  0.00    -0.003 C 
ATOM     37  C   UNL     1      31.466 -23.775 -16.510  0.00  0.00    +0.031 C 
ENDBRANCH  28  31
ENDBRANCH  24  28
ENDBRANCH  21  23
ENDBRANCH  20  21
ENDBRANCH   2  20
TORSDOF 7
ENDMDL
MODEL 3
REMARK VINA RESULT:     -11.8      2.021      3.800
REMARK  Name = 11677589
REMARK  7 active torsions:
REMARK  status: ('A' for Active; 'I' for Inactive)
REMARK    1  A    between atoms: C_1  and  N_7
REMARK    2  A    between atoms: C_2  and  C_20
REMARK    3  A    between atoms: C_11  and  C_18
REMARK    4  A    between atoms: C_20  and  C_21
REMARK    5  A    between atoms: C_21  and  N_23
REMARK    6  A    between atoms: N_24  and  S_28
REMARK    7  A    between atoms: S_28  and  C_31
REMARK                            x       y       z     vdW  Elec       q    Type
REMARK                         _______ _______ _______ _____ _____    ______ ____
ROOT
ATOM      1  C   UNL     1      33.622 -12.872 -24.076  0.00  0.00    +0.058 C 
ATOM      2  C   UNL     1      34.161 -15.596 -24.073  0.00  0.00    -0.020 C 
ATOM      3  C   UNL     1      34.231 -13.449 -22.969  0.00  0.00    +0.015 C 
ATOM      4  C   UNL     1      33.280 -13.639 -25.182  0.00  0.00    +0.015 C 
ATOM      5  C   UNL     1      34.501 -14.818 -22.968  0.00  0.00    -0.003 C 
ATOM      6  C   UNL     1      33.550 -15.008 -25.181  0.00  0.00    -0.003 C 
ENDROOT
BRANCH   1   7
ATOM      7  N   UNL     1      33.351 -11.503 -24.078  0.00  0.00    -0.242 N 
ATOM      8  N   UNL     1      33.356  -9.381 -24.741  0.00  0.00    -0.387 NA
ATOM      9  N   UNL     1      31.308  -8.902 -21.692  0.00  0.00    -0.408 NA
ATOM     10  C   UNL     1      32.616 -10.825 -23.141  0.00  0.00    +0.091 C 
ATOM     11  C   UNL     1      33.771 -10.598 -25.013  0.00  0.00    +0.168 C 
ATOM     12  C   UNL     1      32.635  -9.504 -23.577  0.00  0.00    +0.172 C 
ATOM     13  C   UNL     1      31.959 -11.234 -21.989  0.00  0.00    +0.045 C 
ATOM     14  C   UNL     1      31.962  -8.541 -22.824  0.00  0.00    +0.140 C 
ATOM     15  C   UNL     1      31.322 -10.203 -21.312  0.00  0.00    +0.110 C 
ATOM     16  C   UNL     1      31.916  -7.098 -23.198  0.00  0.00    +0.069 C 
ATOM     17  C   UNL     1      30.581 -10.526 -20.056  0.00  0.00    +0.066 C 
BRANCH  11  18
ATOM     18  C   UNL     1      34.595 -10.981 -26.180  0.00  0.00    +0.075 C 
ATOM     19  C   UNL     1      35.504  -9.845 -26.659  0.00  0.00    +0.009 C 
ENDBRANCH  11  18
ENDBRANCH   1   7
BRANCH   2  20
ATOM     20  C   UNL     1      34.450 -17.060 -24.071  0.00  0.00    +0.048 C 
BRANCH  20  21
ATOM     21  C   UNL     1      35.573 -17.462 -23.108  0.00  0.00    +0.096 C 
BRANCH  21  23
ATOM     22  O   UNL     1      37.282 -19.015 -21.400  0.00  0.00    -0.251 OA
ATOM     23  N   UNL     1      35.175 -18.516 -22.215  0.00  0.00    -0.287 N 
ATOM     24  N   UNL     1      35.437 -20.221 -20.624  0.00  0.00    -0.169 N 
ATOM     25  C   UNL     1      36.071 -19.217 -21.424  0.00  0.00    +0.319 C 
ATOM     26  H   UNL     1      34.221 -18.753 -22.164  0.00  0.00    +0.151 HD
ATOM     27  H   UNL     1      34.461 -20.316 -20.710  0.00  0.00    +0.178 HD
BRANCH  24  28
ATOM     28  S   UNL     1      36.236 -21.268 -19.535  0.00  0.00    +0.077 S 
ATOM     29  O   UNL     1      36.909 -22.314 -20.281  0.00  0.00    -0.150 OA
ATOM     30  O   UNL     1      36.960 -20.480 -18.557  0.00  0.00    -0.150 OA
BRANCH  28  31
ATOM     31  C   UNL     1      34.861 -21.991 -18.692  0.00  0.00    +0.125 C 
ATOM     32  C   UNL     1      33.597 -21.887 -19.246  0.00  0.00    +0.020 C 
ATOM     33  C   UNL     1      35.074 -22.648 -17.493  0.00  0.00    +0.020 C 
ATOM     34  C   UNL     1      32.709 -23.124 -17.370  0.00  0.00    -0.022 C 
ATOM     35  C   UNL     1      32.512 -22.458 -18.579  0.00  0.00    -0.003 C 
ATOM     36  C   UNL     1      33.989 -23.220 -16.827  0.00  0.00    -0.003 C 
ATOM     37  C   UNL     1      31.549 -23.735 -16.660  0.00  0.00    +0.031 C 
ENDBRANCH  28  31
ENDBRANCH  24  28
ENDBRANCH  21  23
ENDBRANCH  20  21
ENDBRANCH   2  20
TORSDOF 7
ENDMDL
MODEL 4
REMARK VINA RESULT:     -11.7      3.481     12.963
REMARK  Name = 11677589
REMARK  7 active torsions:
REMARK  status: ('A' for Active; 'I' for Inactive)
REMARK    1  A    between atoms: C_1  and  N_7
REMARK    2  A    between atoms: C_2  and  C_20
REMARK    3  A    between atoms: C_11  and  C_18
REMARK    4  A    between atoms: C_20  and  C_21
REMARK    5  A    between atoms: C_21  and  N_23
REMARK    6  A    between atoms: N_24  and  S_28
REMARK    7  A    between atoms: S_28  and  C_31
REMARK                            x       y       z     vdW  Elec       q    Type
REMARK                         _______ _______ _______ _____ _____    ______ ____
ROOT
ATOM      1  C   UNL     1      35.046 -22.981 -16.860  0.00  0.00    +0.058 C 
ATOM      2  C   UNL     1      34.883 -21.744 -19.340  0.00  0.00    -0.020 C 
ATOM      3  C   UNL     1      33.889 -23.114 -17.617  0.00  0.00    +0.015 C 
ATOM      4  C   UNL     1      36.123 -22.238 -17.327  0.00  0.00    +0.015 C 
ATOM      5  C   UNL     1      33.807 -22.492 -18.863  0.00  0.00    -0.003 C 
ATOM      6  C   UNL     1      36.041 -21.616 -18.573  0.00  0.00    -0.003 C 
ENDROOT
BRANCH   1   7
ATOM      7  N   UNL     1      35.129 -23.603 -15.613  0.00  0.00    -0.242 N 
ATOM      8  N   UNL     1      34.501 -24.367 -13.622  0.00  0.00    -0.387 NA
ATOM      9  N   UNL     1      38.025 -25.496 -13.453  0.00  0.00    -0.408 NA
ATOM     10  C   UNL     1      36.245 -24.192 -15.078  0.00  0.00    +0.091 C 
ATOM     11  C   UNL     1      34.113 -23.734 -14.707  0.00  0.00    +0.168 C 
ATOM     12  C   UNL     1      35.827 -24.660 -13.836  0.00  0.00    +0.172 C 
ATOM     13  C   UNL     1      37.540 -24.350 -15.552  0.00  0.00    +0.045 C 
ATOM     14  C   UNL     1      36.750 -25.322 -13.025  0.00  0.00    +0.140 C 
ATOM     15  C   UNL     1      38.379 -25.020 -14.672  0.00  0.00    +0.110 C 
ATOM     16  C   UNL     1      36.411 -25.864 -11.678  0.00  0.00    +0.069 C 
ATOM     17  C   UNL     1      39.799 -25.250 -15.077  0.00  0.00    +0.066 C 
BRANCH  11  18
ATOM     18  C   UNL     1      32.752 -23.210 -14.953  0.00  0.00    +0.075 C 
ATOM     19  C   UNL     1      31.745 -23.659 -13.889  0.00  0.00    +0.009 C 
ENDBRANCH  11  18
ENDBRANCH   1   7
BRANCH   2  20
ATOM     20  C   UNL     1      34.794 -21.078 -20.672  0.00  0.00    +0.048 C 
BRANCH  20  21
ATOM     21  C   UNL     1      35.855 -19.991 -20.885  0.00  0.00    +0.096 C 
BRANCH  21  23
ATOM     22  O   UNL     1      35.283 -19.597 -23.673  0.00  0.00    -0.251 OA
ATOM     23  N   UNL     1      35.310 -18.810 -21.498  0.00  0.00    -0.287 N 
ATOM     24  N   UNL     1      34.528 -17.431 -23.227  0.00  0.00    -0.169 N 
ATOM     25  C   UNL     1      35.065 -18.705 -22.858  0.00  0.00    +0.319 C 
ATOM     26  H   UNL     1      35.102 -18.037 -20.924  0.00  0.00    +0.151 HD
ATOM     27  H   UNL     1      34.389 -16.773 -22.508  0.00  0.00    +0.178 HD
BRANCH  24  28
ATOM     28  S   UNL     1      34.109 -16.958 -24.815  0.00  0.00    +0.077 S 
ATOM     29  O   UNL     1      35.230 -17.205 -25.702  0.00  0.00    -0.150 OA
ATOM     30  O   UNL     1      32.790 -17.470 -25.136  0.00  0.00    -0.150 OA
BRANCH  28  31
ATOM     31  C   UNL     1      33.942 -15.210 -24.614  0.00  0.00    +0.125 C 
ATOM     32  C   UNL     1      33.541 -14.440 -25.692  0.00  0.00    +0.020 C 
ATOM     33  C   UNL     1      34.216 -14.642 -23.382  0.00  0.00    +0.020 C 
ATOM     34  C   UNL     1      33.681 -12.472 -24.299  0.00  0.00    -0.022 C 
ATOM     35  C   UNL     1      33.409 -13.060 -25.533  0.00  0.00    -0.003 C 
ATOM     36  C   UNL     1      34.085 -13.262 -23.223  0.00  0.00    -0.003 C 
ATOM     37  C   UNL     1      33.539 -10.997 -24.128  0.00  0.00    +0.031 C 
ENDBRANCH  28  31
ENDBRANCH  24  28
ENDBRANCH  21  23
ENDBRANCH  20  21
ENDBRANCH   2  20
TORSDOF 7
ENDMDL
MODEL 5
REMARK VINA RESULT:     -11.6      3.716     12.316
REMARK  Name = 11677589
REMARK  7 active torsions:
REMARK  status: ('A' for Active; 'I' for Inactive)
REMARK    1  A    between atoms: C_1  and  N_7
REMARK    2  A    between atoms: C_2  and  C_20
REMARK    3  A    between atoms: C_11  and  C_18
REMARK    4  A    between atoms: C_20  and  C_21
REMARK    5  A    between atoms: C_21  and  N_23
REMARK    6  A    between atoms: N_24  and  S_28
REMARK    7  A    between atoms: S_28  and  C_31
REMARK                            x       y       z     vdW  Elec       q    Type
REMARK                         _______ _______ _______ _____ _____    ______ ____
ROOT
ATOM      1  C   UNL     1      34.234 -22.929 -17.339  0.00  0.00    +0.058 C 
ATOM      2  C   UNL     1      35.563 -21.754 -19.475  0.00  0.00    -0.020 C 
ATOM      3  C   UNL     1      33.597 -22.824 -18.568  0.00  0.00    +0.015 C 
ATOM      4  C   UNL     1      35.527 -22.454 -17.163  0.00  0.00    +0.015 C 
ATOM      5  C   UNL     1      34.265 -22.233 -19.641  0.00  0.00    -0.003 C 
ATOM      6  C   UNL     1      36.195 -21.864 -18.236  0.00  0.00    -0.003 C 
ENDROOT
BRANCH   1   7
ATOM      7  N   UNL     1      33.566 -23.519 -16.265  0.00  0.00    -0.242 N 
ATOM      8  N   UNL     1      33.253 -24.646 -14.374  0.00  0.00    -0.387 NA
ATOM      9  N   UNL     1      29.691 -23.887 -15.049  0.00  0.00    -0.408 NA
ATOM     10  C   UNL     1      32.212 -23.515 -16.056  0.00  0.00    +0.091 C 
ATOM     11  C   UNL     1      34.145 -24.206 -15.234  0.00  0.00    +0.168 C 
ATOM     12  C   UNL     1      32.042 -24.224 -14.871  0.00  0.00    +0.172 C 
ATOM     13  C   UNL     1      31.154 -22.973 -16.774  0.00  0.00    +0.045 C 
ATOM     14  C   UNL     1      30.750 -24.401 -14.376  0.00  0.00    +0.140 C 
ATOM     15  C   UNL     1      29.912 -23.204 -16.199  0.00  0.00    +0.110 C 
ATOM     16  C   UNL     1      30.452 -25.142 -13.117  0.00  0.00    +0.069 C 
ATOM     17  C   UNL     1      28.698 -22.667 -16.886  0.00  0.00    +0.066 C 
BRANCH  11  18
ATOM     18  C   UNL     1      35.606 -24.411 -15.132  0.00  0.00    +0.075 C 
ATOM     19  C   UNL     1      36.002 -25.889 -15.210  0.00  0.00    +0.009 C 
ENDBRANCH  11  18
ENDBRANCH   1   7
BRANCH   2  20
ATOM     20  C   UNL     1      36.277 -21.122 -20.622  0.00  0.00    +0.048 C 
BRANCH  20  21
ATOM     21  C   UNL     1      36.295 -19.590 -20.564  0.00  0.00    +0.096 C 
BRANCH  21  23
ATOM     22  O   UNL     1      36.422 -18.768 -23.313  0.00  0.00    -0.251 OA
ATOM     23  N   UNL     1      35.237 -19.002 -21.340  0.00  0.00    -0.287 N 
ATOM     24  N   UNL     1      34.196 -18.065 -23.222  0.00  0.00    -0.169 N 
ATOM     25  C   UNL     1      35.387 -18.633 -22.668  0.00  0.00    +0.319 C 
ATOM     26  H   UNL     1      34.366 -18.852 -20.908  0.00  0.00    +0.151 HD
ATOM     27  H   UNL     1      33.413 -17.991 -22.630  0.00  0.00    +0.178 HD
BRANCH  24  28
ATOM     28  S   UNL     1      34.023 -17.503 -24.827  0.00  0.00    +0.077 S 
ATOM     29  O   UNL     1      35.238 -17.782 -25.568  0.00  0.00    -0.150 OA
ATOM     30  O   UNL     1      32.734 -17.922 -25.345  0.00  0.00    -0.150 OA
BRANCH  28  31
ATOM     31  C   UNL     1      33.926 -15.758 -24.566  0.00  0.00    +0.125 C 
ATOM     32  C   UNL     1      33.437 -14.948 -25.577  0.00  0.00    +0.020 C 
ATOM     33  C   UNL     1      34.340 -15.232 -23.354  0.00  0.00    +0.020 C 
ATOM     34  C   UNL     1      33.773 -13.024 -24.155  0.00  0.00    -0.022 C 
ATOM     35  C   UNL     1      33.360 -13.571 -25.370  0.00  0.00    -0.003 C 
ATOM     36  C   UNL     1      34.263 -13.854 -23.147  0.00  0.00    -0.003 C 
ATOM     37  C   UNL     1      33.690 -11.552 -23.934  0.00  0.00    +0.031 C 
ENDBRANCH  28  31
ENDBRANCH  24  28
ENDBRANCH  21  23
ENDBRANCH  20  21
ENDBRANCH   2  20
TORSDOF 7
ENDMDL
MODEL 6
REMARK VINA RESULT:     -11.3      3.649     12.818
REMARK  Name = 11677589
REMARK  7 active torsions:
REMARK  status: ('A' for Active; 'I' for Inactive)
REMARK    1  A    between atoms: C_1  and  N_7
REMARK    2  A    between atoms: C_2  and  C_20
REMARK    3  A    between atoms: C_11  and  C_18
REMARK    4  A    between atoms: C_20  and  C_21
REMARK    5  A    between atoms: C_21  and  N_23
REMARK    6  A    between atoms: N_24  and  S_28
REMARK    7  A    between atoms: S_28  and  C_31
REMARK                            x       y       z     vdW  Elec       q    Type
REMARK                         _______ _______ _______ _____ _____    ______ ____
ROOT
ATOM      1  C   UNL     1      35.311 -22.902 -16.856  0.00  0.00    +0.058 C 
ATOM      2  C   UNL     1      35.365 -21.663 -19.340  0.00  0.00    -0.020 C 
ATOM      3  C   UNL     1      36.417 -22.146 -17.220  0.00  0.00    +0.015 C 
ATOM      4  C   UNL     1      34.231 -23.047 -17.717  0.00  0.00    +0.015 C 
ATOM      5  C   UNL     1      36.445 -21.524 -18.469  0.00  0.00    -0.003 C 
ATOM      6  C   UNL     1      34.259 -22.425 -18.966  0.00  0.00    -0.003 C 
ENDROOT
BRANCH   1   7
ATOM      7  N   UNL     1      35.283 -23.525 -15.607  0.00  0.00    -0.242 N 
ATOM      8  N   UNL     1      34.489 -24.261 -13.665  0.00  0.00    -0.387 NA
ATOM      9  N   UNL     1      37.946 -25.529 -13.255  0.00  0.00    -0.408 NA
ATOM     10  C   UNL     1      36.336 -24.157 -14.997  0.00  0.00    +0.091 C 
ATOM     11  C   UNL     1      34.203 -23.614 -14.773  0.00  0.00    +0.168 C 
ATOM     12  C   UNL     1      35.814 -24.607 -13.788  0.00  0.00    +0.172 C 
ATOM     13  C   UNL     1      37.653 -24.367 -15.381  0.00  0.00    +0.045 C 
ATOM     14  C   UNL     1      36.652 -25.304 -12.917  0.00  0.00    +0.140 C 
ATOM     15  C   UNL     1      38.402 -25.069 -14.446  0.00  0.00    +0.110 C 
ATOM     16  C   UNL     1      36.200 -25.831 -11.597  0.00  0.00    +0.069 C 
ATOM     17  C   UNL     1      39.836 -25.355 -14.752  0.00  0.00    +0.066 C 
BRANCH  11  18
ATOM     18  C   UNL     1      32.884 -23.037 -15.112  0.00  0.00    +0.075 C 
ATOM     19  C   UNL     1      31.738 -24.037 -14.928  0.00  0.00    +0.009 C 
ENDBRANCH  11  18
ENDBRANCH   1   7
BRANCH   2  20
ATOM     20  C   UNL     1      35.395 -20.998 -20.675  0.00  0.00    +0.048 C 
BRANCH  20  21
ATOM     21  C   UNL     1      36.423 -19.865 -20.773  0.00  0.00    +0.096 C 
BRANCH  21  23
ATOM     22  O   UNL     1      35.834 -18.666 -23.316  0.00  0.00    -0.251 OA
ATOM     23  N   UNL     1      35.806 -18.587 -21.004  0.00  0.00    -0.287 N 
ATOM     24  N   UNL     1      34.942 -16.791 -22.242  0.00  0.00    -0.169 N 
ATOM     25  C   UNL     1      35.558 -18.083 -22.271  0.00  0.00    +0.319 C 
ATOM     26  H   UNL     1      35.549 -18.042 -20.225  0.00  0.00    +0.151 HD
ATOM     27  H   UNL     1      34.761 -16.397 -21.359  0.00  0.00    +0.178 HD
BRANCH  24  28
ATOM     28  S   UNL     1      34.498 -15.877 -23.617  0.00  0.00    +0.077 S 
ATOM     29  O   UNL     1      35.684 -15.285 -24.204  0.00  0.00    -0.150 OA
ATOM     30  O   UNL     1      33.582 -16.653 -24.432  0.00  0.00    -0.150 OA
BRANCH  28  31
ATOM     31  C   UNL     1      33.549 -14.585 -22.871  0.00  0.00    +0.125 C 
ATOM     32  C   UNL     1      32.946 -13.637 -23.679  0.00  0.00    +0.020 C 
ATOM     33  C   UNL     1      33.427 -14.546 -21.493  0.00  0.00    +0.020 C 
ATOM     34  C   UNL     1      32.064 -12.562 -21.703  0.00  0.00    -0.022 C 
ATOM     35  C   UNL     1      32.197 -12.617 -23.090  0.00  0.00    -0.003 C 
ATOM     36  C   UNL     1      32.678 -13.527 -20.904  0.00  0.00    -0.003 C 
ATOM     37  C   UNL     1      31.262 -11.474 -21.075  0.00  0.00    +0.031 C 
ENDBRANCH  28  31
ENDBRANCH  24  28
ENDBRANCH  21  23
ENDBRANCH  20  21
ENDBRANCH   2  20
TORSDOF 7
ENDMDL
MODEL 7
REMARK VINA RESULT:     -11.0      0.740      2.991
REMARK  Name = 11677589
REMARK  7 active torsions:
REMARK  status: ('A' for Active; 'I' for Inactive)
REMARK    1  A    between atoms: C_1  and  N_7
REMARK    2  A    between atoms: C_2  and  C_20
REMARK    3  A    between atoms: C_11  and  C_18
REMARK    4  A    between atoms: C_20  and  C_21
REMARK    5  A    between atoms: C_21  and  N_23
REMARK    6  A    between atoms: N_24  and  S_28
REMARK    7  A    between atoms: S_28  and  C_31
REMARK                            x       y       z     vdW  Elec       q    Type
REMARK                         _______ _______ _______ _____ _____    ______ ____
ROOT
ATOM      1  C   UNL     1      33.834 -13.566 -23.192  0.00  0.00    +0.058 C 
ATOM      2  C   UNL     1      34.770 -16.129 -22.674  0.00  0.00    -0.020 C 
ATOM      3  C   UNL     1      34.050 -13.964 -21.879  0.00  0.00    +0.015 C 
ATOM      4  C   UNL     1      34.080 -14.432 -24.250  0.00  0.00    +0.015 C 
ATOM      5  C   UNL     1      34.520 -15.252 -21.619  0.00  0.00    -0.003 C 
ATOM      6  C   UNL     1      34.550 -15.720 -23.990  0.00  0.00    -0.003 C 
ENDROOT
BRANCH   1   7
ATOM      7  N   UNL     1      33.364 -12.279 -23.453  0.00  0.00    -0.242 N 
ATOM      8  N   UNL     1      32.983 -10.385 -24.554  0.00  0.00    -0.387 NA
ATOM      9  N   UNL     1      31.221  -9.459 -21.430  0.00  0.00    -0.408 NA
ATOM     10  C   UNL     1      32.639 -11.495 -22.594  0.00  0.00    +0.091 C 
ATOM     11  C   UNL     1      33.543 -11.572 -24.611  0.00  0.00    +0.168 C 
ATOM     12  C   UNL     1      32.415 -10.319 -23.304  0.00  0.00    +0.172 C 
ATOM     13  C   UNL     1      32.176 -11.700 -21.301  0.00  0.00    +0.045 C 
ATOM     14  C   UNL     1      31.690  -9.296 -22.692  0.00  0.00    +0.140 C 
ATOM     15  C   UNL     1      31.468 -10.625 -20.784  0.00  0.00    +0.110 C 
ATOM     16  C   UNL     1      31.390  -7.996 -23.359  0.00  0.00    +0.069 C 
ATOM     17  C   UNL     1      30.920 -10.734 -19.397  0.00  0.00    +0.066 C 
BRANCH  11  18
ATOM     18  C   UNL     1      34.287 -12.114 -25.768  0.00  0.00    +0.075 C 
ATOM     19  C   UNL     1      34.768 -11.019 -26.726  0.00  0.00    +0.009 C 
ENDBRANCH  11  18
ENDBRANCH   1   7
BRANCH   2  20
ATOM     20  C   UNL     1      35.272 -17.506 -22.396  0.00  0.00    +0.048 C 
BRANCH  20  21
ATOM     21  C   UNL     1      34.155 -18.530 -22.164  0.00  0.00    +0.096 C 
BRANCH  21  23
ATOM     22  O   UNL     1      32.458 -20.524 -20.982  0.00  0.00    -0.251 OA
ATOM     23  N   UNL     1      34.548 -19.569 -21.251  0.00  0.00    -0.287 N 
ATOM     24  N   UNL     1      34.286 -21.423 -19.838  0.00  0.00    -0.169 N 
ATOM     25  C   UNL     1      33.659 -20.493 -20.726  0.00  0.00    +0.319 C 
ATOM     26  H   UNL     1      35.494 -19.626 -20.984  0.00  0.00    +0.151 HD
ATOM     27  H   UNL     1      35.254 -21.322 -19.687  0.00  0.00    +0.178 HD
BRANCH  24  28
ATOM     28  S   UNL     1      33.493 -22.694 -19.015  0.00  0.00    +0.077 S 
ATOM     29  O   UNL     1      32.172 -22.254 -18.610  0.00  0.00    -0.150 OA
ATOM     30  O   UNL     1      33.660 -23.926 -19.762  0.00  0.00    -0.150 OA
BRANCH  28  31
ATOM     31  C   UNL     1      34.494 -22.836 -17.566  0.00  0.00    +0.125 C 
ATOM     32  C   UNL     1      35.771 -22.301 -17.570  0.00  0.00    +0.020 C 
ATOM     33  C   UNL     1      33.984 -23.481 -16.452  0.00  0.00    +0.020 C 
ATOM     34  C   UNL     1      36.062 -23.059 -15.295  0.00  0.00    -0.022 C 
ATOM     35  C   UNL     1      36.561 -22.413 -16.426  0.00  0.00    -0.003 C 
ATOM     36  C   UNL     1      34.774 -23.593 -15.308  0.00  0.00    -0.003 C 
ATOM     37  C   UNL     1      36.906 -23.177 -14.072  0.00  0.00    +0.031 C 
ENDBRANCH  28  31
ENDBRANCH  24  28
ENDBRANCH  21  23
ENDBRANCH  20  21
ENDBRANCH   2  20
TORSDOF 7
ENDMDL
MODEL 8
REMARK VINA RESULT:     -10.9      3.391      6.345
REMARK  Name = 11677589
REMARK  7 active torsions:
REMARK  status: ('A' for Active; 'I' for Inactive)
REMARK    1  A    between atoms: C_1  and  N_7
REMARK    2  A    between atoms: C_2  and  C_20
REMARK    3  A    between atoms: C_11  and  C_18
REMARK    4  A    between atoms: C_20  and  C_21
REMARK    5  A    between atoms: C_21  and  N_23
REMARK    6  A    between atoms: N_24  and  S_28
REMARK    7  A    between atoms: S_28  and  C_31
REMARK                            x       y       z     vdW  Elec       q    Type
REMARK                         _______ _______ _______ _____ _____    ______ ____
ROOT
ATOM      1  C   UNL     1      35.239 -19.158 -21.851  0.00  0.00    +0.058 C 
ATOM      2  C   UNL     1      35.866 -20.953 -19.828  0.00  0.00    -0.020 C 
ATOM      3  C   UNL     1      36.545 -19.237 -21.386  0.00  0.00    +0.015 C 
ATOM      4  C   UNL     1      34.242 -19.964 -21.318  0.00  0.00    +0.015 C 
ATOM      5  C   UNL     1      36.860 -20.139 -20.369  0.00  0.00    -0.003 C 
ATOM      6  C   UNL     1      34.556 -20.866 -20.301  0.00  0.00    -0.003 C 
ENDROOT
BRANCH   1   7
ATOM      7  N   UNL     1      34.923 -18.255 -22.867  0.00  0.00    -0.242 N 
ATOM      8  N   UNL     1      34.517 -17.481 -24.912  0.00  0.00    -0.387 NA
ATOM      9  N   UNL     1      34.029 -14.283 -23.107  0.00  0.00    -0.408 NA
ATOM     10  C   UNL     1      34.650 -16.922 -22.706  0.00  0.00    +0.091 C 
ATOM     11  C   UNL     1      34.831 -18.542 -24.202  0.00  0.00    +0.168 C 
ATOM     12  C   UNL     1      34.401 -16.462 -23.996  0.00  0.00    +0.172 C 
ATOM     13  C   UNL     1      34.601 -16.103 -21.587  0.00  0.00    +0.045 C 
ATOM     14  C   UNL     1      34.086 -15.115 -24.177  0.00  0.00    +0.140 C 
ATOM     15  C   UNL     1      34.281 -14.784 -21.873  0.00  0.00    +0.110 C 
ATOM     16  C   UNL     1      33.801 -14.515 -25.512  0.00  0.00    +0.069 C 
ATOM     17  C   UNL     1      34.199 -13.809 -20.742  0.00  0.00    +0.066 C 
BRANCH  11  18
ATOM     18  C   UNL     1      35.064 -19.898 -24.744  0.00  0.00    +0.075 C 
ATOM     19  C   UNL     1      33.840 -20.461 -25.474  0.00  0.00    +0.009 C 
ENDBRANCH  11  18
ENDBRANCH   1   7
BRANCH   2  20
ATOM     20  C   UNL     1      36.202 -21.917 -18.740  0.00  0.00    +0.048 C 
BRANCH  20  21
ATOM     21  C   UNL     1      36.890 -21.265 -17.535  0.00  0.00    +0.096 C 
BRANCH  21  23
ATOM     22  O   UNL     1      36.108 -23.804 -16.440  0.00  0.00    -0.251 OA
ATOM     23  N   UNL     1      36.175 -21.495 -16.308  0.00  0.00    -0.287 N 
ATOM     24  N   UNL     1      35.123 -22.730 -14.613  0.00  0.00    -0.169 N 
ATOM     25  C   UNL     1      35.837 -22.759 -15.853  0.00  0.00    +0.319 C 
ATOM     26  H   UNL     1      35.911 -20.717 -15.766  0.00  0.00    +0.151 HD
ATOM     27  H   UNL     1      34.945 -21.847 -14.215  0.00  0.00    +0.178 HD
BRANCH  24  28
ATOM     28  S   UNL     1      34.553 -24.101 -13.767  0.00  0.00    +0.077 S 
ATOM     29  O   UNL     1      35.268 -25.278 -14.222  0.00  0.00    -0.150 OA
ATOM     30  O   UNL     1      34.471 -23.791 -12.352  0.00  0.00    -0.150 OA
BRANCH  28  31
ATOM     31  C   UNL     1      32.893 -24.201 -14.365  0.00  0.00    +0.125 C 
ATOM     32  C   UNL     1      32.460 -23.293 -15.316  0.00  0.00    +0.020 C 
ATOM     33  C   UNL     1      32.055 -25.186 -13.871  0.00  0.00    +0.020 C 
ATOM     34  C   UNL     1      30.292 -24.359 -15.301  0.00  0.00    -0.022 C 
ATOM     35  C   UNL     1      31.150 -23.373 -15.788  0.00  0.00    -0.003 C 
ATOM     36  C   UNL     1      30.744 -25.266 -14.343  0.00  0.00    -0.003 C 
ATOM     37  C   UNL     1      28.892 -24.444 -15.806  0.00  0.00    +0.031 C 
ENDBRANCH  28  31
ENDBRANCH  24  28
ENDBRANCH  21  23
ENDBRANCH  20  21
ENDBRANCH   2  20
TORSDOF 7
ENDMDL
MODEL 9
REMARK VINA RESULT:     -10.9      3.498     12.909
REMARK  Name = 11677589
REMARK  7 active torsions:
REMARK  status: ('A' for Active; 'I' for Inactive)
REMARK    1  A    between atoms: C_1  and  N_7
REMARK    2  A    between atoms: C_2  and  C_20
REMARK    3  A    between atoms: C_11  and  C_18
REMARK    4  A    between atoms: C_20  and  C_21
REMARK    5  A    between atoms: C_21  and  N_23
REMARK    6  A    between atoms: N_24  and  S_28
REMARK    7  A    between atoms: S_28  and  C_31
REMARK                            x       y       z     vdW  Elec       q    Type
REMARK                         _______ _______ _______ _____ _____    ______ ____
ROOT
ATOM      1  C   UNL     1      35.631 -22.716 -17.049  0.00  0.00    +0.058 C 
ATOM      2  C   UNL     1      35.314 -21.517 -19.533  0.00  0.00    -0.020 C 
ATOM      3  C   UNL     1      34.476 -22.953 -17.781  0.00  0.00    +0.015 C 
ATOM      4  C   UNL     1      36.631 -21.887 -17.542  0.00  0.00    +0.015 C 
ATOM      5  C   UNL     1      34.317 -22.351 -19.030  0.00  0.00    -0.003 C 
ATOM      6  C   UNL     1      36.472 -21.284 -18.790  0.00  0.00    -0.003 C 
ENDROOT
BRANCH   1   7
ATOM      7  N   UNL     1      35.791 -23.318 -15.800  0.00  0.00    -0.242 N 
ATOM      8  N   UNL     1      36.797 -24.278 -14.065  0.00  0.00    -0.387 NA
ATOM      9  N   UNL     1      33.353 -24.371 -12.704  0.00  0.00    -0.408 NA
ATOM     10  C   UNL     1      34.794 -23.579 -14.897  0.00  0.00    +0.091 C 
ATOM     11  C   UNL     1      36.969 -23.753 -15.258  0.00  0.00    +0.168 C 
ATOM     12  C   UNL     1      35.447 -24.179 -13.824  0.00  0.00    +0.172 C 
ATOM     13  C   UNL     1      33.424 -23.355 -14.921  0.00  0.00    +0.045 C 
ATOM     14  C   UNL     1      34.694 -24.573 -12.718  0.00  0.00    +0.140 C 
ATOM     15  C   UNL     1      32.767 -23.782 -13.776  0.00  0.00    +0.110 C 
ATOM     16  C   UNL     1      35.290 -25.224 -11.515  0.00  0.00    +0.069 C 
ATOM     17  C   UNL     1      31.288 -23.591 -13.689  0.00  0.00    +0.066 C 
BRANCH  11  18
ATOM     18  C   UNL     1      38.264 -23.630 -15.962  0.00  0.00    +0.075 C 
ATOM     19  C   UNL     1      39.274 -24.698 -15.529  0.00  0.00    +0.009 C 
ENDBRANCH  11  18
ENDBRANCH   1   7
BRANCH   2  20
ATOM     20  C   UNL     1      35.144 -20.872 -20.868  0.00  0.00    +0.048 C 
BRANCH  20  21
ATOM     21  C   UNL     1      36.166 -19.764 -21.148  0.00  0.00    +0.096 C 
BRANCH  21  23
ATOM     22  O   UNL     1      35.405 -19.324 -23.883  0.00  0.00    -0.251 OA
ATOM     23  N   UNL     1      35.554 -18.584 -21.696  0.00  0.00    -0.287 N 
ATOM     24  N   UNL     1      34.629 -17.188 -23.340  0.00  0.00    -0.169 N 
ATOM     25  C   UNL     1      35.219 -18.456 -23.035  0.00  0.00    +0.319 C 
ATOM     26  H   UNL     1      35.366 -17.829 -21.093  0.00  0.00    +0.151 HD
ATOM     27  H   UNL     1      34.522 -16.550 -22.598  0.00  0.00    +0.178 HD
BRANCH  24  28
ATOM     28  S   UNL     1      34.097 -16.692 -24.886  0.00  0.00    +0.077 S 
ATOM     29  O   UNL     1      35.165 -16.885 -25.847  0.00  0.00    -0.150 OA
ATOM     30  O   UNL     1      32.776 -17.237 -25.136  0.00  0.00    -0.150 OA
BRANCH  28  31
ATOM     31  C   UNL     1      33.892 -14.955 -24.631  0.00  0.00    +0.125 C 
ATOM     32  C   UNL     1      33.993 -14.442 -23.350  0.00  0.00    +0.020 C 
ATOM     33  C   UNL     1      33.635 -14.138 -25.719  0.00  0.00    +0.020 C 
ATOM     34  C   UNL     1      33.573 -12.234 -24.234  0.00  0.00    -0.022 C 
ATOM     35  C   UNL     1      33.833 -13.071 -23.149  0.00  0.00    -0.003 C 
ATOM     36  C   UNL     1      33.474 -12.767 -25.519  0.00  0.00    -0.003 C 
ATOM     37  C   UNL     1      33.402 -10.768 -24.019  0.00  0.00    +0.031 C 
ENDBRANCH  28  31
ENDBRANCH  24  28
ENDBRANCH  21  23
ENDBRANCH  20  21
ENDBRANCH   2  20
TORSDOF 7
ENDMDL
