MODEL 1
REMARK VINA RESULT:     -12.3      0.000      0.000
REMARK  Name = 9999276
REMARK  5 active torsions:
REMARK  status: ('A' for Active; 'I' for Inactive)
REMARK    1  A    between atoms: C_3  and  C_11
REMARK    2  A    between atoms: C_6  and  C_20
REMARK    3  A    between atoms: C_14  and  N_19
REMARK    4  A    between atoms: C_25  and  C_27
REMARK    5  A    between atoms: C_27  and  O_28
REMARK                            x       y       z     vdW  Elec       q    Type
REMARK                         _______ _______ _______ _____ _____    ______ ____
ROOT
ATOM      1  N   UNL     1      34.528 -23.257 -16.840  0.00  0.00    -0.400 NA
ATOM      2  N   UNL     1      32.597 -25.036 -14.304  0.00  0.00    -0.242 NA
ATOM      3  C   UNL     1      34.167 -23.990 -15.760  0.00  0.00    +0.149 C 
ATOM      4  C   UNL     1      32.866 -24.297 -15.398  0.00  0.00    +0.107 C 
ATOM      5  C   UNL     1      31.853 -23.796 -16.234  0.00  0.00    +0.005 C 
ATOM      6  C   UNL     1      33.526 -22.797 -17.614  0.00  0.00    +0.131 C 
ATOM      7  C   UNL     1      32.187 -23.034 -17.360  0.00  0.00    +0.030 C 
ATOM      8  C   UNL     1      30.523 -24.085 -15.902  0.00  0.00    +0.056 C 
ATOM      9  C   UNL     1      30.236 -24.846 -14.776  0.00  0.00    -0.001 C 
ATOM     10  C   UNL     1      31.300 -25.294 -14.017  0.00  0.00    +0.095 C 
ENDROOT
BRANCH   3  11
ATOM     11  C   UNL     1      35.297 -24.450 -14.979  0.00  0.00    +0.033 C 
ATOM     12  C   UNL     1      35.685 -23.750 -13.838  0.00  0.00    +0.027 C 
ATOM     13  C   UNL     1      35.994 -25.592 -15.371  0.00  0.00    +0.003 C 
ATOM     14  C   UNL     1      36.773 -24.193 -13.087  0.00  0.00    +0.143 C 
ATOM     15  C   UNL     1      37.083 -26.035 -14.619  0.00  0.00    +0.002 C 
ATOM     16  C   UNL     1      37.473 -25.335 -13.478  0.00  0.00    +0.024 C 
BRANCH  14  19
ATOM     17  O   UNL     1      36.766 -23.879 -10.806  0.00  0.00    -0.126 OA
ATOM     18  O   UNL     1      37.912 -22.479 -12.054  0.00  0.00    -0.126 OA
ATOM     19  N   UNL     1      37.170 -23.480 -11.924  0.00  0.00    +0.058 N 
ENDBRANCH  14  19
ENDBRANCH   3  11
BRANCH   6  20
ATOM     20  C   UNL     1      33.943 -22.018 -18.756  0.00  0.00    +0.030 C 
ATOM     21  C   UNL     1      32.992 -21.380 -19.556  0.00  0.00    +0.003 C 
ATOM     22  C   UNL     1      35.300 -21.902 -19.066  0.00  0.00    +0.003 C 
ATOM     23  C   UNL     1      33.396 -20.627 -20.659  0.00  0.00    +0.007 C 
ATOM     24  C   UNL     1      35.704 -21.148 -20.169  0.00  0.00    +0.007 C 
ATOM     25  C   UNL     1      34.752 -20.512 -20.965  0.00  0.00    +0.075 C 
BRANCH  25  27
ATOM     26  O   UNL     1      34.675 -19.786 -23.244  0.00  0.00    -0.245 OA
ATOM     27  C   UNL     1      35.174 -19.728 -22.115  0.00  0.00    +0.338 C 
BRANCH  27  28
ATOM     28  O   UNL     1      36.208 -18.892 -21.824  0.00  0.00    -0.477 OA
ATOM     29  H   UNL     1      36.820 -18.652 -22.492  0.00  0.00    +0.295 HD
ENDBRANCH  27  28
ENDBRANCH  25  27
ENDBRANCH   6  20
TORSDOF 5
ENDMDL
MODEL 2
REMARK VINA RESULT:     -11.9      1.711      1.939
REMARK  Name = 9999276
REMARK  5 active torsions:
REMARK  status: ('A' for Active; 'I' for Inactive)
REMARK    1  A    between atoms: C_3  and  C_11
REMARK    2  A    between atoms: C_6  and  C_20
REMARK    3  A    between atoms: C_14  and  N_19
REMARK    4  A    between atoms: C_25  and  C_27
REMARK    5  A    between atoms: C_27  and  O_28
REMARK                            x       y       z     vdW  Elec       q    Type
REMARK                         _______ _______ _______ _____ _____    ______ ____
ROOT
ATOM      1  N   UNL     1      34.589 -23.019 -16.925  0.00  0.00    -0.400 NA
ATOM      2  N   UNL     1      32.787 -24.879 -14.352  0.00  0.00    -0.242 NA
ATOM      3  C   UNL     1      34.278 -23.743 -15.824  0.00  0.00    +0.149 C 
ATOM      4  C   UNL     1      33.005 -24.158 -15.469  0.00  0.00    +0.107 C 
ATOM      5  C   UNL     1      31.965 -23.785 -16.338  0.00  0.00    +0.005 C 
ATOM      6  C   UNL     1      33.562 -22.683 -17.730  0.00  0.00    +0.131 C 
ATOM      7  C   UNL     1      32.247 -23.035 -17.487  0.00  0.00    +0.030 C 
ATOM      8  C   UNL     1      30.662 -24.185 -16.015  0.00  0.00    +0.056 C 
ATOM      9  C   UNL     1      30.428 -24.929 -14.865  0.00  0.00    -0.001 C 
ATOM     10  C   UNL     1      31.514 -25.247 -14.075  0.00  0.00    +0.095 C 
ENDROOT
BRANCH   3  11
ATOM     11  C   UNL     1      35.432 -24.066 -15.009  0.00  0.00    +0.033 C 
ATOM     12  C   UNL     1      36.207 -25.183 -15.314  0.00  0.00    +0.027 C 
ATOM     13  C   UNL     1      35.763 -23.259 -13.921  0.00  0.00    +0.003 C 
ATOM     14  C   UNL     1      37.318 -25.494 -14.530  0.00  0.00    +0.143 C 
ATOM     15  C   UNL     1      36.874 -23.570 -13.137  0.00  0.00    +0.002 C 
ATOM     16  C   UNL     1      37.651 -24.688 -13.440  0.00  0.00    +0.024 C 
BRANCH  14  19
ATOM     17  O   UNL     1      37.533 -27.718 -15.083  0.00  0.00    -0.126 OA
ATOM     18  O   UNL     1      39.356 -26.513 -14.857  0.00  0.00    -0.126 OA
ATOM     19  N   UNL     1      38.110 -26.632 -14.839  0.00  0.00    +0.058 N 
ENDBRANCH  14  19
ENDBRANCH   3  11
BRANCH   6  20
ATOM     20  C   UNL     1      33.925 -21.910 -18.894  0.00  0.00    +0.030 C 
ATOM     21  C   UNL     1      32.937 -21.287 -19.660  0.00  0.00    +0.003 C 
ATOM     22  C   UNL     1      35.267 -21.784 -19.260  0.00  0.00    +0.003 C 
ATOM     23  C   UNL     1      33.288 -20.540 -20.784  0.00  0.00    +0.007 C 
ATOM     24  C   UNL     1      35.619 -21.037 -20.385  0.00  0.00    +0.007 C 
ATOM     25  C   UNL     1      34.630 -20.416 -21.146  0.00  0.00    +0.075 C 
BRANCH  25  27
ATOM     26  O   UNL     1      34.446 -19.702 -23.423  0.00  0.00    -0.245 OA
ATOM     27  C   UNL     1      34.998 -19.637 -22.319  0.00  0.00    +0.338 C 
BRANCH  27  28
ATOM     28  O   UNL     1      36.043 -18.799 -22.081  0.00  0.00    -0.477 OA
ATOM     29  H   UNL     1      35.890 -17.953 -21.706  0.00  0.00    +0.295 HD
ENDBRANCH  27  28
ENDBRANCH  25  27
ENDBRANCH   6  20
TORSDOF 5
ENDMDL
MODEL 3
REMARK VINA RESULT:     -11.1      3.225      5.175
REMARK  Name = 9999276
REMARK  5 active torsions:
REMARK  status: ('A' for Active; 'I' for Inactive)
REMARK    1  A    between atoms: C_3  and  C_11
REMARK    2  A    between atoms: C_6  and  C_20
REMARK    3  A    between atoms: C_14  and  N_19
REMARK    4  A    between atoms: C_25  and  C_27
REMARK    5  A    between atoms: C_27  and  O_28
REMARK                            x       y       z     vdW  Elec       q    Type
REMARK                         _______ _______ _______ _____ _____    ______ ____
ROOT
ATOM      1  N   UNL     1      33.145 -22.802 -17.489  0.00  0.00    -0.400 NA
ATOM      2  N   UNL     1      34.034 -24.619 -14.450  0.00  0.00    -0.242 NA
ATOM      3  C   UNL     1      33.090 -23.524 -16.345  0.00  0.00    +0.149 C 
ATOM      4  C   UNL     1      34.182 -23.898 -15.579  0.00  0.00    +0.107 C 
ATOM      5  C   UNL     1      35.440 -23.484 -16.046  0.00  0.00    +0.005 C 
ATOM      6  C   UNL     1      34.371 -22.425 -17.901  0.00  0.00    +0.131 C 
ATOM      7  C   UNL     1      35.538 -22.735 -17.226  0.00  0.00    +0.030 C 
ATOM      8  C   UNL     1      36.570 -23.842 -15.299  0.00  0.00    +0.056 C 
ATOM      9  C   UNL     1      36.428 -24.584 -14.135  0.00  0.00    -0.001 C 
ATOM     10  C   UNL     1      35.150 -24.944 -13.756  0.00  0.00    +0.095 C 
ENDROOT
BRANCH   3  11
ATOM     11  C   UNL     1      31.740 -23.891 -15.966  0.00  0.00    +0.033 C 
ATOM     12  C   UNL     1      30.659 -23.432 -16.715  0.00  0.00    +0.027 C 
ATOM     13  C   UNL     1      31.527 -24.701 -14.851  0.00  0.00    +0.003 C 
ATOM     14  C   UNL     1      29.360 -23.785 -16.350  0.00  0.00    +0.143 C 
ATOM     15  C   UNL     1      30.228 -25.054 -14.486  0.00  0.00    +0.002 C 
ATOM     16  C   UNL     1      29.144 -24.595 -15.235  0.00  0.00    +0.024 C 
BRANCH  14  19
ATOM     17  O   UNL     1      27.491 -24.160 -17.642  0.00  0.00    -0.126 OA
ATOM     18  O   UNL     1      28.083 -22.084 -17.230  0.00  0.00    -0.126 OA
ATOM     19  N   UNL     1      28.256 -23.319 -17.113  0.00  0.00    +0.058 N 
ENDBRANCH  14  19
ENDBRANCH   3  11
BRANCH   6  20
ATOM     20  C   UNL     1      34.397 -21.658 -19.124  0.00  0.00    +0.030 C 
ATOM     21  C   UNL     1      33.203 -21.250 -19.722  0.00  0.00    +0.003 C 
ATOM     22  C   UNL     1      35.618 -21.322 -19.714  0.00  0.00    +0.003 C 
ATOM     23  C   UNL     1      33.228 -20.508 -20.903  0.00  0.00    +0.007 C 
ATOM     24  C   UNL     1      35.643 -20.580 -20.896  0.00  0.00    +0.007 C 
ATOM     25  C   UNL     1      34.450 -20.174 -21.489  0.00  0.00    +0.075 C 
BRANCH  25  27
ATOM     26  O   UNL     1      33.518 -19.228 -23.480  0.00  0.00    -0.245 OA
ATOM     27  C   UNL     1      34.478 -19.401 -22.722  0.00  0.00    +0.338 C 
BRANCH  27  28
ATOM     28  O   UNL     1      35.703 -18.866 -22.972  0.00  0.00    -0.477 OA
ATOM     29  H   UNL     1      35.812 -17.935 -23.002  0.00  0.00    +0.295 HD
ENDBRANCH  27  28
ENDBRANCH  25  27
ENDBRANCH   6  20
TORSDOF 5
ENDMDL
MODEL 4
REMARK VINA RESULT:      -9.8      2.114      7.032
REMARK  Name = 9999276
REMARK  5 active torsions:
REMARK  status: ('A' for Active; 'I' for Inactive)
REMARK    1  A    between atoms: C_3  and  C_11
REMARK    2  A    between atoms: C_6  and  C_20
REMARK    3  A    between atoms: C_14  and  N_19
REMARK    4  A    between atoms: C_25  and  C_27
REMARK    5  A    between atoms: C_27  and  O_28
REMARK                            x       y       z     vdW  Elec       q    Type
REMARK                         _______ _______ _______ _____ _____    ______ ____
ROOT
ATOM      1  N   UNL     1      34.671 -23.305 -17.087  0.00  0.00    -0.400 NA
ATOM      2  N   UNL     1      31.077 -22.698 -17.289  0.00  0.00    -0.242 NA
ATOM      3  C   UNL     1      33.446 -22.875 -17.473  0.00  0.00    +0.149 C 
ATOM      4  C   UNL     1      32.254 -23.171 -16.834  0.00  0.00    +0.107 C 
ATOM      5  C   UNL     1      32.346 -23.986 -15.692  0.00  0.00    +0.005 C 
ATOM      6  C   UNL     1      34.713 -24.083 -15.988  0.00  0.00    +0.131 C 
ATOM      7  C   UNL     1      33.595 -24.450 -15.261  0.00  0.00    +0.030 C 
ATOM      8  C   UNL     1      31.161 -24.308 -15.017  0.00  0.00    +0.056 C 
ATOM      9  C   UNL     1      29.944 -23.825 -15.478  0.00  0.00    -0.001 C 
ATOM     10  C   UNL     1      29.956 -23.031 -16.608  0.00  0.00    +0.095 C 
ENDROOT
BRANCH   3  11
ATOM     11  C   UNL     1      33.481 -22.044 -18.659  0.00  0.00    +0.033 C 
ATOM     12  C   UNL     1      34.702 -21.590 -19.154  0.00  0.00    +0.027 C 
ATOM     13  C   UNL     1      32.293 -21.700 -19.302  0.00  0.00    +0.003 C 
ATOM     14  C   UNL     1      34.736 -20.790 -20.296  0.00  0.00    +0.143 C 
ATOM     15  C   UNL     1      32.326 -20.900 -20.445  0.00  0.00    +0.002 C 
ATOM     16  C   UNL     1      33.547 -20.444 -20.941  0.00  0.00    +0.024 C 
BRANCH  14  19
ATOM     17  O   UNL     1      35.976 -19.409 -21.657  0.00  0.00    -0.126 OA
ATOM     18  O   UNL     1      37.035 -20.847 -20.376  0.00  0.00    -0.126 OA
ATOM     19  N   UNL     1      35.979 -20.325 -20.802  0.00  0.00    +0.058 N 
ENDBRANCH  14  19
ENDBRANCH   3  11
BRANCH   6  20
ATOM     20  C   UNL     1      36.032 -24.526 -15.602  0.00  0.00    +0.030 C 
ATOM     21  C   UNL     1      36.234 -25.840 -15.173  0.00  0.00    +0.003 C 
ATOM     22  C   UNL     1      37.111 -23.641 -15.656  0.00  0.00    +0.003 C 
ATOM     23  C   UNL     1      37.509 -26.268 -14.801  0.00  0.00    +0.007 C 
ATOM     24  C   UNL     1      38.387 -24.069 -15.283  0.00  0.00    +0.007 C 
ATOM     25  C   UNL     1      38.585 -25.381 -14.857  0.00  0.00    +0.075 C 
BRANCH  25  27
ATOM     26  O   UNL     1      40.361 -26.967 -14.623  0.00  0.00    -0.245 OA
ATOM     27  C   UNL     1      39.914 -25.825 -14.468  0.00  0.00    +0.338 C 
BRANCH  27  28
ATOM     28  O   UNL     1      40.650 -24.832 -13.898  0.00  0.00    -0.477 OA
ATOM     29  H   UNL     1      41.387 -24.474 -14.353  0.00  0.00    +0.295 HD
ENDBRANCH  27  28
ENDBRANCH  25  27
ENDBRANCH   6  20
TORSDOF 5
ENDMDL
MODEL 5
REMARK VINA RESULT:      -9.7      9.218     14.320
REMARK  Name = 9999276
REMARK  5 active torsions:
REMARK  status: ('A' for Active; 'I' for Inactive)
REMARK    1  A    between atoms: C_3  and  C_11
REMARK    2  A    between atoms: C_6  and  C_20
REMARK    3  A    between atoms: C_14  and  N_19
REMARK    4  A    between atoms: C_25  and  C_27
REMARK    5  A    between atoms: C_27  and  O_28
REMARK                            x       y       z     vdW  Elec       q    Type
REMARK                         _______ _______ _______ _____ _____    ______ ____
ROOT
ATOM      1  N   UNL     1      34.076 -12.882 -23.555  0.00  0.00    -0.400 NA
ATOM      2  N   UNL     1      31.976  -9.963 -22.925  0.00  0.00    -0.242 NA
ATOM      3  C   UNL     1      33.511 -11.653 -23.610  0.00  0.00    +0.149 C 
ATOM      4  C   UNL     1      32.478 -11.207 -22.801  0.00  0.00    +0.107 C 
ATOM      5  C   UNL     1      31.991 -12.123 -21.853  0.00  0.00    +0.005 C 
ATOM      6  C   UNL     1      33.579 -13.729 -22.631  0.00  0.00    +0.131 C 
ATOM      7  C   UNL     1      32.550 -13.405 -21.766  0.00  0.00    +0.030 C 
ATOM      8  C   UNL     1      30.946 -11.711 -21.016  0.00  0.00    +0.056 C 
ATOM      9  C   UNL     1      30.422 -10.430 -21.136  0.00  0.00    -0.001 C 
ATOM     10  C   UNL     1      30.968  -9.603 -22.098  0.00  0.00    +0.095 C 
ENDROOT
BRANCH   3  11
ATOM     11  C   UNL     1      34.098 -10.801 -24.624  0.00  0.00    +0.033 C 
ATOM     12  C   UNL     1      34.380  -9.467 -24.334  0.00  0.00    +0.027 C 
ATOM     13  C   UNL     1      34.377 -11.317 -25.889  0.00  0.00    +0.003 C 
ATOM     14  C   UNL     1      34.945  -8.647 -25.310  0.00  0.00    +0.143 C 
ATOM     15  C   UNL     1      34.942 -10.497 -26.866  0.00  0.00    +0.002 C 
ATOM     16  C   UNL     1      35.225  -9.162 -26.577  0.00  0.00    +0.024 C 
BRANCH  14  19
ATOM     17  O   UNL     1      35.647  -6.995 -23.870  0.00  0.00    -0.126 OA
ATOM     18  O   UNL     1      35.068  -6.429 -25.913  0.00  0.00    -0.126 OA
ATOM     19  N   UNL     1      35.234  -7.288 -25.017  0.00  0.00    +0.058 N 
ENDBRANCH  14  19
ENDBRANCH   3  11
BRANCH   6  20
ATOM     20  C   UNL     1      34.200 -15.031 -22.598  0.00  0.00    +0.030 C 
ATOM     21  C   UNL     1      34.589 -15.655 -23.786  0.00  0.00    +0.003 C 
ATOM     22  C   UNL     1      34.414 -15.674 -21.376  0.00  0.00    +0.003 C 
ATOM     23  C   UNL     1      35.190 -16.913 -23.753  0.00  0.00    +0.007 C 
ATOM     24  C   UNL     1      35.015 -16.933 -21.343  0.00  0.00    +0.007 C 
ATOM     25  C   UNL     1      35.402 -17.552 -22.531  0.00  0.00    +0.075 C 
BRANCH  25  27
ATOM     26  O   UNL     1      35.457 -19.923 -22.215  0.00  0.00    -0.245 OA
ATOM     27  C   UNL     1      36.028 -18.864 -22.495  0.00  0.00    +0.338 C 
BRANCH  27  28
ATOM     28  O   UNL     1      37.351 -18.819 -22.812  0.00  0.00    -0.477 OA
ATOM     29  H   UNL     1      37.799 -17.996 -22.843  0.00  0.00    +0.295 HD
ENDBRANCH  27  28
ENDBRANCH  25  27
ENDBRANCH   6  20
TORSDOF 5
ENDMDL
MODEL 6
REMARK VINA RESULT:      -9.4      2.167      4.574
REMARK  Name = 9999276
REMARK  5 active torsions:
REMARK  status: ('A' for Active; 'I' for Inactive)
REMARK    1  A    between atoms: C_3  and  C_11
REMARK    2  A    between atoms: C_6  and  C_20
REMARK    3  A    between atoms: C_14  and  N_19
REMARK    4  A    between atoms: C_25  and  C_27
REMARK    5  A    between atoms: C_27  and  O_28
REMARK                            x       y       z     vdW  Elec       q    Type
REMARK                         _______ _______ _______ _____ _____    ______ ____
ROOT
ATOM      1  N   UNL     1      34.151 -22.108 -18.177  0.00  0.00    -0.400 NA
ATOM      2  N   UNL     1      35.353 -23.900 -15.233  0.00  0.00    -0.242 NA
ATOM      3  C   UNL     1      34.217 -22.833 -17.036  0.00  0.00    +0.149 C 
ATOM      4  C   UNL     1      35.382 -23.174 -16.367  0.00  0.00    +0.107 C 
ATOM      5  C   UNL     1      36.582 -22.719 -16.940  0.00  0.00    +0.005 C 
ATOM      6  C   UNL     1      35.325 -21.692 -18.691  0.00  0.00    +0.131 C 
ATOM      7  C   UNL     1      36.555 -21.966 -18.120  0.00  0.00    +0.030 C 
ATOM      8  C   UNL     1      37.782 -23.042 -16.294  0.00  0.00    +0.056 C 
ATOM      9  C   UNL     1      37.764 -23.790 -15.124  0.00  0.00    -0.001 C 
ATOM     10  C   UNL     1      36.534 -24.191 -14.639  0.00  0.00    +0.095 C 
ENDROOT
BRANCH   3  11
ATOM     11  C   UNL     1      32.917 -23.242 -16.544  0.00  0.00    +0.033 C 
ATOM     12  C   UNL     1      32.806 -23.854 -15.297  0.00  0.00    +0.027 C 
ATOM     13  C   UNL     1      31.780 -23.025 -17.321  0.00  0.00    +0.003 C 
ATOM     14  C   UNL     1      31.554 -24.248 -14.824  0.00  0.00    +0.143 C 
ATOM     15  C   UNL     1      30.528 -23.419 -16.849  0.00  0.00    +0.002 C 
ATOM     16  C   UNL     1      30.415 -24.032 -15.601  0.00  0.00    +0.024 C 
BRANCH  14  19
ATOM     17  O   UNL     1      32.477 -25.305 -12.999  0.00  0.00    -0.126 OA
ATOM     18  O   UNL     1      30.305 -24.966 -13.029  0.00  0.00    -0.126 OA
ATOM     19  N   UNL     1      31.439 -24.871 -13.553  0.00  0.00    +0.058 N 
ENDBRANCH  14  19
ENDBRANCH   3  11
BRANCH   6  20
ATOM     20  C   UNL     1      35.222 -20.923 -19.909  0.00  0.00    +0.030 C 
ATOM     21  C   UNL     1      36.369 -20.395 -20.506  0.00  0.00    +0.003 C 
ATOM     22  C   UNL     1      33.973 -20.702 -20.493  0.00  0.00    +0.003 C 
ATOM     23  C   UNL     1      36.269 -19.653 -21.682  0.00  0.00    +0.007 C 
ATOM     24  C   UNL     1      33.872 -19.959 -21.671  0.00  0.00    +0.007 C 
ATOM     25  C   UNL     1      35.020 -19.435 -22.264  0.00  0.00    +0.075 C 
BRANCH  25  27
ATOM     26  O   UNL     1      34.132 -18.892 -24.419  0.00  0.00    -0.245 OA
ATOM     27  C   UNL     1      34.914 -18.661 -23.491  0.00  0.00    +0.338 C 
BRANCH  27  28
ATOM     28  O   UNL     1      35.787 -17.617 -23.524  0.00  0.00    -0.477 OA
ATOM     29  H   UNL     1      36.240 -17.358 -22.745  0.00  0.00    +0.295 HD
ENDBRANCH  27  28
ENDBRANCH  25  27
ENDBRANCH   6  20
TORSDOF 5
ENDMDL
