MODEL 1
REMARK VINA RESULT:     -12.2      0.000      0.000
REMARK  Name = 11952989
REMARK  5 active torsions:
REMARK  status: ('A' for Active; 'I' for Inactive)
REMARK    1  A    between atoms: C_4  and  C_21
REMARK    2  A    between atoms: C_6  and  C_11
REMARK    3  A    between atoms: C_24  and  C_27
REMARK    4  A    between atoms: C_27  and  C_29
REMARK    5  A    between atoms: C_29  and  O_30
REMARK                            x       y       z     vdW  Elec       q    Type
REMARK                         _______ _______ _______ _____ _____    ______ ____
ROOT
ATOM      1  N   UNL     1      33.804 -14.605 -25.936  0.00  0.00    -0.297 N 
ATOM      2  N   UNL     1      34.803 -16.767 -25.574  0.00  0.00    -0.229 NA
ATOM      3  C   UNL     1      33.842 -15.339 -23.828  0.00  0.00    +0.033 C 
ATOM      4  C   UNL     1      33.223 -14.061 -23.858  0.00  0.00    +0.017 C 
ATOM      5  C   UNL     1      34.192 -15.649 -25.139  0.00  0.00    +0.132 C 
ATOM      6  C   UNL     1      34.785 -17.458 -23.232  0.00  0.00    +0.019 C 
ATOM      7  C   UNL     1      34.151 -16.283 -22.835  0.00  0.00    +0.004 C 
ATOM      8  C   UNL     1      33.214 -13.635 -25.169  0.00  0.00    +0.063 C 
ATOM      9  C   UNL     1      35.077 -17.640 -24.577  0.00  0.00    +0.100 C 
ATOM     10  H   UNL     1      33.929 -14.559 -26.912  0.00  0.00    +0.154 HD
ENDROOT
BRANCH   6  11
ATOM     11  C   UNL     1      35.131 -18.471 -22.259  0.00  0.00    +0.001 C 
ATOM     12  C   UNL     1      34.456 -20.283 -20.782  0.00  0.00    +0.000 C 
ATOM     13  C   UNL     1      34.138 -19.295 -21.728  0.00  0.00    +0.000 C 
ATOM     14  C   UNL     1      35.802 -20.437 -20.370  0.00  0.00    +0.000 C 
ATOM     15  C   UNL     1      36.453 -18.623 -21.854  0.00  0.00    +0.000 C 
ATOM     16  C   UNL     1      36.788 -19.600 -20.915  0.00  0.00    +0.000 C 
ATOM     17  C   UNL     1      33.470 -21.120 -20.236  0.00  0.00    +0.000 C 
ATOM     18  C   UNL     1      36.120 -21.425 -19.424  0.00  0.00    +0.000 C 
ATOM     19  C   UNL     1      33.806 -22.096 -19.297  0.00  0.00    +0.000 C 
ATOM     20  C   UNL     1      35.128 -22.249 -18.891  0.00  0.00    +0.000 C 
ENDBRANCH   6  11
BRANCH   4  21
ATOM     21  C   UNL     1      32.678 -13.275 -22.790  0.00  0.00    +0.001 C 
ATOM     22  C   UNL     1      32.249 -11.969 -23.031  0.00  0.00    -0.000 C 
ATOM     23  C   UNL     1      32.576 -13.814 -21.507  0.00  0.00    -0.000 C 
ATOM     24  C   UNL     1      31.617 -11.745 -20.710  0.00  0.00    -0.011 C 
ATOM     25  C   UNL     1      31.719 -11.205 -21.992  0.00  0.00    -0.004 C 
ATOM     26  C   UNL     1      32.046 -13.050 -20.467  0.00  0.00    -0.004 C 
BRANCH  24  27
ATOM     27  C   UNL     1      31.047 -10.928 -19.600  0.00  0.00    +0.136 C 
BRANCH  27  29
ATOM     28  O   UNL     1      31.008  -8.498 -19.749  0.00  0.00    -0.250 OA
ATOM     29  C   UNL     1      31.626  -9.529 -19.521  0.00  0.00    +0.318 C 
BRANCH  29  30
ATOM     30  O   UNL     1      32.936  -9.543 -19.161  0.00  0.00    -0.480 OA
ATOM     31  H   UNL     1      33.370  -8.741 -18.940  0.00  0.00    +0.295 HD
ENDBRANCH  29  30
ENDBRANCH  27  29
ENDBRANCH  24  27
ENDBRANCH   4  21
TORSDOF 5
ENDMDL
MODEL 2
REMARK VINA RESULT:     -12.0      7.039     10.684
REMARK  Name = 11952989
REMARK  5 active torsions:
REMARK  status: ('A' for Active; 'I' for Inactive)
REMARK    1  A    between atoms: C_4  and  C_21
REMARK    2  A    between atoms: C_6  and  C_11
REMARK    3  A    between atoms: C_24  and  C_27
REMARK    4  A    between atoms: C_27  and  C_29
REMARK    5  A    between atoms: C_29  and  O_30
REMARK                            x       y       z     vdW  Elec       q    Type
REMARK                         _______ _______ _______ _____ _____    ______ ____
ROOT
ATOM      1  N   UNL     1      32.673 -25.368 -13.999  0.00  0.00    -0.297 N 
ATOM      2  N   UNL     1      34.673 -24.701 -15.164  0.00  0.00    -0.229 NA
ATOM      3  C   UNL     1      32.406 -23.924 -15.681  0.00  0.00    +0.033 C 
ATOM      4  C   UNL     1      31.135 -24.205 -15.111  0.00  0.00    +0.017 C 
ATOM      5  C   UNL     1      33.342 -24.664 -14.965  0.00  0.00    +0.132 C 
ATOM      6  C   UNL     1      34.252 -23.123 -16.978  0.00  0.00    +0.019 C 
ATOM      7  C   UNL     1      32.882 -23.121 -16.730  0.00  0.00    +0.004 C 
ATOM      8  C   UNL     1      31.331 -25.096 -14.078  0.00  0.00    +0.063 C 
ATOM      9  C   UNL     1      35.076 -23.909 -16.185  0.00  0.00    +0.100 C 
ATOM     10  H   UNL     1      33.091 -25.976 -13.347  0.00  0.00    +0.154 HD
ENDROOT
BRANCH   6  11
ATOM     11  C   UNL     1      34.807 -22.318 -18.045  0.00  0.00    +0.001 C 
ATOM     12  C   UNL     1      34.485 -20.974 -20.048  0.00  0.00    +0.000 C 
ATOM     13  C   UNL     1      33.964 -21.758 -19.006  0.00  0.00    +0.000 C 
ATOM     14  C   UNL     1      35.882 -20.755 -20.116  0.00  0.00    +0.000 C 
ATOM     15  C   UNL     1      36.180 -22.103 -18.112  0.00  0.00    +0.000 C 
ATOM     16  C   UNL     1      36.716 -21.326 -19.140  0.00  0.00    +0.000 C 
ATOM     17  C   UNL     1      33.652 -20.403 -21.024  0.00  0.00    +0.000 C 
ATOM     18  C   UNL     1      36.404 -19.972 -21.158  0.00  0.00    +0.000 C 
ATOM     19  C   UNL     1      34.189 -19.628 -22.052  0.00  0.00    +0.000 C 
ATOM     20  C   UNL     1      35.562 -19.412 -22.120  0.00  0.00    +0.000 C 
ENDBRANCH   6  11
BRANCH   4  21
ATOM     21  C   UNL     1      29.836 -23.712 -15.466  0.00  0.00    +0.001 C 
ATOM     22  C   UNL     1      29.396 -22.483 -14.972  0.00  0.00    -0.000 C 
ATOM     23  C   UNL     1      29.010 -24.460 -16.306  0.00  0.00    -0.000 C 
ATOM     24  C   UNL     1      27.308 -22.752 -16.157  0.00  0.00    -0.011 C 
ATOM     25  C   UNL     1      28.133 -22.004 -15.318  0.00  0.00    -0.004 C 
ATOM     26  C   UNL     1      27.747 -23.981 -16.651  0.00  0.00    -0.004 C 
BRANCH  24  27
ATOM     27  C   UNL     1      25.958 -22.237 -16.528  0.00  0.00    +0.136 C 
BRANCH  27  29
ATOM     28  O   UNL     1      25.908 -22.298 -18.962  0.00  0.00    -0.250 OA
ATOM     29  C   UNL     1      25.898 -21.650 -17.924  0.00  0.00    +0.318 C 
BRANCH  29  30
ATOM     30  O   UNL     1      25.830 -20.292 -17.900  0.00  0.00    -0.480 OA
ATOM     31  H   UNL     1      26.215 -19.792 -18.593  0.00  0.00    +0.295 HD
ENDBRANCH  29  30
ENDBRANCH  27  29
ENDBRANCH  24  27
ENDBRANCH   4  21
TORSDOF 5
ENDMDL
MODEL 3
REMARK VINA RESULT:     -11.2      6.681     10.554
REMARK  Name = 11952989
REMARK  5 active torsions:
REMARK  status: ('A' for Active; 'I' for Inactive)
REMARK    1  A    between atoms: C_4  and  C_21
REMARK    2  A    between atoms: C_6  and  C_11
REMARK    3  A    between atoms: C_24  and  C_27
REMARK    4  A    between atoms: C_27  and  C_29
REMARK    5  A    between atoms: C_29  and  O_30
REMARK                            x       y       z     vdW  Elec       q    Type
REMARK                         _______ _______ _______ _____ _____    ______ ____
ROOT
ATOM      1  N   UNL     1      35.924 -24.330 -14.615  0.00  0.00    -0.297 N 
ATOM      2  N   UNL     1      37.305 -23.139 -16.188  0.00  0.00    -0.229 NA
ATOM      3  C   UNL     1      34.855 -23.220 -16.229  0.00  0.00    +0.033 C 
ATOM      4  C   UNL     1      33.896 -23.858 -15.398  0.00  0.00    +0.017 C 
ATOM      5  C   UNL     1      36.109 -23.534 -15.714  0.00  0.00    +0.132 C 
ATOM      6  C   UNL     1      36.022 -21.967 -17.903  0.00  0.00    +0.019 C 
ATOM      7  C   UNL     1      34.811 -22.402 -17.370  0.00  0.00    +0.004 C 
ATOM      8  C   UNL     1      34.584 -24.534 -14.413  0.00  0.00    +0.063 C 
ATOM      9  C   UNL     1      37.204 -22.355 -17.287  0.00  0.00    +0.100 C 
ATOM     10  H   UNL     1      36.645 -24.700 -14.054  0.00  0.00    +0.154 HD
ENDROOT
BRANCH   6  11
ATOM     11  C   UNL     1      36.047 -21.123 -19.078  0.00  0.00    +0.001 C 
ATOM     12  C   UNL     1      34.925 -20.217 -21.038  0.00  0.00    +0.000 C 
ATOM     13  C   UNL     1      34.919 -21.031 -19.893  0.00  0.00    +0.000 C 
ATOM     14  C   UNL     1      36.094 -19.485 -21.359  0.00  0.00    +0.000 C 
ATOM     15  C   UNL     1      37.196 -20.403 -19.393  0.00  0.00    +0.000 C 
ATOM     16  C   UNL     1      37.220 -19.589 -20.526  0.00  0.00    +0.000 C 
ATOM     17  C   UNL     1      33.799 -20.113 -21.870  0.00  0.00    +0.000 C 
ATOM     18  C   UNL     1      36.101 -18.671 -22.503  0.00  0.00    +0.000 C 
ATOM     19  C   UNL     1      33.825 -19.299 -23.003  0.00  0.00    +0.000 C 
ATOM     20  C   UNL     1      34.973 -18.580 -23.320  0.00  0.00    +0.000 C 
ENDBRANCH   6  11
BRANCH   4  21
ATOM     21  C   UNL     1      32.464 -23.865 -15.480  0.00  0.00    +0.001 C 
ATOM     22  C   UNL     1      31.716 -24.613 -14.570  0.00  0.00    -0.000 C 
ATOM     23  C   UNL     1      31.817 -23.122 -16.468  0.00  0.00    -0.000 C 
ATOM     24  C   UNL     1      29.678 -23.876 -15.637  0.00  0.00    -0.011 C 
ATOM     25  C   UNL     1      30.324 -24.619 -14.649  0.00  0.00    -0.004 C 
ATOM     26  C   UNL     1      30.425 -23.128 -16.547  0.00  0.00    -0.004 C 
BRANCH  24  27
ATOM     27  C   UNL     1      28.188 -23.881 -15.720  0.00  0.00    +0.136 C 
BRANCH  27  29
ATOM     28  O   UNL     1      27.432 -21.885 -16.892  0.00  0.00    -0.250 OA
ATOM     29  C   UNL     1      27.645 -23.090 -16.893  0.00  0.00    +0.318 C 
BRANCH  29  30
ATOM     30  O   UNL     1      27.413 -23.881 -17.973  0.00  0.00    -0.480 OA
ATOM     31  H   UNL     1      27.382 -24.813 -17.874  0.00  0.00    +0.295 HD
ENDBRANCH  29  30
ENDBRANCH  27  29
ENDBRANCH  24  27
ENDBRANCH   4  21
TORSDOF 5
ENDMDL
MODEL 4
REMARK VINA RESULT:     -11.0      5.408     10.954
REMARK  Name = 11952989
REMARK  5 active torsions:
REMARK  status: ('A' for Active; 'I' for Inactive)
REMARK    1  A    between atoms: C_4  and  C_21
REMARK    2  A    between atoms: C_6  and  C_11
REMARK    3  A    between atoms: C_24  and  C_27
REMARK    4  A    between atoms: C_27  and  C_29
REMARK    5  A    between atoms: C_29  and  O_30
REMARK                            x       y       z     vdW  Elec       q    Type
REMARK                         _______ _______ _______ _____ _____    ______ ____
ROOT
ATOM      1  N   UNL     1      30.995 -11.332 -20.317  0.00  0.00    -0.297 N 
ATOM      2  N   UNL     1      31.228  -9.004 -20.887  0.00  0.00    -0.229 NA
ATOM      3  C   UNL     1      32.280 -10.868 -22.083  0.00  0.00    +0.033 C 
ATOM      4  C   UNL     1      32.252 -12.275 -21.892  0.00  0.00    +0.017 C 
ATOM      5  C   UNL     1      31.486 -10.310 -21.085  0.00  0.00    +0.132 C 
ATOM      6  C   UNL     1      32.654  -8.625 -22.832  0.00  0.00    +0.019 C 
ATOM      7  C   UNL     1      32.888  -9.988 -22.993  0.00  0.00    +0.004 C 
ATOM      8  C   UNL     1      31.454 -12.531 -20.798  0.00  0.00    +0.063 C 
ATOM      9  C   UNL     1      31.839  -8.203 -21.791  0.00  0.00    +0.100 C 
ATOM     10  H   UNL     1      30.402 -11.223 -19.538  0.00  0.00    +0.154 HD
ENDROOT
BRANCH   6  11
ATOM     11  C   UNL     1      33.251  -7.665 -23.735  0.00  0.00    +0.001 C 
ATOM     12  C   UNL     1      33.006  -5.822 -25.304  0.00  0.00    +0.000 C 
ATOM     13  C   UNL     1      32.443  -6.759 -24.423  0.00  0.00    +0.000 C 
ATOM     14  C   UNL     1      34.410  -5.803 -25.490  0.00  0.00    +0.000 C 
ATOM     15  C   UNL     1      34.631  -7.647 -23.918  0.00  0.00    +0.000 C 
ATOM     16  C   UNL     1      35.208  -6.722 -24.789  0.00  0.00    +0.000 C 
ATOM     17  C   UNL     1      32.208  -4.903 -26.005  0.00  0.00    +0.000 C 
ATOM     18  C   UNL     1      34.973  -4.866 -26.371  0.00  0.00    +0.000 C 
ATOM     19  C   UNL     1      32.787  -3.979 -26.876  0.00  0.00    +0.000 C 
ATOM     20  C   UNL     1      34.166  -3.960 -27.059  0.00  0.00    +0.000 C 
ENDBRANCH   6  11
BRANCH   4  21
ATOM     21  C   UNL     1      32.897 -13.319 -22.635  0.00  0.00    +0.001 C 
ATOM     22  C   UNL     1      33.790 -14.182 -21.998  0.00  0.00    -0.000 C 
ATOM     23  C   UNL     1      32.631 -13.475 -23.996  0.00  0.00    -0.000 C 
ATOM     24  C   UNL     1      34.149 -15.351 -24.081  0.00  0.00    -0.011 C 
ATOM     25  C   UNL     1      34.415 -15.197 -22.721  0.00  0.00    -0.004 C 
ATOM     26  C   UNL     1      33.257 -14.490 -24.719  0.00  0.00    -0.004 C 
BRANCH  24  27
ATOM     27  C   UNL     1      34.818 -16.439 -24.853  0.00  0.00    +0.136 C 
BRANCH  27  29
ATOM     28  O   UNL     1      34.530 -18.729 -24.077  0.00  0.00    -0.250 OA
ATOM     29  C   UNL     1      34.122 -17.780 -24.733  0.00  0.00    +0.318 C 
BRANCH  29  30
ATOM     30  O   UNL     1      32.967 -17.818 -25.449  0.00  0.00    -0.480 OA
ATOM     31  H   UNL     1      32.708 -18.610 -25.879  0.00  0.00    +0.295 HD
ENDBRANCH  29  30
ENDBRANCH  27  29
ENDBRANCH  24  27
ENDBRANCH   4  21
TORSDOF 5
ENDMDL
MODEL 5
REMARK VINA RESULT:     -10.9      6.980     11.037
REMARK  Name = 11952989
REMARK  5 active torsions:
REMARK  status: ('A' for Active; 'I' for Inactive)
REMARK    1  A    between atoms: C_4  and  C_21
REMARK    2  A    between atoms: C_6  and  C_11
REMARK    3  A    between atoms: C_24  and  C_27
REMARK    4  A    between atoms: C_27  and  C_29
REMARK    5  A    between atoms: C_29  and  O_30
REMARK                            x       y       z     vdW  Elec       q    Type
REMARK                         _______ _______ _______ _____ _____    ______ ____
ROOT
ATOM      1  N   UNL     1      36.311 -24.062 -14.557  0.00  0.00    -0.297 N 
ATOM      2  N   UNL     1      37.342 -22.810 -16.338  0.00  0.00    -0.229 NA
ATOM      3  C   UNL     1      34.945 -23.290 -16.145  0.00  0.00    +0.033 C 
ATOM      4  C   UNL     1      34.177 -23.997 -15.182  0.00  0.00    +0.017 C 
ATOM      5  C   UNL     1      36.271 -23.349 -15.726  0.00  0.00    +0.132 C 
ATOM      6  C   UNL     1      35.748 -22.020 -18.010  0.00  0.00    +0.019 C 
ATOM      7  C   UNL     1      34.674 -22.596 -17.335  0.00  0.00    +0.004 C 
ATOM      8  C   UNL     1      35.045 -24.461 -14.217  0.00  0.00    +0.063 C 
ATOM      9  C   UNL     1      37.023 -22.155 -17.479  0.00  0.00    +0.100 C 
ATOM     10  H   UNL     1      37.126 -24.259 -14.039  0.00  0.00    +0.154 HD
ENDROOT
BRANCH   6  11
ATOM     11  C   UNL     1      35.536 -21.293 -19.242  0.00  0.00    +0.001 C 
ATOM     12  C   UNL     1      36.377 -19.806 -20.975  0.00  0.00    +0.000 C 
ATOM     13  C   UNL     1      36.565 -20.519 -19.780  0.00  0.00    +0.000 C 
ATOM     14  C   UNL     1      35.127 -19.880 -21.635  0.00  0.00    +0.000 C 
ATOM     15  C   UNL     1      34.307 -21.365 -19.891  0.00  0.00    +0.000 C 
ATOM     16  C   UNL     1      34.102 -20.664 -21.079  0.00  0.00    +0.000 C 
ATOM     17  C   UNL     1      37.402 -19.022 -21.530  0.00  0.00    +0.000 C 
ATOM     18  C   UNL     1      34.938 -19.167 -22.830  0.00  0.00    +0.000 C 
ATOM     19  C   UNL     1      37.195 -18.321 -22.719  0.00  0.00    +0.000 C 
ATOM     20  C   UNL     1      35.967 -18.393 -23.368  0.00  0.00    +0.000 C 
ENDBRANCH   6  11
BRANCH   4  21
ATOM     21  C   UNL     1      32.765 -24.243 -15.129  0.00  0.00    +0.001 C 
ATOM     22  C   UNL     1      31.912 -23.617 -16.040  0.00  0.00    -0.000 C 
ATOM     23  C   UNL     1      32.241 -25.108 -14.168  0.00  0.00    -0.000 C 
ATOM     24  C   UNL     1      30.017 -24.722 -15.027  0.00  0.00    -0.011 C 
ATOM     25  C   UNL     1      30.539 -23.857 -15.988  0.00  0.00    -0.004 C 
ATOM     26  C   UNL     1      30.869 -25.348 -14.116  0.00  0.00    -0.004 C 
BRANCH  24  27
ATOM     27  C   UNL     1      28.549 -24.980 -14.974  0.00  0.00    +0.136 C 
BRANCH  27  29
ATOM     28  O   UNL     1      27.677 -24.777 -17.239  0.00  0.00    -0.250 OA
ATOM     29  C   UNL     1      27.780 -24.327 -16.106  0.00  0.00    +0.318 C 
BRANCH  29  30
ATOM     30  O   UNL     1      27.202 -23.160 -15.719  0.00  0.00    -0.480 OA
ATOM     31  H   UNL     1      27.483 -22.349 -16.098  0.00  0.00    +0.295 HD
ENDBRANCH  29  30
ENDBRANCH  27  29
ENDBRANCH  24  27
ENDBRANCH   4  21
TORSDOF 5
ENDMDL
MODEL 6
REMARK VINA RESULT:     -10.5      5.229     10.936
REMARK  Name = 11952989
REMARK  5 active torsions:
REMARK  status: ('A' for Active; 'I' for Inactive)
REMARK    1  A    between atoms: C_4  and  C_21
REMARK    2  A    between atoms: C_6  and  C_11
REMARK    3  A    between atoms: C_24  and  C_27
REMARK    4  A    between atoms: C_27  and  C_29
REMARK    5  A    between atoms: C_29  and  O_30
REMARK                            x       y       z     vdW  Elec       q    Type
REMARK                         _______ _______ _______ _____ _____    ______ ____
ROOT
ATOM      1  N   UNL     1      31.400 -11.490 -19.676  0.00  0.00    -0.297 N 
ATOM      2  N   UNL     1      31.176  -9.164 -20.261  0.00  0.00    -0.229 NA
ATOM      3  C   UNL     1      32.125 -10.903 -21.705  0.00  0.00    +0.033 C 
ATOM      4  C   UNL     1      32.331 -12.298 -21.529  0.00  0.00    +0.017 C 
ATOM      5  C   UNL     1      31.543 -10.430 -20.532  0.00  0.00    +0.132 C 
ATOM      6  C   UNL     1      32.002  -8.648 -22.499  0.00  0.00    +0.019 C 
ATOM      7  C   UNL     1      32.363  -9.973 -22.730  0.00  0.00    +0.004 C 
ATOM      8  C   UNL     1      31.875 -12.630 -20.271  0.00  0.00    +0.063 C 
ATOM      9  C   UNL     1      31.428  -8.312 -21.281  0.00  0.00    +0.100 C 
ATOM     10  H   UNL     1      31.014 -11.441 -18.771  0.00  0.00    +0.154 HD
ENDROOT
BRANCH   6  11
ATOM     11  C   UNL     1      32.221  -7.640 -23.514  0.00  0.00    +0.001 C 
ATOM     12  C   UNL     1      33.750  -6.359 -24.906  0.00  0.00    +0.000 C 
ATOM     13  C   UNL     1      33.519  -7.334 -23.923  0.00  0.00    +0.000 C 
ATOM     14  C   UNL     1      32.647  -5.684 -25.483  0.00  0.00    +0.000 C 
ATOM     15  C   UNL     1      31.137  -6.977 -24.081  0.00  0.00    +0.000 C 
ATOM     16  C   UNL     1      31.347  -6.005 -25.060  0.00  0.00    +0.000 C 
ATOM     17  C   UNL     1      35.050  -6.037 -25.330  0.00  0.00    +0.000 C 
ATOM     18  C   UNL     1      32.878  -4.708 -26.466  0.00  0.00    +0.000 C 
ATOM     19  C   UNL     1      35.259  -5.064 -26.308  0.00  0.00    +0.000 C 
ATOM     20  C   UNL     1      34.176  -4.401 -26.876  0.00  0.00    +0.000 C 
ENDBRANCH   6  11
BRANCH   4  21
ATOM     21  C   UNL     1      32.897 -13.266 -22.422  0.00  0.00    +0.001 C 
ATOM     22  C   UNL     1      33.832 -14.189 -21.952  0.00  0.00    -0.000 C 
ATOM     23  C   UNL     1      32.512 -13.289 -23.764  0.00  0.00    -0.000 C 
ATOM     24  C   UNL     1      33.997 -15.152 -24.161  0.00  0.00    -0.011 C 
ATOM     25  C   UNL     1      34.382 -15.130 -22.821  0.00  0.00    -0.004 C 
ATOM     26  C   UNL     1      33.062 -14.230 -24.633  0.00  0.00    -0.004 C 
BRANCH  24  27
ATOM     27  C   UNL     1      34.584 -16.161 -25.090  0.00  0.00    +0.136 C 
BRANCH  27  29
ATOM     28  O   UNL     1      34.737 -18.404 -24.153  0.00  0.00    -0.250 OA
ATOM     29  C   UNL     1      34.121 -17.578 -24.813  0.00  0.00    +0.318 C 
BRANCH  29  30
ATOM     30  O   UNL     1      32.918 -17.839 -25.389  0.00  0.00    -0.480 OA
ATOM     31  H   UNL     1      32.767 -18.667 -25.803  0.00  0.00    +0.295 HD
ENDBRANCH  29  30
ENDBRANCH  27  29
ENDBRANCH  24  27
ENDBRANCH   4  21
TORSDOF 5
ENDMDL
MODEL 7
REMARK VINA RESULT:     -10.4      6.294     10.079
REMARK  Name = 11952989
REMARK  5 active torsions:
REMARK  status: ('A' for Active; 'I' for Inactive)
REMARK    1  A    between atoms: C_4  and  C_21
REMARK    2  A    between atoms: C_6  and  C_11
REMARK    3  A    between atoms: C_24  and  C_27
REMARK    4  A    between atoms: C_27  and  C_29
REMARK    5  A    between atoms: C_29  and  O_30
REMARK                            x       y       z     vdW  Elec       q    Type
REMARK                         _______ _______ _______ _____ _____    ______ ____
ROOT
ATOM      1  N   UNL     1      30.596 -23.137 -16.776  0.00  0.00    -0.297 N 
ATOM      2  N   UNL     1      31.719 -24.307 -14.995  0.00  0.00    -0.229 NA
ATOM      3  C   UNL     1      32.827 -23.163 -16.859  0.00  0.00    +0.033 C 
ATOM      4  C   UNL     1      32.334 -22.435 -17.975  0.00  0.00    +0.017 C 
ATOM      5  C   UNL     1      31.718 -23.586 -16.131  0.00  0.00    +0.132 C 
ATOM      6  C   UNL     1      34.151 -24.264 -15.196  0.00  0.00    +0.019 C 
ATOM      7  C   UNL     1      34.094 -23.517 -16.370  0.00  0.00    +0.004 C 
ATOM      8  C   UNL     1      30.958 -22.437 -17.897  0.00  0.00    +0.063 C 
ATOM      9  C   UNL     1      32.965 -24.620 -14.570  0.00  0.00    +0.100 C 
ATOM     10  H   UNL     1      29.669 -23.293 -16.479  0.00  0.00    +0.154 HD
ENDROOT
BRANCH   6  11
ATOM     11  C   UNL     1      35.426 -24.662 -14.639  0.00  0.00    +0.001 C 
ATOM     12  C   UNL     1      37.817 -25.019 -14.911  0.00  0.00    +0.000 C 
ATOM     13  C   UNL     1      36.572 -24.635 -15.435  0.00  0.00    +0.000 C 
ATOM     14  C   UNL     1      37.901 -25.436 -13.560  0.00  0.00    +0.000 C 
ATOM     15  C   UNL     1      35.508 -25.072 -13.312  0.00  0.00    +0.000 C 
ATOM     16  C   UNL     1      36.737 -25.456 -12.775  0.00  0.00    +0.000 C 
ATOM     17  C   UNL     1      38.981 -24.998 -15.697  0.00  0.00    +0.000 C 
ATOM     18  C   UNL     1      39.146 -25.819 -13.036  0.00  0.00    +0.000 C 
ATOM     19  C   UNL     1      40.210 -25.383 -15.158  0.00  0.00    +0.000 C 
ATOM     20  C   UNL     1      40.293 -25.792 -13.831  0.00  0.00    +0.000 C 
ENDBRANCH   6  11
BRANCH   4  21
ATOM     21  C   UNL     1      33.044 -21.786 -19.038  0.00  0.00    +0.001 C 
ATOM     22  C   UNL     1      34.408 -22.023 -19.216  0.00  0.00    -0.000 C 
ATOM     23  C   UNL     1      32.372 -20.916 -19.898  0.00  0.00    -0.000 C 
ATOM     24  C   UNL     1      34.425 -20.522 -21.109  0.00  0.00    -0.011 C 
ATOM     25  C   UNL     1      35.097 -21.392 -20.250  0.00  0.00    -0.004 C 
ATOM     26  C   UNL     1      33.062 -20.284 -20.933  0.00  0.00    -0.004 C 
BRANCH  24  27
ATOM     27  C   UNL     1      35.163 -19.849 -22.216  0.00  0.00    +0.136 C 
BRANCH  27  29
ATOM     28  O   UNL     1      35.477 -17.797 -20.944  0.00  0.00    -0.250 OA
ATOM     29  C   UNL     1      35.884 -18.588 -21.783  0.00  0.00    +0.318 C 
BRANCH  29  30
ATOM     30  O   UNL     1      37.062 -18.426 -22.443  0.00  0.00    -0.480 OA
ATOM     31  H   UNL     1      37.848 -18.253 -21.962  0.00  0.00    +0.295 HD
ENDBRANCH  29  30
ENDBRANCH  27  29
ENDBRANCH  24  27
ENDBRANCH   4  21
TORSDOF 5
ENDMDL
MODEL 8
REMARK VINA RESULT:     -10.1      4.827      7.220
REMARK  Name = 11952989
REMARK  5 active torsions:
REMARK  status: ('A' for Active; 'I' for Inactive)
REMARK    1  A    between atoms: C_4  and  C_21
REMARK    2  A    between atoms: C_6  and  C_11
REMARK    3  A    between atoms: C_24  and  C_27
REMARK    4  A    between atoms: C_27  and  C_29
REMARK    5  A    between atoms: C_29  and  O_30
REMARK                            x       y       z     vdW  Elec       q    Type
REMARK                         _______ _______ _______ _____ _____    ______ ____
ROOT
ATOM      1  N   UNL     1      31.090  -8.700 -20.808  0.00  0.00    -0.297 N 
ATOM      2  N   UNL     1      31.151 -11.107 -20.765  0.00  0.00    -0.229 NA
ATOM      3  C   UNL     1      32.330  -9.688 -22.380  0.00  0.00    +0.033 C 
ATOM      4  C   UNL     1      32.408  -8.280 -22.551  0.00  0.00    +0.017 C 
ATOM      5  C   UNL     1      31.502  -9.916 -21.285  0.00  0.00    +0.132 C 
ATOM      6  C   UNL     1      32.538 -12.069 -22.529  0.00  0.00    +0.019 C 
ATOM      7  C   UNL     1      32.870 -10.811 -23.027  0.00  0.00    +0.004 C 
ATOM      8  C   UNL     1      31.634  -7.698 -21.570  0.00  0.00    +0.063 C 
ATOM      9  C   UNL     1      31.699 -12.153 -21.427  0.00  0.00    +0.100 C 
ATOM     10  H   UNL     1      30.494  -8.564 -20.036  0.00  0.00    +0.154 HD
ENDROOT
BRANCH   6  11
ATOM     11  C   UNL     1      33.060 -13.266 -23.151  0.00  0.00    +0.001 C 
ATOM     12  C   UNL     1      34.227 -15.393 -22.963  0.00  0.00    +0.000 C 
ATOM     13  C   UNL     1      33.714 -14.225 -22.376  0.00  0.00    +0.000 C 
ATOM     14  C   UNL     1      34.074 -15.591 -24.356  0.00  0.00    +0.000 C 
ATOM     15  C   UNL     1      32.910 -13.461 -24.520  0.00  0.00    +0.000 C 
ATOM     16  C   UNL     1      33.413 -14.616 -25.121  0.00  0.00    +0.000 C 
ATOM     17  C   UNL     1      34.888 -16.369 -22.198  0.00  0.00    +0.000 C 
ATOM     18  C   UNL     1      34.588 -16.759 -24.943  0.00  0.00    +0.000 C 
ATOM     19  C   UNL     1      35.391 -17.523 -22.800  0.00  0.00    +0.000 C 
ATOM     20  C   UNL     1      35.242 -17.718 -24.169  0.00  0.00    +0.000 C 
ENDBRANCH   6  11
BRANCH   4  21
ATOM     21  C   UNL     1      33.122  -7.508 -23.526  0.00  0.00    +0.001 C 
ATOM     22  C   UNL     1      34.517  -7.471 -23.502  0.00  0.00    -0.000 C 
ATOM     23  C   UNL     1      32.424  -6.794 -24.501  0.00  0.00    -0.000 C 
ATOM     24  C   UNL     1      34.513  -6.007 -25.424  0.00  0.00    -0.011 C 
ATOM     25  C   UNL     1      35.211  -6.720 -24.451  0.00  0.00    -0.004 C 
ATOM     26  C   UNL     1      33.118  -6.044 -25.449  0.00  0.00    -0.004 C 
BRANCH  24  27
ATOM     27  C   UNL     1      35.257  -5.207 -26.440  0.00  0.00    +0.136 C 
BRANCH  27  29
ATOM     28  O   UNL     1      33.974  -3.144 -26.269  0.00  0.00    -0.250 OA
ATOM     29  C   UNL     1      34.476  -4.018 -26.963  0.00  0.00    +0.318 C 
BRANCH  29  30
ATOM     30  O   UNL     1      34.391  -4.025 -28.320  0.00  0.00    -0.480 OA
ATOM     31  H   UNL     1      34.812  -4.703 -28.812  0.00  0.00    +0.295 HD
ENDBRANCH  29  30
ENDBRANCH  27  29
ENDBRANCH  24  27
ENDBRANCH   4  21
TORSDOF 5
ENDMDL
MODEL 9
REMARK VINA RESULT:      -9.4      1.392      2.621
REMARK  Name = 11952989
REMARK  5 active torsions:
REMARK  status: ('A' for Active; 'I' for Inactive)
REMARK    1  A    between atoms: C_4  and  C_21
REMARK    2  A    between atoms: C_6  and  C_11
REMARK    3  A    between atoms: C_24  and  C_27
REMARK    4  A    between atoms: C_27  and  C_29
REMARK    5  A    between atoms: C_29  and  O_30
REMARK                            x       y       z     vdW  Elec       q    Type
REMARK                         _______ _______ _______ _____ _____    ______ ____
ROOT
ATOM      1  N   UNL     1      35.320 -16.785 -25.125  0.00  0.00    -0.297 N 
ATOM      2  N   UNL     1      35.624 -19.026 -24.294  0.00  0.00    -0.229 NA
ATOM      3  C   UNL     1      34.567 -17.188 -23.062  0.00  0.00    +0.033 C 
ATOM      4  C   UNL     1      34.307 -15.830 -23.390  0.00  0.00    +0.017 C 
ATOM      5  C   UNL     1      35.198 -17.755 -24.165  0.00  0.00    +0.132 C 
ATOM      6  C   UNL     1      34.760 -19.341 -22.032  0.00  0.00    +0.019 C 
ATOM      7  C   UNL     1      34.339 -18.016 -21.951  0.00  0.00    +0.004 C 
ATOM      8  C   UNL     1      34.782 -15.612 -24.665  0.00  0.00    +0.063 C 
ATOM      9  C   UNL     1      35.379 -19.777 -23.195  0.00  0.00    +0.100 C 
ATOM     10  H   UNL     1      35.731 -16.912 -26.012  0.00  0.00    +0.154 HD
ENDROOT
BRANCH   6  11
ATOM     11  C   UNL     1      34.556 -20.246 -20.922  0.00  0.00    +0.001 C 
ATOM     12  C   UNL     1      35.450 -21.476 -19.023  0.00  0.00    +0.000 C 
ATOM     13  C   UNL     1      35.630 -20.598 -20.104  0.00  0.00    +0.000 C 
ATOM     14  C   UNL     1      34.161 -22.003 -18.767  0.00  0.00    +0.000 C 
ATOM     15  C   UNL     1      33.289 -20.763 -20.671  0.00  0.00    +0.000 C 
ATOM     16  C   UNL     1      33.091 -21.636 -19.600  0.00  0.00    +0.000 C 
ATOM     17  C   UNL     1      36.520 -21.842 -18.190  0.00  0.00    +0.000 C 
ATOM     18  C   UNL     1      33.981 -22.880 -17.685  0.00  0.00    +0.000 C 
ATOM     19  C   UNL     1      36.321 -22.716 -17.120  0.00  0.00    +0.000 C 
ATOM     20  C   UNL     1      35.054 -23.234 -16.868  0.00  0.00    +0.000 C 
ENDBRANCH   6  11
BRANCH   4  21
ATOM     21  C   UNL     1      33.679 -14.799 -22.615  0.00  0.00    +0.001 C 
ATOM     22  C   UNL     1      32.940 -13.800 -23.250  0.00  0.00    -0.000 C 
ATOM     23  C   UNL     1      33.807 -14.793 -21.225  0.00  0.00    -0.000 C 
ATOM     24  C   UNL     1      32.457 -12.793 -21.108  0.00  0.00    -0.011 C 
ATOM     25  C   UNL     1      32.330 -12.798 -22.497  0.00  0.00    -0.004 C 
ATOM     26  C   UNL     1      33.196 -13.791 -20.472  0.00  0.00    -0.004 C 
BRANCH  24  27
ATOM     27  C   UNL     1      31.802 -11.722 -20.303  0.00  0.00    +0.136 C 
BRANCH  27  29
ATOM     28  O   UNL     1      31.387  -9.680 -21.564  0.00  0.00    -0.250 OA
ATOM     29  C   UNL     1      30.985 -10.754 -21.136  0.00  0.00    +0.318 C 
BRANCH  29  30
ATOM     30  O   UNL     1      29.727 -11.217 -21.363  0.00  0.00    -0.480 OA
ATOM     31  H   UNL     1      29.583 -12.133 -21.501  0.00  0.00    +0.295 HD
ENDBRANCH  29  30
ENDBRANCH  27  29
ENDBRANCH  24  27
ENDBRANCH   4  21
TORSDOF 5
ENDMDL
