MODEL 1
REMARK VINA RESULT:     -11.4      0.000      0.000
REMARK  Name = 11507920
REMARK  4 active torsions:
REMARK  status: ('A' for Active; 'I' for Inactive)
REMARK    1  A    between atoms: C_1  and  C_8
REMARK    2  A    between atoms: C_2  and  C_17
REMARK    3  A    between atoms: C_17  and  N_18
REMARK    4  A    between atoms: N_18  and  C_21
REMARK                            x       y       z     vdW  Elec       q    Type
REMARK                         _______ _______ _______ _____ _____    ______ ____
ROOT
ATOM      1  C   UNL     1      35.028 -20.136 -21.027  0.00  0.00    -0.000 C 
ATOM      2  C   UNL     1      34.083 -21.735 -19.482  0.00  0.00    -0.003 C 
ATOM      3  C   UNL     1      33.916 -20.785 -20.490  0.00  0.00    -0.003 C 
ATOM      4  C   UNL     1      36.306 -20.435 -20.558  0.00  0.00    -0.000 C 
ATOM      5  C   UNL     1      35.362 -22.035 -19.012  0.00  0.00    -0.003 C 
ATOM      6  C   UNL     1      36.474 -21.385 -19.549  0.00  0.00    -0.000 C 
ENDROOT
BRANCH   1   8
ATOM      7  N   UNL     1      34.807 -15.493 -22.777  0.00  0.00    -0.312 N 
ATOM      8  C   UNL     1      34.854 -19.148 -22.072  0.00  0.00    +0.001 C 
ATOM      9  C   UNL     1      34.771 -16.869 -22.793  0.00  0.00    +0.048 C 
ATOM     10  C   UNL     1      34.513 -17.258 -24.109  0.00  0.00    +0.015 C 
ATOM     11  C   UNL     1      34.945 -17.790 -21.754  0.00  0.00    +0.015 C 
ATOM     12  C   UNL     1      34.597 -19.566 -23.376  0.00  0.00    +0.000 C 
ATOM     13  C   UNL     1      34.424 -18.633 -24.406  0.00  0.00    +0.001 C 
ATOM     14  C   UNL     1      34.396 -16.068 -24.880  0.00  0.00    +0.017 C 
ATOM     15  C   UNL     1      34.581 -15.001 -24.033  0.00  0.00    +0.062 C 
ATOM     16  H   UNL     1      34.971 -14.943 -21.977  0.00  0.00    +0.152 HD
ENDBRANCH   1   8
BRANCH   2  17
ATOM     17  C   UNL     1      32.896 -22.430 -18.907  0.00  0.00    +0.114 C 
BRANCH  17  18
ATOM     18  N   UNL     1      33.261 -23.393 -17.900  0.00  0.00    -0.327 N 
ATOM     19  H   UNL     1      33.950 -24.060 -18.123  0.00  0.00    +0.147 HD
BRANCH  18  21
ATOM     20  N   UNL     1      32.906 -23.846 -14.241  0.00  0.00    -0.228 NA
ATOM     21  C   UNL     1      32.697 -23.436 -16.632  0.00  0.00    +0.077 C 
ATOM     22  C   UNL     1      33.419 -23.793 -15.491  0.00  0.00    +0.139 C 
ATOM     23  C   UNL     1      31.348 -23.111 -16.442  0.00  0.00    +0.019 C 
ATOM     24  C   UNL     1      30.785 -23.154 -15.172  0.00  0.00    +0.022 C 
ATOM     25  C   UNL     1      31.599 -23.524 -14.113  0.00  0.00    +0.100 C 
ATOM     26  N   UNL     1      34.786 -24.128 -15.657  0.00  0.00    -0.342 N 
ATOM     27  H   UNL     1      35.328 -24.385 -14.876  0.00  0.00    +0.144 HD
ATOM     28  H   UNL     1      35.195 -24.101 -16.552  0.00  0.00    +0.144 HD
ENDBRANCH  18  21
ENDBRANCH  17  18
ENDBRANCH   2  17
TORSDOF 4
ENDMDL
MODEL 2
REMARK VINA RESULT:     -11.4      2.363      9.024
REMARK  Name = 11507920
REMARK  4 active torsions:
REMARK  status: ('A' for Active; 'I' for Inactive)
REMARK    1  A    between atoms: C_1  and  C_8
REMARK    2  A    between atoms: C_2  and  C_17
REMARK    3  A    between atoms: C_17  and  N_18
REMARK    4  A    between atoms: N_18  and  C_21
REMARK                            x       y       z     vdW  Elec       q    Type
REMARK                         _______ _______ _______ _____ _____    ______ ____
ROOT
ATOM      1  C   UNL     1      34.615 -19.109 -22.136  0.00  0.00    -0.000 C 
ATOM      2  C   UNL     1      34.769 -16.791 -22.801  0.00  0.00    -0.003 C 
ATOM      3  C   UNL     1      34.739 -17.762 -21.799  0.00  0.00    -0.003 C 
ATOM      4  C   UNL     1      34.519 -19.488 -23.475  0.00  0.00    -0.000 C 
ATOM      5  C   UNL     1      34.673 -17.170 -24.140  0.00  0.00    -0.003 C 
ATOM      6  C   UNL     1      34.548 -18.518 -24.477  0.00  0.00    -0.000 C 
ENDROOT
BRANCH   1   8
ATOM      7  N   UNL     1      32.323 -22.167 -18.965  0.00  0.00    -0.312 N 
ATOM      8  C   UNL     1      34.583 -20.115 -21.096  0.00  0.00    +0.001 C 
ATOM      9  C   UNL     1      33.365 -21.543 -19.613  0.00  0.00    +0.048 C 
ATOM     10  C   UNL     1      34.548 -22.061 -19.083  0.00  0.00    +0.015 C 
ATOM     11  C   UNL     1      33.351 -20.571 -20.619  0.00  0.00    +0.015 C 
ATOM     12  C   UNL     1      35.780 -20.614 -20.585  0.00  0.00    +0.000 C 
ATOM     13  C   UNL     1      35.779 -21.586 -19.578  0.00  0.00    +0.001 C 
ATOM     14  C   UNL     1      34.179 -23.017 -18.095  0.00  0.00    +0.017 C 
ATOM     15  C   UNL     1      32.806 -23.058 -18.045  0.00  0.00    +0.062 C 
ATOM     16  H   UNL     1      31.369 -21.996 -19.137  0.00  0.00    +0.152 HD
ENDBRANCH   1   8
BRANCH   2  17
ATOM     17  C   UNL     1      34.901 -15.350 -22.442  0.00  0.00    +0.114 C 
BRANCH  17  18
ATOM     18  N   UNL     1      34.000 -14.514 -23.193  0.00  0.00    -0.327 N 
ATOM     19  H   UNL     1      33.959 -14.636 -24.169  0.00  0.00    +0.147 HD
BRANCH  18  21
ATOM     20  N   UNL     1      32.173 -11.334 -22.680  0.00  0.00    -0.228 NA
ATOM     21  C   UNL     1      33.185 -13.547 -22.620  0.00  0.00    +0.077 C 
ATOM     22  C   UNL     1      32.959 -12.300 -23.205  0.00  0.00    +0.139 C 
ATOM     23  C   UNL     1      32.540 -13.792 -21.401  0.00  0.00    +0.019 C 
ATOM     24  C   UNL     1      31.724 -12.822 -20.829  0.00  0.00    +0.022 C 
ATOM     25  C   UNL     1      31.574 -11.621 -21.502  0.00  0.00    +0.100 C 
ATOM     26  N   UNL     1      33.602 -12.028 -24.439  0.00  0.00    -0.342 N 
ATOM     27  H   UNL     1      33.467 -11.160 -24.883  0.00  0.00    +0.144 HD
ATOM     28  H   UNL     1      34.182 -12.707 -24.853  0.00  0.00    +0.144 HD
ENDBRANCH  18  21
ENDBRANCH  17  18
ENDBRANCH   2  17
TORSDOF 4
ENDMDL
MODEL 3
REMARK VINA RESULT:     -10.9      1.618      8.617
REMARK  Name = 11507920
REMARK  4 active torsions:
REMARK  status: ('A' for Active; 'I' for Inactive)
REMARK    1  A    between atoms: C_1  and  C_8
REMARK    2  A    between atoms: C_2  and  C_17
REMARK    3  A    between atoms: C_17  and  N_18
REMARK    4  A    between atoms: N_18  and  C_21
REMARK                            x       y       z     vdW  Elec       q    Type
REMARK                         _______ _______ _______ _____ _____    ______ ____
ROOT
ATOM      1  C   UNL     1      35.227 -19.976 -21.092  0.00  0.00    -0.000 C 
ATOM      2  C   UNL     1      35.342 -18.557 -23.044  0.00  0.00    -0.003 C 
ATOM      3  C   UNL     1      34.604 -19.368 -22.181  0.00  0.00    -0.003 C 
ATOM      4  C   UNL     1      36.588 -19.775 -20.864  0.00  0.00    -0.000 C 
ATOM      5  C   UNL     1      36.704 -18.356 -22.817  0.00  0.00    -0.003 C 
ATOM      6  C   UNL     1      37.327 -18.966 -21.727  0.00  0.00    -0.000 C 
ENDROOT
BRANCH   1   8
ATOM      7  N   UNL     1      34.725 -23.223 -17.368  0.00  0.00    -0.312 N 
ATOM      8  C   UNL     1      34.461 -20.819 -20.198  0.00  0.00    +0.001 C 
ATOM      9  C   UNL     1      34.350 -22.382 -18.391  0.00  0.00    +0.048 C 
ATOM     10  C   UNL     1      32.957 -22.441 -18.481  0.00  0.00    +0.015 C 
ATOM     11  C   UNL     1      35.127 -21.581 -19.235  0.00  0.00    +0.015 C 
ATOM     12  C   UNL     1      33.072 -20.858 -20.311  0.00  0.00    +0.000 C 
ATOM     13  C   UNL     1      32.307 -21.664 -19.461  0.00  0.00    +0.001 C 
ATOM     14  C   UNL     1      32.512 -23.345 -17.477  0.00  0.00    +0.017 C 
ATOM     15  C   UNL     1      33.622 -23.809 -16.810  0.00  0.00    +0.062 C 
ATOM     16  H   UNL     1      35.653 -23.380 -17.079  0.00  0.00    +0.152 HD
ENDBRANCH   1   8
BRANCH   2  17
ATOM     17  C   UNL     1      34.677 -17.906 -24.209  0.00  0.00    +0.114 C 
BRANCH  17  18
ATOM     18  N   UNL     1      34.997 -16.505 -24.309  0.00  0.00    -0.327 N 
ATOM     19  H   UNL     1      35.710 -16.235 -24.933  0.00  0.00    +0.147 HD
BRANCH  18  21
ATOM     20  N   UNL     1      32.804 -13.644 -23.459  0.00  0.00    -0.228 NA
ATOM     21  C   UNL     1      34.360 -15.513 -23.576  0.00  0.00    +0.077 C 
ATOM     22  C   UNL     1      33.445 -14.621 -24.139  0.00  0.00    +0.139 C 
ATOM     23  C   UNL     1      34.615 -15.366 -22.206  0.00  0.00    +0.019 C 
ATOM     24  C   UNL     1      33.975 -14.373 -21.473  0.00  0.00    +0.022 C 
ATOM     25  C   UNL     1      33.086 -13.545 -22.140  0.00  0.00    +0.100 C 
ATOM     26  N   UNL     1      33.171 -14.749 -25.524  0.00  0.00    -0.342 N 
ATOM     27  H   UNL     1      32.532 -14.139 -25.957  0.00  0.00    +0.144 HD
ATOM     28  H   UNL     1      33.619 -15.448 -26.052  0.00  0.00    +0.144 HD
ENDBRANCH  18  21
ENDBRANCH  17  18
ENDBRANCH   2  17
TORSDOF 4
ENDMDL
MODEL 4
REMARK VINA RESULT:     -10.9      3.371      9.101
REMARK  Name = 11507920
REMARK  4 active torsions:
REMARK  status: ('A' for Active; 'I' for Inactive)
REMARK    1  A    between atoms: C_1  and  C_8
REMARK    2  A    between atoms: C_2  and  C_17
REMARK    3  A    between atoms: C_17  and  N_18
REMARK    4  A    between atoms: N_18  and  C_21
REMARK                            x       y       z     vdW  Elec       q    Type
REMARK                         _______ _______ _______ _____ _____    ______ ____
ROOT
ATOM      1  C   UNL     1      34.336 -24.254 -14.735  0.00  0.00    -0.000 C 
ATOM      2  C   UNL     1      32.769 -23.426 -16.376  0.00  0.00    -0.003 C 
ATOM      3  C   UNL     1      34.061 -23.826 -16.033  0.00  0.00    -0.003 C 
ATOM      4  C   UNL     1      33.321 -24.282 -13.778  0.00  0.00    -0.000 C 
ATOM      5  C   UNL     1      31.753 -23.454 -15.420  0.00  0.00    -0.003 C 
ATOM      6  C   UNL     1      32.030 -23.881 -14.120  0.00  0.00    -0.000 C 
ENDROOT
BRANCH   1   8
ATOM      7  N   UNL     1      39.156 -25.017 -15.656  0.00  0.00    -0.312 N 
ATOM      8  C   UNL     1      35.677 -24.668 -14.378  0.00  0.00    +0.001 C 
ATOM      9  C   UNL     1      37.978 -24.992 -14.944  0.00  0.00    +0.048 C 
ATOM     10  C   UNL     1      38.261 -25.475 -13.665  0.00  0.00    +0.015 C 
ATOM     11  C   UNL     1      36.697 -24.581 -15.329  0.00  0.00    +0.015 C 
ATOM     12  C   UNL     1      35.930 -25.148 -13.094  0.00  0.00    +0.000 C 
ATOM     13  C   UNL     1      37.216 -25.555 -12.723  0.00  0.00    +0.001 C 
ATOM     14  C   UNL     1      39.649 -25.791 -13.636  0.00  0.00    +0.017 C 
ATOM     15  C   UNL     1      40.170 -25.499 -14.874  0.00  0.00    +0.062 C 
ATOM     16  H   UNL     1      39.254 -24.730 -16.593  0.00  0.00    +0.152 HD
ENDBRANCH   1   8
BRANCH   2  17
ATOM     17  C   UNL     1      32.473 -22.968 -17.764  0.00  0.00    +0.114 C 
BRANCH  17  18
ATOM     18  N   UNL     1      33.663 -22.855 -18.568  0.00  0.00    -0.327 N 
ATOM     19  H   UNL     1      34.349 -23.556 -18.482  0.00  0.00    +0.147 HD
BRANCH  18  21
ATOM     20  N   UNL     1      35.447 -20.316 -20.591  0.00  0.00    -0.228 NA
ATOM     21  C   UNL     1      33.898 -21.815 -19.456  0.00  0.00    +0.077 C 
ATOM     22  C   UNL     1      35.177 -21.326 -19.732  0.00  0.00    +0.139 C 
ATOM     23  C   UNL     1      32.835 -21.201 -20.130  0.00  0.00    +0.019 C 
ATOM     24  C   UNL     1      33.073 -20.159 -21.020  0.00  0.00    +0.022 C 
ATOM     25  C   UNL     1      34.385 -19.758 -21.214  0.00  0.00    +0.100 C 
ATOM     26  N   UNL     1      36.269 -21.930 -19.061  0.00  0.00    -0.342 N 
ATOM     27  H   UNL     1      37.186 -21.613 -19.230  0.00  0.00    +0.144 HD
ATOM     28  H   UNL     1      36.113 -22.668 -18.429  0.00  0.00    +0.144 HD
ENDBRANCH  18  21
ENDBRANCH  17  18
ENDBRANCH   2  17
TORSDOF 4
ENDMDL
MODEL 5
REMARK VINA RESULT:     -10.8      2.187      8.814
REMARK  Name = 11507920
REMARK  4 active torsions:
REMARK  status: ('A' for Active; 'I' for Inactive)
REMARK    1  A    between atoms: C_1  and  C_8
REMARK    2  A    between atoms: C_2  and  C_17
REMARK    3  A    between atoms: C_17  and  N_18
REMARK    4  A    between atoms: N_18  and  C_21
REMARK                            x       y       z     vdW  Elec       q    Type
REMARK                         _______ _______ _______ _____ _____    ______ ____
ROOT
ATOM      1  C   UNL     1      34.485 -23.013 -16.587  0.00  0.00    -0.000 C 
ATOM      2  C   UNL     1      35.627 -22.111 -18.515  0.00  0.00    -0.003 C 
ATOM      3  C   UNL     1      34.482 -22.660 -17.936  0.00  0.00    -0.003 C 
ATOM      4  C   UNL     1      35.630 -22.818 -15.816  0.00  0.00    -0.000 C 
ATOM      5  C   UNL     1      36.773 -21.916 -17.744  0.00  0.00    -0.003 C 
ATOM      6  C   UNL     1      36.775 -22.271 -16.394  0.00  0.00    -0.000 C 
ENDROOT
BRANCH   1   8
ATOM      7  N   UNL     1      29.610 -23.939 -16.364  0.00  0.00    -0.312 N 
ATOM      8  C   UNL     1      33.297 -23.584 -15.987  0.00  0.00    +0.001 C 
ATOM      9  C   UNL     1      30.935 -23.962 -15.990  0.00  0.00    +0.048 C 
ATOM     10  C   UNL     1      31.015 -24.698 -14.806  0.00  0.00    +0.015 C 
ATOM     11  C   UNL     1      32.057 -23.394 -16.603  0.00  0.00    +0.015 C 
ATOM     12  C   UNL     1      33.407 -24.313 -14.804  0.00  0.00    +0.000 C 
ATOM     13  C   UNL     1      32.276 -24.876 -14.202  0.00  0.00    +0.001 C 
ATOM     14  C   UNL     1      29.694 -25.115 -14.484  0.00  0.00    +0.017 C 
ATOM     15  C   UNL     1      28.853 -24.633 -15.460  0.00  0.00    +0.062 C 
ATOM     16  H   UNL     1      29.259 -23.489 -17.166  0.00  0.00    +0.152 HD
ENDBRANCH   1   8
BRANCH   2  17
ATOM     17  C   UNL     1      35.627 -21.734 -19.958  0.00  0.00    +0.114 C 
BRANCH  17  18
ATOM     18  N   UNL     1      34.906 -20.511 -20.203  0.00  0.00    -0.327 N 
ATOM     19  H   UNL     1      34.254 -20.213 -19.527  0.00  0.00    +0.147 HD
BRANCH  18  21
ATOM     20  N   UNL     1      36.401 -18.150 -22.633  0.00  0.00    -0.228 NA
ATOM     21  C   UNL     1      35.076 -19.729 -21.337  0.00  0.00    +0.077 C 
ATOM     22  C   UNL     1      36.198 -18.924 -21.543  0.00  0.00    +0.139 C 
ATOM     23  C   UNL     1      34.104 -19.718 -22.346  0.00  0.00    +0.019 C 
ATOM     24  C   UNL     1      34.277 -18.934 -23.481  0.00  0.00    +0.022 C 
ATOM     25  C   UNL     1      35.432 -18.175 -23.577  0.00  0.00    +0.100 C 
ATOM     26  N   UNL     1      37.195 -18.917 -20.536  0.00  0.00    -0.342 N 
ATOM     27  H   UNL     1      38.001 -18.362 -20.645  0.00  0.00    +0.144 HD
ATOM     28  H   UNL     1      37.083 -19.467 -19.727  0.00  0.00    +0.144 HD
ENDBRANCH  18  21
ENDBRANCH  17  18
ENDBRANCH   2  17
TORSDOF 4
ENDMDL
MODEL 6
REMARK VINA RESULT:     -10.7      3.057      6.134
REMARK  Name = 11507920
REMARK  4 active torsions:
REMARK  status: ('A' for Active; 'I' for Inactive)
REMARK    1  A    between atoms: C_1  and  C_8
REMARK    2  A    between atoms: C_2  and  C_17
REMARK    3  A    between atoms: C_17  and  N_18
REMARK    4  A    between atoms: N_18  and  C_21
REMARK                            x       y       z     vdW  Elec       q    Type
REMARK                         _______ _______ _______ _____ _____    ______ ____
ROOT
ATOM      1  C   UNL     1      34.051 -15.055 -23.672  0.00  0.00    -0.000 C 
ATOM      2  C   UNL     1      35.013 -17.056 -22.720  0.00  0.00    -0.003 C 
ATOM      3  C   UNL     1      34.558 -15.745 -22.572  0.00  0.00    -0.003 C 
ATOM      4  C   UNL     1      33.998 -15.672 -24.921  0.00  0.00    -0.000 C 
ATOM      5  C   UNL     1      34.961 -17.674 -23.970  0.00  0.00    -0.003 C 
ATOM      6  C   UNL     1      34.454 -16.982 -25.070  0.00  0.00    -0.000 C 
ENDROOT
BRANCH   1   8
ATOM      7  N   UNL     1      31.378 -11.486 -21.484  0.00  0.00    -0.312 N 
ATOM      8  C   UNL     1      33.580 -13.694 -23.517  0.00  0.00    +0.001 C 
ATOM      9  C   UNL     1      32.247 -12.065 -22.380  0.00  0.00    +0.048 C 
ATOM     10  C   UNL     1      32.684 -11.055 -23.240  0.00  0.00    +0.015 C 
ATOM     11  C   UNL     1      32.677 -13.392 -22.494  0.00  0.00    +0.015 C 
ATOM     12  C   UNL     1      34.033 -12.706 -24.391  0.00  0.00    +0.000 C 
ATOM     13  C   UNL     1      33.594 -11.383 -24.265  0.00  0.00    +0.001 C 
ATOM     14  C   UNL     1      32.046  -9.852 -22.827  0.00  0.00    +0.017 C 
ATOM     15  C   UNL     1      31.250 -10.149 -21.747  0.00  0.00    +0.062 C 
ATOM     16  H   UNL     1      30.915 -11.965 -20.758  0.00  0.00    +0.152 HD
ENDBRANCH   1   8
BRANCH   2  17
ATOM     17  C   UNL     1      35.556 -17.796 -21.545  0.00  0.00    +0.114 C 
BRANCH  17  18
ATOM     18  N   UNL     1      35.546 -19.222 -21.745  0.00  0.00    -0.327 N 
ATOM     19  H   UNL     1      36.135 -19.598 -22.437  0.00  0.00    +0.147 HD
BRANCH  18  21
ATOM     20  N   UNL     1      34.537 -21.945 -19.445  0.00  0.00    -0.228 NA
ATOM     21  C   UNL     1      34.751 -20.098 -21.017  0.00  0.00    +0.077 C 
ATOM     22  C   UNL     1      35.277 -21.076 -20.170  0.00  0.00    +0.139 C 
ATOM     23  C   UNL     1      33.354 -20.031 -21.105  0.00  0.00    +0.019 C 
ATOM     24  C   UNL     1      32.561 -20.909 -20.375  0.00  0.00    +0.022 C 
ATOM     25  C   UNL     1      33.195 -21.838 -19.566  0.00  0.00    +0.100 C 
ATOM     26  N   UNL     1      36.687 -21.164 -20.066  0.00  0.00    -0.342 N 
ATOM     27  H   UNL     1      37.096 -21.840 -19.478  0.00  0.00    +0.144 HD
ATOM     28  H   UNL     1      37.259 -20.548 -20.578  0.00  0.00    +0.144 HD
ENDBRANCH  18  21
ENDBRANCH  17  18
ENDBRANCH   2  17
TORSDOF 4
ENDMDL
MODEL 7
REMARK VINA RESULT:     -10.7      3.047     10.353
REMARK  Name = 11507920
REMARK  4 active torsions:
REMARK  status: ('A' for Active; 'I' for Inactive)
REMARK    1  A    between atoms: C_1  and  C_8
REMARK    2  A    between atoms: C_2  and  C_17
REMARK    3  A    between atoms: C_17  and  N_18
REMARK    4  A    between atoms: N_18  and  C_21
REMARK                            x       y       z     vdW  Elec       q    Type
REMARK                         _______ _______ _______ _____ _____    ______ ____
ROOT
ATOM      1  C   UNL     1      34.822 -17.518 -22.934  0.00  0.00    -0.000 C 
ATOM      2  C   UNL     1      34.366 -15.186 -23.372  0.00  0.00    -0.003 C 
ATOM      3  C   UNL     1      34.764 -16.196 -22.494  0.00  0.00    -0.003 C 
ATOM      4  C   UNL     1      34.482 -17.833 -24.248  0.00  0.00    -0.000 C 
ATOM      5  C   UNL     1      34.025 -15.501 -24.687  0.00  0.00    -0.003 C 
ATOM      6  C   UNL     1      34.082 -16.824 -25.126  0.00  0.00    -0.000 C 
ENDROOT
BRANCH   1   8
ATOM      7  N   UNL     1      34.012 -21.429 -19.982  0.00  0.00    -0.312 N 
ATOM      8  C   UNL     1      35.234 -18.565 -22.022  0.00  0.00    +0.001 C 
ATOM      9  C   UNL     1      34.717 -20.441 -20.631  0.00  0.00    +0.048 C 
ATOM     10  C   UNL     1      36.057 -20.582 -20.262  0.00  0.00    +0.015 C 
ATOM     11  C   UNL     1      34.277 -19.443 -21.508  0.00  0.00    +0.015 C 
ATOM     12  C   UNL     1      36.579 -18.681 -21.672  0.00  0.00    +0.000 C 
ATOM     13  C   UNL     1      37.005 -19.684 -20.793  0.00  0.00    +0.001 C 
ATOM     14  C   UNL     1      36.129 -21.688 -19.370  0.00  0.00    +0.017 C 
ATOM     15  C   UNL     1      34.857 -22.187 -19.218  0.00  0.00    +0.062 C 
ATOM     16  H   UNL     1      33.040 -21.569 -20.056  0.00  0.00    +0.152 HD
ENDBRANCH   1   8
BRANCH   2  17
ATOM     17  C   UNL     1      34.303 -13.772 -22.904  0.00  0.00    +0.114 C 
BRANCH  17  18
ATOM     18  N   UNL     1      33.283 -13.016 -23.584  0.00  0.00    -0.327 N 
ATOM     19  H   UNL     1      32.372 -13.388 -23.614  0.00  0.00    +0.147 HD
BRANCH  18  21
ATOM     20  N   UNL     1      33.160  -9.385 -24.308  0.00  0.00    -0.228 NA
ATOM     21  C   UNL     1      33.510 -11.793 -24.200  0.00  0.00    +0.077 C 
ATOM     22  C   UNL     1      32.961 -10.595 -23.737  0.00  0.00    +0.139 C 
ATOM     23  C   UNL     1      34.322 -11.710 -25.339  0.00  0.00    +0.019 C 
ATOM     24  C   UNL     1      34.549 -10.484 -25.954  0.00  0.00    +0.022 C 
ATOM     25  C   UNL     1      33.950  -9.361 -25.404  0.00  0.00    +0.100 C 
ATOM     26  N   UNL     1      32.135 -10.653 -22.587  0.00  0.00    -0.342 N 
ATOM     27  H   UNL     1      31.730  -9.830 -22.230  0.00  0.00    +0.144 HD
ATOM     28  H   UNL     1      31.967 -11.516 -22.143  0.00  0.00    +0.144 HD
ENDBRANCH  18  21
ENDBRANCH  17  18
ENDBRANCH   2  17
TORSDOF 4
ENDMDL
MODEL 8
REMARK VINA RESULT:     -10.7      2.051      3.080
REMARK  Name = 11507920
REMARK  4 active torsions:
REMARK  status: ('A' for Active; 'I' for Inactive)
REMARK    1  A    between atoms: C_1  and  C_8
REMARK    2  A    between atoms: C_2  and  C_17
REMARK    3  A    between atoms: C_17  and  N_18
REMARK    4  A    between atoms: N_18  and  C_21
REMARK                            x       y       z     vdW  Elec       q    Type
REMARK                         _______ _______ _______ _____ _____    ______ ____
ROOT
ATOM      1  C   UNL     1      34.480 -20.439 -20.749  0.00  0.00    -0.000 C 
ATOM      2  C   UNL     1      35.543 -21.711 -18.993  0.00  0.00    -0.003 C 
ATOM      3  C   UNL     1      35.624 -20.782 -20.031  0.00  0.00    -0.003 C 
ATOM      4  C   UNL     1      33.254 -21.022 -20.432  0.00  0.00    -0.000 C 
ATOM      5  C   UNL     1      34.317 -22.295 -18.674  0.00  0.00    -0.003 C 
ATOM      6  C   UNL     1      33.172 -21.951 -19.395  0.00  0.00    -0.000 C 
ENDROOT
BRANCH   1   8
ATOM      7  N   UNL     1      34.880 -15.849 -22.604  0.00  0.00    -0.312 N 
ATOM      8  C   UNL     1      34.565 -19.476 -21.828  0.00  0.00    +0.001 C 
ATOM      9  C   UNL     1      34.761 -17.220 -22.598  0.00  0.00    +0.048 C 
ATOM     10  C   UNL     1      34.727 -17.635 -23.932  0.00  0.00    +0.015 C 
ATOM     11  C   UNL     1      34.681 -18.117 -21.527  0.00  0.00    +0.015 C 
ATOM     12  C   UNL     1      34.528 -19.919 -23.149  0.00  0.00    +0.000 C 
ATOM     13  C   UNL     1      34.607 -19.011 -24.211  0.00  0.00    +0.001 C 
ATOM     14  C   UNL     1      34.830 -16.465 -24.735  0.00  0.00    +0.017 C 
ATOM     15  C   UNL     1      34.922 -15.384 -23.890  0.00  0.00    +0.062 C 
ATOM     16  H   UNL     1      34.927 -15.284 -21.798  0.00  0.00    +0.152 HD
ENDBRANCH   1   8
BRANCH   2  17
ATOM     17  C   UNL     1      36.766 -22.080 -18.223  0.00  0.00    +0.114 C 
BRANCH  17  18
ATOM     18  N   UNL     1      36.585 -21.926 -16.802  0.00  0.00    -0.327 N 
ATOM     19  H   UNL     1      36.329 -21.039 -16.460  0.00  0.00    +0.147 HD
BRANCH  18  21
ATOM     20  N   UNL     1      35.864 -24.367 -14.112  0.00  0.00    -0.228 NA
ATOM     21  C   UNL     1      36.751 -22.957 -15.887  0.00  0.00    +0.077 C 
ATOM     22  C   UNL     1      35.741 -23.369 -15.015  0.00  0.00    +0.139 C 
ATOM     23  C   UNL     1      37.969 -23.643 -15.802  0.00  0.00    +0.019 C 
ATOM     24  C   UNL     1      38.134 -24.675 -14.885  0.00  0.00    +0.022 C 
ATOM     25  C   UNL     1      37.060 -24.997 -14.070  0.00  0.00    +0.100 C 
ATOM     26  N   UNL     1      34.500 -22.688 -15.081  0.00  0.00    -0.342 N 
ATOM     27  H   UNL     1      33.763 -22.950 -14.482  0.00  0.00    +0.144 HD
ATOM     28  H   UNL     1      34.373 -21.956 -15.726  0.00  0.00    +0.144 HD
ENDBRANCH  18  21
ENDBRANCH  17  18
ENDBRANCH   2  17
TORSDOF 4
ENDMDL
MODEL 9
REMARK VINA RESULT:     -10.6      1.284      1.631
REMARK  Name = 11507920
REMARK  4 active torsions:
REMARK  status: ('A' for Active; 'I' for Inactive)
REMARK    1  A    between atoms: C_1  and  C_8
REMARK    2  A    between atoms: C_2  and  C_17
REMARK    3  A    between atoms: C_17  and  N_18
REMARK    4  A    between atoms: N_18  and  C_21
REMARK                            x       y       z     vdW  Elec       q    Type
REMARK                         _______ _______ _______ _____ _____    ______ ____
ROOT
ATOM      1  C   UNL     1      35.236 -20.677 -20.318  0.00  0.00    -0.000 C 
ATOM      2  C   UNL     1      34.090 -22.195 -18.829  0.00  0.00    -0.003 C 
ATOM      3  C   UNL     1      34.060 -21.296 -19.896  0.00  0.00    -0.003 C 
ATOM      4  C   UNL     1      36.442 -20.954 -19.675  0.00  0.00    -0.000 C 
ATOM      5  C   UNL     1      35.296 -22.473 -18.185  0.00  0.00    -0.003 C 
ATOM      6  C   UNL     1      36.472 -21.851 -18.608  0.00  0.00    -0.000 C 
ENDROOT
BRANCH   1   8
ATOM      7  N   UNL     1      33.299 -18.745 -24.463  0.00  0.00    -0.312 N 
ATOM      8  C   UNL     1      35.204 -19.744 -21.425  0.00  0.00    +0.001 C 
ATOM      9  C   UNL     1      34.176 -18.902 -23.414  0.00  0.00    +0.048 C 
ATOM     10  C   UNL     1      35.166 -17.928 -23.556  0.00  0.00    +0.015 C 
ATOM     11  C   UNL     1      34.169 -19.823 -22.360  0.00  0.00    +0.015 C 
ATOM     12  C   UNL     1      36.207 -18.782 -21.542  0.00  0.00    +0.000 C 
ATOM     13  C   UNL     1      36.201 -17.868 -22.601  0.00  0.00    +0.001 C 
ATOM     14  C   UNL     1      34.852 -17.182 -24.726  0.00  0.00    +0.017 C 
ATOM     15  C   UNL     1      33.699 -17.708 -25.261  0.00  0.00    +0.062 C 
ATOM     16  H   UNL     1      32.499 -19.298 -24.617  0.00  0.00    +0.152 HD
ENDBRANCH   1   8
BRANCH   2  17
ATOM     17  C   UNL     1      32.834 -22.858 -18.375  0.00  0.00    +0.114 C 
BRANCH  17  18
ATOM     18  N   UNL     1      33.051 -23.727 -17.248  0.00  0.00    -0.327 N 
ATOM     19  H   UNL     1      33.777 -24.389 -17.305  0.00  0.00    +0.147 HD
BRANCH  18  21
ATOM     20  N   UNL     1      32.083 -24.068 -13.689  0.00  0.00    -0.228 NA
ATOM     21  C   UNL     1      32.294 -23.686 -16.084  0.00  0.00    +0.077 C 
ATOM     22  C   UNL     1      32.786 -24.094 -14.842  0.00  0.00    +0.139 C 
ATOM     23  C   UNL     1      30.974 -23.219 -16.110  0.00  0.00    +0.019 C 
ATOM     24  C   UNL     1      30.218 -23.178 -14.944  0.00  0.00    +0.022 C 
ATOM     25  C   UNL     1      30.813 -23.609 -13.769  0.00  0.00    +0.100 C 
ATOM     26  N   UNL     1      34.120 -24.572 -14.791  0.00  0.00    -0.342 N 
ATOM     27  H   UNL     1      34.503 -24.869 -13.933  0.00  0.00    +0.144 HD
ATOM     28  H   UNL     1      34.664 -24.606 -15.610  0.00  0.00    +0.144 HD
ENDBRANCH  18  21
ENDBRANCH  17  18
ENDBRANCH   2  17
TORSDOF 4
ENDMDL
