MODEL 1
REMARK VINA RESULT:     -11.3      0.000      0.000
REMARK  Name = 9804992
REMARK  10 active torsions:
REMARK  status: ('A' for Active; 'I' for Inactive)
REMARK    1  A    between atoms: C_1  and  C_9
REMARK    2  A    between atoms: C_1  and  O_19
REMARK    3  A    between atoms: C_2  and  C_12
REMARK    4  A    between atoms: C_12  and  N_13
REMARK    5  A    between atoms: N_13  and  C_15
REMARK    6  A    between atoms: N_13  and  C_17
REMARK    7  A    between atoms: O_19  and  C_22
REMARK    8  A    between atoms: N_21  and  C_24
REMARK    9  A    between atoms: C_27  and  C_32
REMARK   10  A    between atoms: N_31  and  O_34
REMARK                            x       y       z     vdW  Elec       q    Type
REMARK                         _______ _______ _______ _____ _____    ______ ____
ROOT
ATOM      1  C   UNL     1      33.887 -16.873 -24.894  0.00  0.00    +0.237 C 
ENDROOT
BRANCH   1   9
ATOM      2  C   UNL     1      33.663 -10.374 -25.344  0.00  0.00    -0.043 C 
ATOM      3  C   UNL     1      33.861 -12.602 -24.387  0.00  0.00    -0.000 C 
ATOM      4  C   UNL     1      33.681 -13.163 -25.674  0.00  0.00    -0.000 C 
ATOM      5  C   UNL     1      33.849 -11.206 -24.239  0.00  0.00    -0.006 C 
ATOM      6  C   UNL     1      33.487 -10.926 -26.609  0.00  0.00    -0.006 C 
ATOM      7  C   UNL     1      33.496 -12.311 -26.775  0.00  0.00    -0.000 C 
ATOM      8  C   UNL     1      33.693 -14.559 -25.823  0.00  0.00    -0.001 C 
ATOM      9  C   UNL     1      33.878 -15.392 -24.717  0.00  0.00    +0.021 C 
ATOM     10  C   UNL     1      34.046 -13.454 -23.287  0.00  0.00    -0.000 C 
ATOM     11  C   UNL     1      34.055 -14.840 -23.452  0.00  0.00    -0.001 C 
BRANCH   2  12
ATOM     12  C   UNL     1      33.653  -8.893 -25.168  0.00  0.00    -0.050 C 
BRANCH  12  13
ATOM     13  N   UNL     1      33.117  -8.490 -23.867  0.00  0.00    +0.390 N 
ATOM     14  H   UNL     1      33.097  -9.307 -23.257  0.00  0.00    -0.079 HD
BRANCH  13  15
ATOM     15  C   UNL     1      33.976  -7.477 -23.255  0.00  0.00    -0.077 C 
ATOM     16  C   UNL     1      35.314  -7.387 -23.968  0.00  0.00    -0.025 C 
ENDBRANCH  13  15
BRANCH  13  17
ATOM     17  C   UNL     1      31.753  -7.986 -24.012  0.00  0.00    -0.077 C 
ATOM     18  C   UNL     1      31.593  -7.195 -25.299  0.00  0.00    -0.025 C 
ENDBRANCH  13  17
ENDBRANCH  12  13
ENDBRANCH   2  12
ENDBRANCH   1   9
BRANCH   1  19
ATOM     19  O   UNL     1      34.942 -17.434 -24.123  0.00  0.00    -0.429 OA
BRANCH  19  22
ATOM     20  O   UNL     1      34.549 -19.677 -24.335  0.00  0.00    -0.226 OA
ATOM     21  N   UNL     1      34.762 -18.648 -22.243  0.00  0.00    -0.250 N 
ATOM     22  C   UNL     1      34.730 -18.696 -23.623  0.00  0.00    +0.406 C 
ATOM     23  H   UNL     1      34.923 -17.760 -21.846  0.00  0.00    +0.158 HD
BRANCH  21  24
ATOM     24  C   UNL     1      34.592 -19.713 -21.330  0.00  0.00    +0.053 C 
ATOM     25  C   UNL     1      33.308 -20.134 -20.982  0.00  0.00    +0.015 C 
ATOM     26  C   UNL     1      35.707 -20.342 -20.778  0.00  0.00    +0.015 C 
ATOM     27  C   UNL     1      34.256 -21.814 -19.527  0.00  0.00    +0.055 C 
ATOM     28  C   UNL     1      33.140 -21.185 -20.080  0.00  0.00    +0.006 C 
ATOM     29  C   UNL     1      35.539 -21.393 -19.876  0.00  0.00    +0.006 C 
BRANCH  27  32
ATOM     30  O   UNL     1      33.373 -23.891 -18.877  0.00  0.00    -0.268 OA
ATOM     31  N   UNL     1      34.723 -22.801 -17.361  0.00  0.00    -0.193 N 
ATOM     32  C   UNL     1      34.081 -22.909 -18.586  0.00  0.00    +0.268 C 
ATOM     33  H   UNL     1      35.282 -22.021 -17.139  0.00  0.00    +0.183 HD
BRANCH  31  34
ATOM     34  O   UNL     1      34.539 -23.854 -16.454  0.00  0.00    -0.295 OA
ATOM     35  H   UNL     1      33.649 -24.224 -16.563  0.00  0.00    +0.241 HD
ENDBRANCH  31  34
ENDBRANCH  27  32
ENDBRANCH  21  24
ENDBRANCH  19  22
ENDBRANCH   1  19
TORSDOF 10
ENDMDL
MODEL 2
REMARK VINA RESULT:     -11.0      1.424      1.927
REMARK  Name = 9804992
REMARK  10 active torsions:
REMARK  status: ('A' for Active; 'I' for Inactive)
REMARK    1  A    between atoms: C_1  and  C_9
REMARK    2  A    between atoms: C_1  and  O_19
REMARK    3  A    between atoms: C_2  and  C_12
REMARK    4  A    between atoms: C_12  and  N_13
REMARK    5  A    between atoms: N_13  and  C_15
REMARK    6  A    between atoms: N_13  and  C_17
REMARK    7  A    between atoms: O_19  and  C_22
REMARK    8  A    between atoms: N_21  and  C_24
REMARK    9  A    between atoms: C_27  and  C_32
REMARK   10  A    between atoms: N_31  and  O_34
REMARK                            x       y       z     vdW  Elec       q    Type
REMARK                         _______ _______ _______ _____ _____    ______ ____
ROOT
ATOM      1  C   UNL     1      34.657 -17.816 -23.815  0.00  0.00    +0.237 C 
ENDROOT
BRANCH   1   9
ATOM      2  C   UNL     1      33.558 -11.529 -25.133  0.00  0.00    -0.043 C 
ATOM      3  C   UNL     1      34.066 -13.557 -23.891  0.00  0.00    -0.000 C 
ATOM      4  C   UNL     1      33.945 -14.309 -25.084  0.00  0.00    -0.000 C 
ATOM      5  C   UNL     1      33.869 -12.167 -23.933  0.00  0.00    -0.006 C 
ATOM      6  C   UNL     1      33.441 -12.268 -26.306  0.00  0.00    -0.006 C 
ATOM      7  C   UNL     1      33.633 -13.649 -26.283  0.00  0.00    -0.000 C 
ATOM      8  C   UNL     1      34.142 -15.699 -25.042  0.00  0.00    -0.001 C 
ATOM      9  C   UNL     1      34.452 -16.339 -23.841  0.00  0.00    +0.021 C 
ATOM     10  C   UNL     1      34.378 -14.217 -22.691  0.00  0.00    -0.000 C 
ATOM     11  C   UNL     1      34.571 -15.599 -22.668  0.00  0.00    -0.001 C 
BRANCH   2  12
ATOM     12  C   UNL     1      33.352 -10.051 -25.160  0.00  0.00    -0.050 C 
BRANCH  12  13
ATOM     13  N   UNL     1      34.015  -9.376 -24.043  0.00  0.00    +0.390 N 
ATOM     14  H   UNL     1      34.264 -10.075 -23.343  0.00  0.00    -0.079 HD
BRANCH  13  15
ATOM     15  C   UNL     1      35.240  -8.721 -24.498  0.00  0.00    -0.077 C 
ATOM     16  C   UNL     1      35.293  -7.275 -24.037  0.00  0.00    -0.025 C 
ENDBRANCH  13  15
BRANCH  13  17
ATOM     17  C   UNL     1      33.113  -8.406 -23.426  0.00  0.00    -0.077 C 
ATOM     18  C   UNL     1      31.788  -9.048 -23.051  0.00  0.00    -0.025 C 
ENDBRANCH  13  17
ENDBRANCH  12  13
ENDBRANCH   2  12
ENDBRANCH   1   9
BRANCH   1  19
ATOM     19  O   UNL     1      35.869 -18.113 -23.133  0.00  0.00    -0.429 OA
BRANCH  19  22
ATOM     20  O   UNL     1      36.425 -18.388 -20.932  0.00  0.00    -0.226 OA
ATOM     21  N   UNL     1      34.770 -19.683 -21.965  0.00  0.00    -0.250 N 
ATOM     22  C   UNL     1      35.748 -18.710 -21.902  0.00  0.00    +0.406 C 
ATOM     23  H   UNL     1      34.331 -19.797 -22.839  0.00  0.00    +0.158 HD
BRANCH  21  24
ATOM     24  C   UNL     1      34.323 -20.536 -20.931  0.00  0.00    +0.053 C 
ATOM     25  C   UNL     1      35.235 -21.341 -20.247  0.00  0.00    +0.015 C 
ATOM     26  C   UNL     1      32.970 -20.574 -20.594  0.00  0.00    +0.015 C 
ATOM     27  C   UNL     1      33.439 -22.222 -18.891  0.00  0.00    +0.055 C 
ATOM     28  C   UNL     1      34.793 -22.183 -19.227  0.00  0.00    +0.006 C 
ATOM     29  C   UNL     1      32.528 -21.417 -19.574  0.00  0.00    +0.006 C 
BRANCH  27  32
ATOM     30  O   UNL     1      33.736 -23.962 -17.341  0.00  0.00    -0.268 OA
ATOM     31  N   UNL     1      31.670 -22.942 -17.397  0.00  0.00    -0.193 N 
ATOM     32  C   UNL     1      32.979 -23.100 -17.828  0.00  0.00    +0.268 C 
ATOM     33  H   UNL     1      31.079 -22.257 -17.787  0.00  0.00    +0.183 HD
BRANCH  31  34
ATOM     34  O   UNL     1      31.229 -23.801 -16.380  0.00  0.00    -0.295 OA
ATOM     35  H   UNL     1      31.860 -24.530 -16.275  0.00  0.00    +0.241 HD
ENDBRANCH  31  34
ENDBRANCH  27  32
ENDBRANCH  21  24
ENDBRANCH  19  22
ENDBRANCH   1  19
TORSDOF 10
ENDMDL
MODEL 3
REMARK VINA RESULT:     -10.9      3.827     13.071
REMARK  Name = 9804992
REMARK  10 active torsions:
REMARK  status: ('A' for Active; 'I' for Inactive)
REMARK    1  A    between atoms: C_1  and  C_9
REMARK    2  A    between atoms: C_1  and  O_19
REMARK    3  A    between atoms: C_2  and  C_12
REMARK    4  A    between atoms: C_12  and  N_13
REMARK    5  A    between atoms: N_13  and  C_15
REMARK    6  A    between atoms: N_13  and  C_17
REMARK    7  A    between atoms: O_19  and  C_22
REMARK    8  A    between atoms: N_21  and  C_24
REMARK    9  A    between atoms: C_27  and  C_32
REMARK   10  A    between atoms: N_31  and  O_34
REMARK                            x       y       z     vdW  Elec       q    Type
REMARK                         _______ _______ _______ _____ _____    ______ ____
ROOT
ATOM      1  C   UNL     1      35.436 -20.770 -20.777  0.00  0.00    +0.237 C 
ENDROOT
BRANCH   1   9
ATOM      2  C   UNL     1      35.712 -23.797 -15.011  0.00  0.00    -0.043 C 
ATOM      3  C   UNL     1      34.851 -22.979 -17.134  0.00  0.00    -0.000 C 
ATOM      4  C   UNL     1      36.095 -22.355 -17.391  0.00  0.00    -0.000 C 
ATOM      5  C   UNL     1      34.676 -23.696 -15.939  0.00  0.00    -0.006 C 
ATOM      6  C   UNL     1      36.936 -23.184 -15.265  0.00  0.00    -0.006 C 
ATOM      7  C   UNL     1      37.128 -22.468 -16.446  0.00  0.00    -0.000 C 
ATOM      8  C   UNL     1      36.270 -21.638 -18.585  0.00  0.00    -0.001 C 
ATOM      9  C   UNL     1      35.233 -21.537 -19.514  0.00  0.00    +0.021 C 
ATOM     10  C   UNL     1      33.818 -22.867 -18.079  0.00  0.00    -0.000 C 
ATOM     11  C   UNL     1      34.010 -22.150 -19.261  0.00  0.00    -0.001 C 
BRANCH   2  12
ATOM     12  C   UNL     1      35.509 -24.562 -13.747  0.00  0.00    -0.050 C 
BRANCH  12  13
ATOM     13  N   UNL     1      36.773 -24.951 -13.122  0.00  0.00    +0.390 N 
ATOM     14  H   UNL     1      37.539 -24.524 -13.643  0.00  0.00    -0.079 HD
BRANCH  13  15
ATOM     15  C   UNL     1      36.829 -24.468 -11.742  0.00  0.00    -0.077 C 
ATOM     16  C   UNL     1      36.946 -22.955 -11.694  0.00  0.00    -0.025 C 
ENDBRANCH  13  15
BRANCH  13  17
ATOM     17  C   UNL     1      36.938 -26.402 -13.164  0.00  0.00    -0.077 C 
ATOM     18  C   UNL     1      37.250 -26.879 -14.572  0.00  0.00    -0.025 C 
ENDBRANCH  13  17
ENDBRANCH  12  13
ENDBRANCH   2  12
ENDBRANCH   1   9
BRANCH   1  19
ATOM     19  O   UNL     1      36.403 -19.750 -20.561  0.00  0.00    -0.429 OA
BRANCH  19  22
ATOM     20  O   UNL     1      37.401 -18.584 -22.256  0.00  0.00    -0.226 OA
ATOM     21  N   UNL     1      35.292 -18.000 -21.422  0.00  0.00    -0.250 N 
ATOM     22  C   UNL     1      36.453 -18.746 -21.497  0.00  0.00    +0.406 C 
ATOM     23  H   UNL     1      34.638 -18.286 -20.743  0.00  0.00    +0.158 HD
BRANCH  21  24
ATOM     24  C   UNL     1      34.928 -16.878 -22.200  0.00  0.00    +0.053 C 
ATOM     25  C   UNL     1      34.585 -15.678 -21.574  0.00  0.00    +0.015 C 
ATOM     26  C   UNL     1      34.909 -16.969 -23.591  0.00  0.00    +0.015 C 
ATOM     27  C   UNL     1      34.205 -14.662 -23.733  0.00  0.00    +0.055 C 
ATOM     28  C   UNL     1      34.223 -14.571 -22.341  0.00  0.00    +0.006 C 
ATOM     29  C   UNL     1      34.548 -15.861 -24.358  0.00  0.00    +0.006 C 
BRANCH  27  32
ATOM     30  O   UNL     1      33.205 -13.647 -25.601  0.00  0.00    -0.268 OA
ATOM     31  N   UNL     1      34.202 -12.259 -24.056  0.00  0.00    -0.193 N 
ATOM     32  C   UNL     1      33.828 -13.507 -24.532  0.00  0.00    +0.268 C 
ATOM     33  H   UNL     1      34.694 -12.157 -23.209  0.00  0.00    +0.183 HD
BRANCH  31  34
ATOM     34  O   UNL     1      33.847 -11.150 -24.837  0.00  0.00    -0.295 OA
ATOM     35  H   UNL     1      34.377 -10.383 -24.571  0.00  0.00    +0.241 HD
ENDBRANCH  31  34
ENDBRANCH  27  32
ENDBRANCH  21  24
ENDBRANCH  19  22
ENDBRANCH   1  19
TORSDOF 10
ENDMDL
MODEL 4
REMARK VINA RESULT:     -10.8      1.705      2.717
REMARK  Name = 9804992
REMARK  10 active torsions:
REMARK  status: ('A' for Active; 'I' for Inactive)
REMARK    1  A    between atoms: C_1  and  C_9
REMARK    2  A    between atoms: C_1  and  O_19
REMARK    3  A    between atoms: C_2  and  C_12
REMARK    4  A    between atoms: C_12  and  N_13
REMARK    5  A    between atoms: N_13  and  C_15
REMARK    6  A    between atoms: N_13  and  C_17
REMARK    7  A    between atoms: O_19  and  C_22
REMARK    8  A    between atoms: N_21  and  C_24
REMARK    9  A    between atoms: C_27  and  C_32
REMARK   10  A    between atoms: N_31  and  O_34
REMARK                            x       y       z     vdW  Elec       q    Type
REMARK                         _______ _______ _______ _____ _____    ______ ____
ROOT
ATOM      1  C   UNL     1      35.339 -16.611 -22.965  0.00  0.00    +0.237 C 
ENDROOT
BRANCH   1   9
ATOM      2  C   UNL     1      31.591 -11.386 -21.897  0.00  0.00    -0.043 C 
ATOM      3  C   UNL     1      33.055 -12.967 -23.026  0.00  0.00    -0.000 C 
ATOM      4  C   UNL     1      33.082 -13.766 -21.858  0.00  0.00    -0.000 C 
ATOM      5  C   UNL     1      32.305 -11.780 -23.029  0.00  0.00    -0.006 C 
ATOM      6  C   UNL     1      31.617 -12.172 -20.749  0.00  0.00    -0.006 C 
ATOM      7  C   UNL     1      32.357 -13.354 -20.728  0.00  0.00    -0.000 C 
ATOM      8  C   UNL     1      33.832 -14.953 -21.854  0.00  0.00    -0.001 C 
ATOM      9  C   UNL     1      34.547 -15.347 -22.987  0.00  0.00    +0.021 C 
ATOM     10  C   UNL     1      33.780 -13.379 -24.156  0.00  0.00    -0.000 C 
ATOM     11  C   UNL     1      34.520 -14.562 -24.135  0.00  0.00    -0.001 C 
BRANCH   2  12
ATOM     12  C   UNL     1      30.800 -10.121 -21.918  0.00  0.00    -0.050 C 
BRANCH  12  13
ATOM     13  N   UNL     1      31.650  -8.933 -22.002  0.00  0.00    +0.390 N 
ATOM     14  H   UNL     1      32.545  -9.202 -22.410  0.00  0.00    -0.079 HD
BRANCH  13  15
ATOM     15  C   UNL     1      31.034  -7.926 -22.864  0.00  0.00    -0.077 C 
ATOM     16  C   UNL     1      31.658  -7.932 -24.249  0.00  0.00    -0.025 C 
ENDBRANCH  13  15
BRANCH  13  17
ATOM     17  C   UNL     1      31.894  -8.387 -20.669  0.00  0.00    -0.077 C 
ATOM     18  C   UNL     1      32.954  -7.299 -20.707  0.00  0.00    -0.025 C 
ENDBRANCH  13  17
ENDBRANCH  12  13
ENDBRANCH   2  12
ENDBRANCH   1   9
BRANCH   1  19
ATOM     19  O   UNL     1      34.769 -17.541 -23.877  0.00  0.00    -0.429 OA
BRANCH  19  22
ATOM     20  O   UNL     1      34.419 -19.785 -24.145  0.00  0.00    -0.226 OA
ATOM     21  N   UNL     1      34.603 -18.802 -22.028  0.00  0.00    -0.250 N 
ATOM     22  C   UNL     1      34.579 -18.818 -23.408  0.00  0.00    +0.406 C 
ATOM     23  H   UNL     1      34.746 -17.922 -21.609  0.00  0.00    +0.158 HD
BRANCH  21  24
ATOM     24  C   UNL     1      34.450 -19.892 -21.141  0.00  0.00    +0.053 C 
ATOM     25  C   UNL     1      33.172 -20.325 -20.784  0.00  0.00    +0.015 C 
ATOM     26  C   UNL     1      35.574 -20.534 -20.623  0.00  0.00    +0.015 C 
ATOM     27  C   UNL     1      34.145 -22.042 -19.390  0.00  0.00    +0.055 C 
ATOM     28  C   UNL     1      33.020 -21.400 -19.908  0.00  0.00    +0.006 C 
ATOM     29  C   UNL     1      35.422 -21.609 -19.747  0.00  0.00    +0.006 C 
BRANCH  27  32
ATOM     30  O   UNL     1      33.405 -24.203 -18.840  0.00  0.00    -0.268 OA
ATOM     31  N   UNL     1      34.495 -23.012 -17.195  0.00  0.00    -0.193 N 
ATOM     32  C   UNL     1      33.986 -23.163 -18.477  0.00  0.00    +0.268 C 
ATOM     33  H   UNL     1      34.953 -22.186 -16.916  0.00  0.00    +0.183 HD
BRANCH  31  34
ATOM     34  O   UNL     1      34.327 -24.091 -16.315  0.00  0.00    -0.295 OA
ATOM     35  H   UNL     1      33.429 -24.447 -16.407  0.00  0.00    +0.241 HD
ENDBRANCH  31  34
ENDBRANCH  27  32
ENDBRANCH  21  24
ENDBRANCH  19  22
ENDBRANCH   1  19
TORSDOF 10
ENDMDL
MODEL 5
REMARK VINA RESULT:     -10.8      2.993     11.584
REMARK  Name = 9804992
REMARK  10 active torsions:
REMARK  status: ('A' for Active; 'I' for Inactive)
REMARK    1  A    between atoms: C_1  and  C_9
REMARK    2  A    between atoms: C_1  and  O_19
REMARK    3  A    between atoms: C_2  and  C_12
REMARK    4  A    between atoms: C_12  and  N_13
REMARK    5  A    between atoms: N_13  and  C_15
REMARK    6  A    between atoms: N_13  and  C_17
REMARK    7  A    between atoms: O_19  and  C_22
REMARK    8  A    between atoms: N_21  and  C_24
REMARK    9  A    between atoms: C_27  and  C_32
REMARK   10  A    between atoms: N_31  and  O_34
REMARK                            x       y       z     vdW  Elec       q    Type
REMARK                         _______ _______ _______ _____ _____    ______ ____
ROOT
ATOM      1  C   UNL     1      35.697 -17.413 -22.976  0.00  0.00    +0.237 C 
ENDROOT
BRANCH   1   9
ATOM      2  C   UNL     1      33.698 -22.320 -19.181  0.00  0.00    -0.043 C 
ATOM      3  C   UNL     1      35.171 -20.768 -20.337  0.00  0.00    -0.000 C 
ATOM      4  C   UNL     1      34.042 -20.129 -20.903  0.00  0.00    -0.000 C 
ATOM      5  C   UNL     1      34.982 -21.862 -19.478  0.00  0.00    -0.006 C 
ATOM      6  C   UNL     1      32.588 -21.692 -19.737  0.00  0.00    -0.006 C 
ATOM      7  C   UNL     1      32.757 -20.604 -20.592  0.00  0.00    -0.000 C 
ATOM      8  C   UNL     1      34.231 -19.035 -21.763  0.00  0.00    -0.001 C 
ATOM      9  C   UNL     1      35.515 -18.577 -22.061  0.00  0.00    +0.021 C 
ATOM     10  C   UNL     1      36.456 -20.293 -20.648  0.00  0.00    -0.000 C 
ATOM     11  C   UNL     1      36.625 -19.204 -21.504  0.00  0.00    -0.001 C 
BRANCH   2  12
ATOM     12  C   UNL     1      33.516 -23.485 -18.266  0.00  0.00    -0.050 C 
BRANCH  12  13
ATOM     13  N   UNL     1      33.266 -23.073 -16.884  0.00  0.00    +0.390 N 
ATOM     14  H   UNL     1      33.379 -22.062 -16.820  0.00  0.00    -0.079 HD
BRANCH  13  15
ATOM     15  C   UNL     1      31.898 -23.411 -16.492  0.00  0.00    -0.077 C 
ATOM     16  C   UNL     1      31.648 -23.081 -15.031  0.00  0.00    -0.025 C 
ENDBRANCH  13  15
BRANCH  13  17
ATOM     17  C   UNL     1      34.227 -23.704 -15.982  0.00  0.00    -0.077 C 
ATOM     18  C   UNL     1      35.447 -22.822 -15.776  0.00  0.00    -0.025 C 
ENDBRANCH  13  17
ENDBRANCH  12  13
ENDBRANCH   2  12
ENDBRANCH   1   9
BRANCH   1  19
ATOM     19  O   UNL     1      34.729 -17.475 -24.016  0.00  0.00    -0.429 OA
BRANCH  19  22
ATOM     20  O   UNL     1      33.800 -16.077 -25.570  0.00  0.00    -0.226 OA
ATOM     21  N   UNL     1      34.191 -15.395 -23.364  0.00  0.00    -0.250 N 
ATOM     22  C   UNL     1      34.196 -16.277 -24.427  0.00  0.00    +0.406 C 
ATOM     23  H   UNL     1      34.553 -15.741 -22.516  0.00  0.00    +0.158 HD
BRANCH  21  24
ATOM     24  C   UNL     1      33.731 -14.059 -23.344  0.00  0.00    +0.053 C 
ATOM     25  C   UNL     1      32.806 -13.655 -22.380  0.00  0.00    +0.015 C 
ATOM     26  C   UNL     1      34.201 -13.145 -24.286  0.00  0.00    +0.015 C 
ATOM     27  C   UNL     1      32.822 -11.422 -23.303  0.00  0.00    +0.055 C 
ATOM     28  C   UNL     1      32.351 -12.337 -22.360  0.00  0.00    +0.006 C 
ATOM     29  C   UNL     1      33.747 -11.826 -24.266  0.00  0.00    +0.006 C 
BRANCH  27  32
ATOM     30  O   UNL     1      32.567  -9.283 -24.239  0.00  0.00    -0.268 OA
ATOM     31  N   UNL     1      31.657  -9.634 -22.152  0.00  0.00    -0.193 N 
ATOM     32  C   UNL     1      32.347 -10.048 -23.282  0.00  0.00    +0.268 C 
ATOM     33  H   UNL     1      31.487 -10.246 -21.398  0.00  0.00    +0.183 HD
BRANCH  31  34
ATOM     34  O   UNL     1      31.213  -8.304 -22.132  0.00  0.00    -0.295 OA
ATOM     35  H   UNL     1      31.134  -7.975 -23.041  0.00  0.00    +0.241 HD
ENDBRANCH  31  34
ENDBRANCH  27  32
ENDBRANCH  21  24
ENDBRANCH  19  22
ENDBRANCH   1  19
TORSDOF 10
ENDMDL
MODEL 6
REMARK VINA RESULT:     -10.6      3.882     13.244
REMARK  Name = 9804992
REMARK  10 active torsions:
REMARK  status: ('A' for Active; 'I' for Inactive)
REMARK    1  A    between atoms: C_1  and  C_9
REMARK    2  A    between atoms: C_1  and  O_19
REMARK    3  A    between atoms: C_2  and  C_12
REMARK    4  A    between atoms: C_12  and  N_13
REMARK    5  A    between atoms: N_13  and  C_15
REMARK    6  A    between atoms: N_13  and  C_17
REMARK    7  A    between atoms: O_19  and  C_22
REMARK    8  A    between atoms: N_21  and  C_24
REMARK    9  A    between atoms: C_27  and  C_32
REMARK   10  A    between atoms: N_31  and  O_34
REMARK                            x       y       z     vdW  Elec       q    Type
REMARK                         _______ _______ _______ _____ _____    ______ ____
ROOT
ATOM      1  C   UNL     1      35.124 -21.199 -20.486  0.00  0.00    +0.237 C 
ENDROOT
BRANCH   1   9
ATOM      2  C   UNL     1      35.259 -23.965 -14.586  0.00  0.00    -0.043 C 
ATOM      3  C   UNL     1      35.977 -22.750 -16.567  0.00  0.00    -0.000 C 
ATOM      4  C   UNL     1      34.701 -22.951 -17.145  0.00  0.00    -0.000 C 
ATOM      5  C   UNL     1      36.240 -23.264 -15.287  0.00  0.00    -0.006 C 
ATOM      6  C   UNL     1      34.004 -24.162 -15.154  0.00  0.00    -0.006 C 
ATOM      7  C   UNL     1      33.725 -23.660 -16.425  0.00  0.00    -0.000 C 
ATOM      8  C   UNL     1      34.438 -22.438 -18.425  0.00  0.00    -0.001 C 
ATOM      9  C   UNL     1      35.420 -21.736 -19.127  0.00  0.00    +0.021 C 
ATOM     10  C   UNL     1      36.953 -22.042 -17.287  0.00  0.00    -0.000 C 
ATOM     11  C   UNL     1      36.675 -21.538 -18.558  0.00  0.00    -0.001 C 
BRANCH   2  12
ATOM     12  C   UNL     1      35.555 -24.504 -13.227  0.00  0.00    -0.050 C 
BRANCH  12  13
ATOM     13  N   UNL     1      36.954 -24.907 -13.080  0.00  0.00    +0.390 N 
ATOM     14  H   UNL     1      37.464 -24.619 -13.914  0.00  0.00    -0.079 HD
BRANCH  13  15
ATOM     15  C   UNL     1      37.555 -24.249 -11.921  0.00  0.00    -0.077 C 
ATOM     16  C   UNL     1      36.719 -23.065 -11.467  0.00  0.00    -0.025 C 
ENDBRANCH  13  15
BRANCH  13  17
ATOM     17  C   UNL     1      37.056 -26.360 -12.955  0.00  0.00    -0.077 C 
ATOM     18  C   UNL     1      36.984 -27.035 -14.314  0.00  0.00    -0.025 C 
ENDBRANCH  13  17
ENDBRANCH  12  13
ENDBRANCH   2  12
ENDBRANCH   1   9
BRANCH   1  19
ATOM     19  O   UNL     1      35.499 -19.828 -20.544  0.00  0.00    -0.429 OA
BRANCH  19  22
ATOM     20  O   UNL     1      33.996 -19.497 -22.236  0.00  0.00    -0.226 OA
ATOM     21  N   UNL     1      35.342 -17.766 -21.416  0.00  0.00    -0.250 N 
ATOM     22  C   UNL     1      34.858 -19.058 -21.483  0.00  0.00    +0.406 C 
ATOM     23  H   UNL     1      36.039 -17.601 -20.739  0.00  0.00    +0.158 HD
BRANCH  21  24
ATOM     24  C   UNL     1      34.961 -16.651 -22.197  0.00  0.00    +0.053 C 
ATOM     25  C   UNL     1      35.071 -16.705 -23.587  0.00  0.00    +0.015 C 
ATOM     26  C   UNL     1      34.478 -15.499 -21.579  0.00  0.00    +0.015 C 
ATOM     27  C   UNL     1      34.213 -14.451 -23.739  0.00  0.00    +0.055 C 
ATOM     28  C   UNL     1      34.696 -15.604 -24.358  0.00  0.00    +0.006 C 
ATOM     29  C   UNL     1      34.103 -14.398 -22.350  0.00  0.00    +0.006 C 
BRANCH  27  32
ATOM     30  O   UNL     1      33.220 -13.458 -25.622  0.00  0.00    -0.268 OA
ATOM     31  N   UNL     1      34.163 -12.048 -24.062  0.00  0.00    -0.193 N 
ATOM     32  C   UNL     1      33.823 -13.304 -24.544  0.00  0.00    +0.268 C 
ATOM     33  H   UNL     1      34.640 -11.935 -23.208  0.00  0.00    +0.183 HD
BRANCH  31  34
ATOM     34  O   UNL     1      33.795 -10.947 -24.849  0.00  0.00    -0.295 OA
ATOM     35  H   UNL     1      34.333 -10.932 -25.656  0.00  0.00    +0.241 HD
ENDBRANCH  31  34
ENDBRANCH  27  32
ENDBRANCH  21  24
ENDBRANCH  19  22
ENDBRANCH   1  19
TORSDOF 10
ENDMDL
MODEL 7
REMARK VINA RESULT:     -10.5      2.110      4.112
REMARK  Name = 9804992
REMARK  10 active torsions:
REMARK  status: ('A' for Active; 'I' for Inactive)
REMARK    1  A    between atoms: C_1  and  C_9
REMARK    2  A    between atoms: C_1  and  O_19
REMARK    3  A    between atoms: C_2  and  C_12
REMARK    4  A    between atoms: C_12  and  N_13
REMARK    5  A    between atoms: N_13  and  C_15
REMARK    6  A    between atoms: N_13  and  C_17
REMARK    7  A    between atoms: O_19  and  C_22
REMARK    8  A    between atoms: N_21  and  C_24
REMARK    9  A    between atoms: C_27  and  C_32
REMARK   10  A    between atoms: N_31  and  O_34
REMARK                            x       y       z     vdW  Elec       q    Type
REMARK                         _______ _______ _______ _____ _____    ______ ____
ROOT
ATOM      1  C   UNL     1      35.614 -19.194 -21.521  0.00  0.00    +0.237 C 
ENDROOT
BRANCH   1   9
ATOM      2  C   UNL     1      33.888 -13.457 -24.088  0.00  0.00    -0.043 C 
ATOM      3  C   UNL     1      34.504 -15.804 -23.924  0.00  0.00    -0.000 C 
ATOM      4  C   UNL     1      34.611 -15.671 -22.519  0.00  0.00    -0.000 C 
ATOM      5  C   UNL     1      34.141 -14.687 -24.694  0.00  0.00    -0.006 C 
ATOM      6  C   UNL     1      33.992 -13.326 -22.707  0.00  0.00    -0.006 C 
ATOM      7  C   UNL     1      34.352 -14.425 -21.926  0.00  0.00    -0.000 C 
ATOM      8  C   UNL     1      34.974 -16.787 -21.749  0.00  0.00    -0.001 C 
ATOM      9  C   UNL     1      35.229 -18.019 -22.355  0.00  0.00    +0.021 C 
ATOM     10  C   UNL     1      34.764 -17.050 -24.517  0.00  0.00    -0.000 C 
ATOM     11  C   UNL     1      35.124 -18.150 -23.737  0.00  0.00    -0.001 C 
BRANCH   2  12
ATOM     12  C   UNL     1      33.503 -12.281 -24.922  0.00  0.00    -0.050 C 
BRANCH  12  13
ATOM     13  N   UNL     1      34.586 -11.303 -25.038  0.00  0.00    +0.390 N 
ATOM     14  H   UNL     1      35.414 -11.679 -24.577  0.00  0.00    -0.079 HD
BRANCH  13  15
ATOM     15  C   UNL     1      34.909 -11.067 -26.445  0.00  0.00    -0.077 C 
ATOM     16  C   UNL     1      33.966 -11.828 -27.360  0.00  0.00    -0.025 C 
ENDBRANCH  13  15
BRANCH  13  17
ATOM     17  C   UNL     1      34.216 -10.052 -24.380  0.00  0.00    -0.077 C 
ATOM     18  C   UNL     1      35.265  -8.978 -24.613  0.00  0.00    -0.025 C 
ENDBRANCH  13  17
ENDBRANCH  12  13
ENDBRANCH   2  12
ENDBRANCH   1   9
BRANCH   1  19
ATOM     19  O   UNL     1      34.670 -20.240 -21.715  0.00  0.00    -0.429 OA
BRANCH  19  22
ATOM     20  O   UNL     1      32.896 -20.530 -20.301  0.00  0.00    -0.226 OA
ATOM     21  N   UNL     1      34.992 -21.480 -19.872  0.00  0.00    -0.250 N 
ATOM     22  C   UNL     1      34.070 -20.739 -20.584  0.00  0.00    +0.406 C 
ATOM     23  H   UNL     1      35.895 -21.536 -20.263  0.00  0.00    +0.158 HD
BRANCH  21  24
ATOM     24  C   UNL     1      34.801 -22.169 -18.653  0.00  0.00    +0.053 C 
ATOM     25  C   UNL     1      35.816 -22.187 -17.696  0.00  0.00    +0.015 C 
ATOM     26  C   UNL     1      33.599 -22.832 -18.407  0.00  0.00    +0.015 C 
ATOM     27  C   UNL     1      34.425 -23.531 -16.247  0.00  0.00    +0.055 C 
ATOM     28  C   UNL     1      35.629 -22.868 -16.493  0.00  0.00    +0.006 C 
ATOM     29  C   UNL     1      33.411 -23.513 -17.204  0.00  0.00    +0.006 C 
BRANCH  27  32
ATOM     30  O   UNL     1      35.200 -24.711 -14.370  0.00  0.00    -0.268 OA
ATOM     31  N   UNL     1      32.927 -24.377 -14.539  0.00  0.00    -0.193 N 
ATOM     32  C   UNL     1      34.230 -24.241 -14.994  0.00  0.00    +0.268 C 
ATOM     33  H   UNL     1      32.165 -24.001 -15.039  0.00  0.00    +0.183 HD
BRANCH  31  34
ATOM     34  O   UNL     1      32.744 -25.073 -13.336  0.00  0.00    -0.295 OA
ATOM     35  H   UNL     1      32.168 -24.560 -12.748  0.00  0.00    +0.241 HD
ENDBRANCH  31  34
ENDBRANCH  27  32
ENDBRANCH  21  24
ENDBRANCH  19  22
ENDBRANCH   1  19
TORSDOF 10
ENDMDL
MODEL 8
REMARK VINA RESULT:     -10.4      2.776     12.035
REMARK  Name = 9804992
REMARK  10 active torsions:
REMARK  status: ('A' for Active; 'I' for Inactive)
REMARK    1  A    between atoms: C_1  and  C_9
REMARK    2  A    between atoms: C_1  and  O_19
REMARK    3  A    between atoms: C_2  and  C_12
REMARK    4  A    between atoms: C_12  and  N_13
REMARK    5  A    between atoms: N_13  and  C_15
REMARK    6  A    between atoms: N_13  and  C_17
REMARK    7  A    between atoms: O_19  and  C_22
REMARK    8  A    between atoms: N_21  and  C_24
REMARK    9  A    between atoms: C_27  and  C_32
REMARK   10  A    between atoms: N_31  and  O_34
REMARK                            x       y       z     vdW  Elec       q    Type
REMARK                         _______ _______ _______ _____ _____    ______ ____
ROOT
ATOM      1  C   UNL     1      35.741 -18.162 -22.763  0.00  0.00    +0.237 C 
ENDROOT
BRANCH   1   9
ATOM      2  C   UNL     1      33.548 -22.618 -18.542  0.00  0.00    -0.043 C 
ATOM      3  C   UNL     1      35.081 -21.232 -19.824  0.00  0.00    -0.000 C 
ATOM      4  C   UNL     1      33.979 -20.612 -20.460  0.00  0.00    -0.000 C 
ATOM      5  C   UNL     1      34.848 -22.233 -18.868  0.00  0.00    -0.006 C 
ATOM      6  C   UNL     1      32.464 -22.008 -19.166  0.00  0.00    -0.006 C 
ATOM      7  C   UNL     1      32.676 -21.012 -20.119  0.00  0.00    -0.000 C 
ATOM      8  C   UNL     1      34.212 -19.611 -21.417  0.00  0.00    -0.001 C 
ATOM      9  C   UNL     1      35.513 -19.227 -21.744  0.00  0.00    +0.021 C 
ATOM     10  C   UNL     1      36.384 -20.833 -20.165  0.00  0.00    -0.000 C 
ATOM     11  C   UNL     1      36.597 -19.836 -21.119  0.00  0.00    -0.001 C 
BRANCH   2  12
ATOM     12  C   UNL     1      33.319 -23.683 -17.523  0.00  0.00    -0.050 C 
BRANCH  12  13
ATOM     13  N   UNL     1      33.758 -23.280 -16.187  0.00  0.00    +0.390 N 
ATOM     14  H   UNL     1      34.163 -22.346 -16.246  0.00  0.00    -0.079 HD
BRANCH  13  15
ATOM     15  C   UNL     1      32.620 -23.232 -15.270  0.00  0.00    -0.077 C 
ATOM     16  C   UNL     1      31.339 -23.665 -15.961  0.00  0.00    -0.025 C 
ENDBRANCH  13  15
BRANCH  13  17
ATOM     17  C   UNL     1      34.780 -24.197 -15.688  0.00  0.00    -0.077 C 
ATOM     18  C   UNL     1      36.142 -23.525 -15.631  0.00  0.00    -0.025 C 
ENDBRANCH  13  17
ENDBRANCH  12  13
ENDBRANCH   2  12
ENDBRANCH   1   9
BRANCH   1  19
ATOM     19  O   UNL     1      34.543 -17.947 -23.498  0.00  0.00    -0.429 OA
BRANCH  19  22
ATOM     20  O   UNL     1      34.887 -16.979 -25.541  0.00  0.00    -0.226 OA
ATOM     21  N   UNL     1      34.100 -15.757 -23.707  0.00  0.00    -0.250 N 
ATOM     22  C   UNL     1      34.542 -16.885 -24.369  0.00  0.00    +0.406 C 
ATOM     23  H   UNL     1      33.865 -15.878 -22.758  0.00  0.00    +0.158 HD
BRANCH  21  24
ATOM     24  C   UNL     1      33.943 -14.450 -24.221  0.00  0.00    +0.053 C 
ATOM     25  C   UNL     1      34.172 -13.345 -23.400  0.00  0.00    +0.015 C 
ATOM     26  C   UNL     1      33.559 -14.264 -25.549  0.00  0.00    +0.015 C 
ATOM     27  C   UNL     1      33.632 -11.870 -25.236  0.00  0.00    +0.055 C 
ATOM     28  C   UNL     1      34.016 -12.055 -23.908  0.00  0.00    +0.006 C 
ATOM     29  C   UNL     1      33.403 -12.975 -26.057  0.00  0.00    +0.006 C 
BRANCH  27  32
ATOM     30  O   UNL     1      32.984 -10.339 -26.896  0.00  0.00    -0.268 OA
ATOM     31  N   UNL     1      33.887  -9.474 -24.961  0.00  0.00    -0.193 N 
ATOM     32  C   UNL     1      33.469 -10.525 -25.765  0.00  0.00    +0.268 C 
ATOM     33  H   UNL     1      34.270  -9.630 -24.066  0.00  0.00    +0.183 HD
BRANCH  31  34
ATOM     34  O   UNL     1      33.740  -8.181 -25.481  0.00  0.00    -0.295 OA
ATOM     35  H   UNL     1      34.606  -7.839 -25.751  0.00  0.00    +0.241 HD
ENDBRANCH  31  34
ENDBRANCH  27  32
ENDBRANCH  21  24
ENDBRANCH  19  22
ENDBRANCH   1  19
TORSDOF 10
ENDMDL
MODEL 9
REMARK VINA RESULT:     -10.4      1.678      2.854
REMARK  Name = 9804992
REMARK  10 active torsions:
REMARK  status: ('A' for Active; 'I' for Inactive)
REMARK    1  A    between atoms: C_1  and  C_9
REMARK    2  A    between atoms: C_1  and  O_19
REMARK    3  A    between atoms: C_2  and  C_12
REMARK    4  A    between atoms: C_12  and  N_13
REMARK    5  A    between atoms: N_13  and  C_15
REMARK    6  A    between atoms: N_13  and  C_17
REMARK    7  A    between atoms: O_19  and  C_22
REMARK    8  A    between atoms: N_21  and  C_24
REMARK    9  A    between atoms: C_27  and  C_32
REMARK   10  A    between atoms: N_31  and  O_34
REMARK                            x       y       z     vdW  Elec       q    Type
REMARK                         _______ _______ _______ _____ _____    ______ ____
ROOT
ATOM      1  C   UNL     1      34.154 -15.631 -24.329  0.00  0.00    +0.237 C 
ENDROOT
BRANCH   1   9
ATOM      2  C   UNL     1      31.845  -9.868 -22.344  0.00  0.00    -0.043 C 
ATOM      3  C   UNL     1      33.030 -11.534 -23.662  0.00  0.00    -0.000 C 
ATOM      4  C   UNL     1      32.578 -12.544 -22.780  0.00  0.00    -0.000 C 
ATOM      5  C   UNL     1      32.655 -10.201 -23.430  0.00  0.00    -0.006 C 
ATOM      6  C   UNL     1      31.399 -10.862 -21.477  0.00  0.00    -0.006 C 
ATOM      7  C   UNL     1      31.763 -12.191 -21.692  0.00  0.00    -0.000 C 
ATOM      8  C   UNL     1      32.953 -13.877 -23.012  0.00  0.00    -0.001 C 
ATOM      9  C   UNL     1      33.764 -14.210 -24.098  0.00  0.00    +0.021 C 
ATOM     10  C   UNL     1      33.845 -11.887 -24.750  0.00  0.00    -0.000 C 
ATOM     11  C   UNL     1      34.209 -13.217 -24.965  0.00  0.00    -0.001 C 
BRANCH   2  12
ATOM     12  C   UNL     1      31.456  -8.447 -22.112  0.00  0.00    -0.050 C 
BRANCH  12  13
ATOM     13  N   UNL     1      32.009  -7.546 -23.124  0.00  0.00    +0.390 N 
ATOM     14  H   UNL     1      32.387  -8.107 -23.887  0.00  0.00    -0.079 HD
BRANCH  13  15
ATOM     15  C   UNL     1      30.961  -6.680 -23.662  0.00  0.00    -0.077 C 
ATOM     16  C   UNL     1      30.908  -6.761 -25.178  0.00  0.00    -0.025 C 
ENDBRANCH  13  15
BRANCH  13  17
ATOM     17  C   UNL     1      33.093  -6.746 -22.556  0.00  0.00    -0.077 C 
ATOM     18  C   UNL     1      34.393  -6.969 -23.310  0.00  0.00    -0.025 C 
ENDBRANCH  13  17
ENDBRANCH  12  13
ENDBRANCH   2  12
ENDBRANCH   1   9
BRANCH   1  19
ATOM     19  O   UNL     1      35.297 -15.941 -23.543  0.00  0.00    -0.429 OA
BRANCH  19  22
ATOM     20  O   UNL     1      34.824 -16.124 -21.313  0.00  0.00    -0.226 OA
ATOM     21  N   UNL     1      35.171 -18.003 -22.666  0.00  0.00    -0.250 N 
ATOM     22  C   UNL     1      35.072 -16.654 -22.390  0.00  0.00    +0.406 C 
ATOM     23  H   UNL     1      35.378 -18.239 -23.600  0.00  0.00    +0.158 HD
BRANCH  21  24
ATOM     24  C   UNL     1      35.012 -19.088 -21.774  0.00  0.00    +0.053 C 
ATOM     25  C   UNL     1      36.129 -19.652 -21.156  0.00  0.00    +0.015 C 
ATOM     26  C   UNL     1      33.739 -19.596 -21.512  0.00  0.00    +0.015 C 
ATOM     27  C   UNL     1      34.698 -21.231 -20.015  0.00  0.00    +0.055 C 
ATOM     28  C   UNL     1      35.972 -20.723 -20.276  0.00  0.00    +0.006 C 
ATOM     29  C   UNL     1      33.583 -20.667 -20.633  0.00  0.00    +0.006 C 
BRANCH  27  32
ATOM     30  O   UNL     1      35.351 -22.541 -18.178  0.00  0.00    -0.268 OA
ATOM     31  N   UNL     1      33.449 -23.185 -19.306  0.00  0.00    -0.193 N 
ATOM     32  C   UNL     1      34.536 -22.348 -19.099  0.00  0.00    +0.268 C 
ATOM     33  H   UNL     1      32.808 -23.025 -20.038  0.00  0.00    +0.183 HD
BRANCH  31  34
ATOM     34  O   UNL     1      33.305 -24.267 -18.427  0.00  0.00    -0.295 OA
ATOM     35  H   UNL     1      32.407 -24.270 -18.060  0.00  0.00    +0.241 HD
ENDBRANCH  31  34
ENDBRANCH  27  32
ENDBRANCH  21  24
ENDBRANCH  19  22
ENDBRANCH   1  19
TORSDOF 10
ENDMDL
