MODEL 1
REMARK VINA RESULT:     -11.4      0.000      0.000
REMARK  Name = 9801640
REMARK  6 active torsions:
REMARK  status: ('A' for Active; 'I' for Inactive)
REMARK    1  A    between atoms: C_1  and  C_2
REMARK    2  A    between atoms: C_1  and  C_16
REMARK    3  A    between atoms: C_2  and  N_3
REMARK    4  A    between atoms: C_7  and  C_11
REMARK    5  A    between atoms: C_16  and  C_17
REMARK    6  A    between atoms: C_17  and  N_21
REMARK                            x       y       z     vdW  Elec       q    Type
REMARK                         _______ _______ _______ _____ _____    ______ ____
ROOT
ATOM      1  C   UNL     1      33.543 -15.263 -24.803  0.00  0.00    -0.021 C 
ENDROOT
BRANCH   1   2
ATOM      2  C   UNL     1      34.997 -15.734 -24.826  0.00  0.00    -0.077 C 
BRANCH   2   3
ATOM      3  N   UNL     1      35.182 -16.853 -23.905  0.00  0.00    +0.390 N 
ATOM      4  C   UNL     1      34.899 -16.455 -22.523  0.00  0.00    -0.072 C 
ATOM      5  C   UNL     1      34.344 -17.997 -24.299  0.00  0.00    -0.051 C 
ATOM      6  C   UNL     1      35.261 -17.599 -21.565  0.00  0.00    +0.005 C 
ATOM      7  C   UNL     1      34.712 -18.936 -22.008  0.00  0.00    -0.013 C 
ATOM      8  C   UNL     1      34.291 -19.099 -23.276  0.00  0.00    -0.052 C 
ATOM      9  H   UNL     1      36.160 -17.141 -23.954  0.00  0.00    -0.079 HD
BRANCH   7  11
ATOM     10  N   UNL     1      35.848 -20.421 -20.491  0.00  0.00    -0.244 NA
ATOM     11  C   UNL     1      34.662 -20.039 -21.017  0.00  0.00    +0.077 C 
ATOM     12  C   UNL     1      33.445 -20.615 -20.681  0.00  0.00    +0.019 C 
ATOM     13  C   UNL     1      33.448 -21.647 -19.748  0.00  0.00    +0.003 C 
ATOM     14  C   UNL     1      35.811 -21.427 -19.588  0.00  0.00    +0.099 C 
ATOM     15  C   UNL     1      34.649 -22.066 -19.186  0.00  0.00    +0.021 C 
ENDBRANCH   7  11
ENDBRANCH   2   3
ENDBRANCH   1   2
BRANCH   1  16
ATOM     16  C   UNL     1      33.453 -13.744 -24.980  0.00  0.00    +0.020 C 
BRANCH  16  17
ATOM     17  C   UNL     1      34.009 -12.980 -23.784  0.00  0.00    +0.099 C 
BRANCH  17  21
ATOM     18 CL   UNL     1      31.661 -13.321 -22.052  0.00  0.00    -0.062 Cl
ATOM     19  O   UNL     1      32.176  -9.397 -22.005  0.00  0.00    -0.448 OA
ATOM     20  O   UNL     1      34.645 -10.573 -24.988  0.00  0.00    -0.269 OA
ATOM     21  N   UNL     1      33.264 -11.742 -23.512  0.00  0.00    -0.244 N 
ATOM     22  C   UNL     1      33.635 -10.616 -24.280  0.00  0.00    +0.256 C 
ATOM     23  C   UNL     1      32.271 -11.763 -22.535  0.00  0.00    +0.151 C 
ATOM     24  C   UNL     1      32.748  -9.431 -24.360  0.00  0.00    +0.088 C 
ATOM     25  C   UNL     1      32.091  -8.878 -23.266  0.00  0.00    +0.150 C 
ATOM     26  C   UNL     1      31.786 -10.701 -21.880  0.00  0.00    +0.206 C 
ATOM     27  C   UNL     1      32.624  -8.804 -25.612  0.00  0.00    +0.008 C 
ATOM     28  C   UNL     1      31.340  -7.705 -23.403  0.00  0.00    +0.038 C 
ATOM     29  C   UNL     1      31.858  -7.645 -25.755  0.00  0.00    +0.000 C 
ATOM     30  C   UNL     1      31.219  -7.094 -24.649  0.00  0.00    +0.003 C 
ENDBRANCH  17  21
ENDBRANCH  16  17
ENDBRANCH   1  16
TORSDOF 6
ENDMDL
MODEL 2
REMARK VINA RESULT:     -11.4      1.633      2.710
REMARK  Name = 9801640
REMARK  6 active torsions:
REMARK  status: ('A' for Active; 'I' for Inactive)
REMARK    1  A    between atoms: C_1  and  C_2
REMARK    2  A    between atoms: C_1  and  C_16
REMARK    3  A    between atoms: C_2  and  N_3
REMARK    4  A    between atoms: C_7  and  C_11
REMARK    5  A    between atoms: C_16  and  C_17
REMARK    6  A    between atoms: C_17  and  N_21
REMARK                            x       y       z     vdW  Elec       q    Type
REMARK                         _______ _______ _______ _____ _____    ______ ____
ROOT
ATOM      1  C   UNL     1      33.808 -15.222 -24.253  0.00  0.00    -0.021 C 
ENDROOT
BRANCH   1   2
ATOM      2  C   UNL     1      34.998 -16.082 -24.677  0.00  0.00    -0.077 C 
BRANCH   2   3
ATOM      3  N   UNL     1      35.174 -17.198 -23.749  0.00  0.00    +0.390 N 
ATOM      4  C   UNL     1      34.994 -16.764 -22.360  0.00  0.00    -0.072 C 
ATOM      5  C   UNL     1      34.251 -18.297 -24.074  0.00  0.00    -0.051 C 
ATOM      6  C   UNL     1      35.348 -17.914 -21.405  0.00  0.00    +0.005 C 
ATOM      7  C   UNL     1      34.699 -19.224 -21.793  0.00  0.00    -0.013 C 
ATOM      8  C   UNL     1      34.196 -19.380 -23.031  0.00  0.00    -0.052 C 
ATOM      9  H   UNL     1      36.129 -17.541 -23.849  0.00  0.00    -0.079 HD
BRANCH   7  11
ATOM     10  N   UNL     1      35.831 -20.694 -20.259  0.00  0.00    -0.244 NA
ATOM     11  C   UNL     1      34.645 -20.308 -20.782  0.00  0.00    +0.077 C 
ATOM     12  C   UNL     1      33.425 -20.865 -20.425  0.00  0.00    +0.019 C 
ATOM     13  C   UNL     1      33.424 -21.880 -19.474  0.00  0.00    +0.003 C 
ATOM     14  C   UNL     1      35.791 -21.683 -19.337  0.00  0.00    +0.099 C 
ATOM     15  C   UNL     1      34.626 -22.302 -18.915  0.00  0.00    +0.021 C 
ENDBRANCH   7  11
ENDBRANCH   2   3
ENDBRANCH   1   2
BRANCH   1  16
ATOM     16  C   UNL     1      34.258 -13.807 -23.875  0.00  0.00    +0.020 C 
BRANCH  16  17
ATOM     17  C   UNL     1      33.542 -12.729 -24.682  0.00  0.00    +0.099 C 
BRANCH  17  21
ATOM     18 CL   UNL     1      35.108 -10.271 -25.051  0.00  0.00    -0.062 Cl
ATOM     19  O   UNL     1      31.922  -8.954 -23.108  0.00  0.00    -0.448 OA
ATOM     20  O   UNL     1      31.562 -12.969 -22.767  0.00  0.00    -0.269 OA
ATOM     21  N   UNL     1      33.111 -11.598 -23.849  0.00  0.00    -0.244 N 
ATOM     22  C   UNL     1      32.165 -11.896 -22.842  0.00  0.00    +0.256 C 
ATOM     23  C   UNL     1      33.646 -10.337 -24.107  0.00  0.00    +0.151 C 
ATOM     24  C   UNL     1      31.922 -10.947 -21.730  0.00  0.00    +0.088 C 
ATOM     25  C   UNL     1      31.799  -9.571 -21.896  0.00  0.00    +0.150 C 
ATOM     26  C   UNL     1      33.107  -9.163 -23.756  0.00  0.00    +0.206 C 
ATOM     27  C   UNL     1      31.745 -11.492 -20.447  0.00  0.00    +0.008 C 
ATOM     28  C   UNL     1      31.481  -8.748 -20.810  0.00  0.00    +0.038 C 
ATOM     29  C   UNL     1      31.449 -10.669 -19.358  0.00  0.00    +0.000 C 
ATOM     30  C   UNL     1      31.313  -9.297 -19.541  0.00  0.00    +0.003 C 
ENDBRANCH  17  21
ENDBRANCH  16  17
ENDBRANCH   1  16
TORSDOF 6
ENDMDL
MODEL 3
REMARK VINA RESULT:     -10.6      3.985     11.056
REMARK  Name = 9801640
REMARK  6 active torsions:
REMARK  status: ('A' for Active; 'I' for Inactive)
REMARK    1  A    between atoms: C_1  and  C_2
REMARK    2  A    between atoms: C_1  and  C_16
REMARK    3  A    between atoms: C_2  and  N_3
REMARK    4  A    between atoms: C_7  and  C_11
REMARK    5  A    between atoms: C_16  and  C_17
REMARK    6  A    between atoms: C_17  and  N_21
REMARK                            x       y       z     vdW  Elec       q    Type
REMARK                         _______ _______ _______ _____ _____    ______ ____
ROOT
ATOM      1  C   UNL     1      35.746 -17.971 -22.616  0.00  0.00    -0.021 C 
ENDROOT
BRANCH   1   2
ATOM      2  C   UNL     1      34.631 -17.687 -23.622  0.00  0.00    -0.077 C 
BRANCH   2   3
ATOM      3  N   UNL     1      34.643 -16.278 -24.007  0.00  0.00    +0.390 N 
ATOM      4  C   UNL     1      33.565 -15.979 -24.955  0.00  0.00    -0.072 C 
ATOM      5  C   UNL     1      34.546 -15.413 -22.820  0.00  0.00    -0.051 C 
ATOM      6  C   UNL     1      33.704 -14.538 -25.467  0.00  0.00    +0.005 C 
ATOM      7  C   UNL     1      33.923 -13.536 -24.356  0.00  0.00    -0.013 C 
ATOM      8  C   UNL     1      34.309 -13.961 -23.138  0.00  0.00    -0.052 C 
ATOM      9  H   UNL     1      35.530 -16.087 -24.471  0.00  0.00    -0.079 HD
BRANCH   7  11
ATOM     10  N   UNL     1      33.177 -11.358 -23.651  0.00  0.00    -0.244 NA
ATOM     11  C   UNL     1      33.706 -12.099 -24.652  0.00  0.00    +0.077 C 
ATOM     12  C   UNL     1      34.041 -11.588 -25.898  0.00  0.00    +0.019 C 
ATOM     13  C   UNL     1      33.818 -10.235 -26.130  0.00  0.00    +0.003 C 
ATOM     14  C   UNL     1      32.974 -10.046 -23.914  0.00  0.00    +0.099 C 
ATOM     15  C   UNL     1      33.275  -9.443 -25.124  0.00  0.00    +0.021 C 
ENDBRANCH   7  11
ENDBRANCH   2   3
ENDBRANCH   1   2
BRANCH   1  16
ATOM     16  C   UNL     1      35.205 -18.708 -21.386  0.00  0.00    +0.020 C 
BRANCH  16  17
ATOM     17  C   UNL     1      34.937 -20.184 -21.658  0.00  0.00    +0.099 C 
BRANCH  17  21
ATOM     18 CL   UNL     1      32.160 -20.261 -20.705  0.00  0.00    -0.062 Cl
ATOM     19  O   UNL     1      33.846 -23.162 -18.608  0.00  0.00    -0.448 OA
ATOM     20  O   UNL     1      37.038 -21.282 -20.234  0.00  0.00    -0.269 OA
ATOM     21  N   UNL     1      34.735 -20.955 -20.422  0.00  0.00    -0.244 N 
ATOM     22  C   UNL     1      35.907 -21.363 -19.749  0.00  0.00    +0.256 C 
ATOM     23  C   UNL     1      33.431 -21.229 -20.014  0.00  0.00    +0.151 C 
ATOM     24  C   UNL     1      35.848 -21.823 -18.341  0.00  0.00    +0.088 C 
ATOM     25  C   UNL     1      34.872 -22.681 -17.845  0.00  0.00    +0.150 C 
ATOM     26  C   UNL     1      33.052 -22.214 -19.190  0.00  0.00    +0.206 C 
ATOM     27  C   UNL     1      36.883 -21.408 -17.485  0.00  0.00    +0.008 C 
ATOM     28  C   UNL     1      34.932 -23.142 -16.525  0.00  0.00    +0.038 C 
ATOM     29  C   UNL     1      36.932 -21.851 -16.161  0.00  0.00    +0.000 C 
ATOM     30  C   UNL     1      35.958 -22.721 -15.683  0.00  0.00    +0.003 C 
ENDBRANCH  17  21
ENDBRANCH  16  17
ENDBRANCH   1  16
TORSDOF 6
ENDMDL
MODEL 4
REMARK VINA RESULT:     -10.5      6.555     12.630
REMARK  Name = 9801640
REMARK  6 active torsions:
REMARK  status: ('A' for Active; 'I' for Inactive)
REMARK    1  A    between atoms: C_1  and  C_2
REMARK    2  A    between atoms: C_1  and  C_16
REMARK    3  A    between atoms: C_2  and  N_3
REMARK    4  A    between atoms: C_7  and  C_11
REMARK    5  A    between atoms: C_16  and  C_17
REMARK    6  A    between atoms: C_17  and  N_21
REMARK                            x       y       z     vdW  Elec       q    Type
REMARK                         _______ _______ _______ _____ _____    ______ ____
ROOT
ATOM      1  C   UNL     1      36.808 -21.549 -17.355  0.00  0.00    -0.021 C 
ENDROOT
BRANCH   1   2
ATOM      2  C   UNL     1      36.032 -22.007 -18.589  0.00  0.00    -0.077 C 
BRANCH   2   3
ATOM      3  N   UNL     1      35.728 -20.866 -19.449  0.00  0.00    +0.390 N 
ATOM      4  C   UNL     1      36.838 -20.581 -20.363  0.00  0.00    -0.072 C 
ATOM      5  C   UNL     1      34.483 -21.096 -20.199  0.00  0.00    -0.051 C 
ATOM      6  C   UNL     1      36.560 -19.282 -21.134  0.00  0.00    +0.005 C 
ATOM      7  C   UNL     1      35.169 -19.234 -21.726  0.00  0.00    -0.013 C 
ATOM      8  C   UNL     1      34.224 -20.083 -21.281  0.00  0.00    -0.052 C 
ATOM      9  H   UNL     1      35.597 -20.049 -18.852  0.00  0.00    -0.079 HD
BRANCH   7  11
ATOM     10  N   UNL     1      35.243 -16.959 -22.509  0.00  0.00    -0.244 NA
ATOM     11  C   UNL     1      34.890 -18.235 -22.786  0.00  0.00    +0.077 C 
ATOM     12  C   UNL     1      34.300 -18.632 -23.977  0.00  0.00    +0.019 C 
ATOM     13  C   UNL     1      34.057 -17.660 -24.941  0.00  0.00    +0.003 C 
ATOM     14  C   UNL     1      34.990 -16.041 -23.470  0.00  0.00    +0.099 C 
ATOM     15  C   UNL     1      34.406 -16.337 -24.690  0.00  0.00    +0.021 C 
ENDBRANCH   7  11
ENDBRANCH   2   3
ENDBRANCH   1   2
BRANCH   1  16
ATOM     16  C   UNL     1      36.340 -22.293 -16.100  0.00  0.00    +0.020 C 
BRANCH  16  17
ATOM     17  C   UNL     1      35.615 -23.595 -16.427  0.00  0.00    +0.099 C 
BRANCH  17  21
ATOM     18 CL   UNL     1      36.273 -25.190 -14.050  0.00  0.00    -0.062 Cl
ATOM     19  O   UNL     1      32.739 -23.685 -13.099  0.00  0.00    -0.448 OA
ATOM     20  O   UNL     1      33.033 -22.816 -17.039  0.00  0.00    -0.269 OA
ATOM     21  N   UNL     1      34.481 -23.847 -15.526  0.00  0.00    -0.244 N 
ATOM     22  C   UNL     1      33.207 -23.487 -16.019  0.00  0.00    +0.256 C 
ATOM     23  C   UNL     1      34.736 -24.403 -14.274  0.00  0.00    +0.151 C 
ATOM     24  C   UNL     1      31.975 -24.004 -15.376  0.00  0.00    +0.088 C 
ATOM     25  C   UNL     1      31.786 -24.068 -14.000  0.00  0.00    +0.150 C 
ATOM     26  C   UNL     1      33.938 -24.333 -13.201  0.00  0.00    +0.206 C 
ATOM     27  C   UNL     1      30.922 -24.390 -16.223  0.00  0.00    +0.008 C 
ATOM     28  C   UNL     1      30.561 -24.485 -13.467  0.00  0.00    +0.038 C 
ATOM     29  C   UNL     1      29.706 -24.827 -15.693  0.00  0.00    +0.000 C 
ATOM     30  C   UNL     1      29.525 -24.871 -14.314  0.00  0.00    +0.003 C 
ENDBRANCH  17  21
ENDBRANCH  16  17
ENDBRANCH   1  16
TORSDOF 6
ENDMDL
MODEL 5
REMARK VINA RESULT:     -10.4      7.496     13.894
REMARK  Name = 9801640
REMARK  6 active torsions:
REMARK  status: ('A' for Active; 'I' for Inactive)
REMARK    1  A    between atoms: C_1  and  C_2
REMARK    2  A    between atoms: C_1  and  C_16
REMARK    3  A    between atoms: C_2  and  N_3
REMARK    4  A    between atoms: C_7  and  C_11
REMARK    5  A    between atoms: C_16  and  C_17
REMARK    6  A    between atoms: C_17  and  N_21
REMARK                            x       y       z     vdW  Elec       q    Type
REMARK                         _______ _______ _______ _____ _____    ______ ____
ROOT
ATOM      1  C   UNL     1      33.982 -23.128 -17.018  0.00  0.00    -0.021 C 
ENDROOT
BRANCH   1   2
ATOM      2  C   UNL     1      33.349 -23.623 -18.318  0.00  0.00    -0.077 C 
BRANCH   2   3
ATOM      3  N   UNL     1      33.609 -22.676 -19.401  0.00  0.00    +0.390 N 
ATOM      4  C   UNL     1      32.658 -21.561 -19.370  0.00  0.00    -0.072 C 
ATOM      5  C   UNL     1      34.993 -22.181 -19.339  0.00  0.00    -0.051 C 
ATOM      6  C   UNL     1      32.850 -20.676 -20.610  0.00  0.00    +0.005 C 
ATOM      7  C   UNL     1      34.298 -20.322 -20.864  0.00  0.00    -0.013 C 
ATOM      8  C   UNL     1      35.274 -21.028 -20.265  0.00  0.00    -0.052 C 
ATOM      9  H   UNL     1      33.485 -23.169 -20.285  0.00  0.00    -0.079 HD
BRANCH   7  11
ATOM     10  N   UNL     1      35.042 -18.058 -21.204  0.00  0.00    -0.244 NA
ATOM     11  C   UNL     1      34.596 -19.196 -21.783  0.00  0.00    +0.077 C 
ATOM     12  C   UNL     1      34.412 -19.347 -23.150  0.00  0.00    +0.019 C 
ATOM     13  C   UNL     1      34.704 -18.264 -23.971  0.00  0.00    +0.003 C 
ATOM     14  C   UNL     1      35.314 -17.025 -22.035  0.00  0.00    +0.099 C 
ATOM     15  C   UNL     1      35.164 -17.077 -23.411  0.00  0.00    +0.021 C 
ENDBRANCH   7  11
ENDBRANCH   2   3
ENDBRANCH   1   2
BRANCH   1  16
ATOM     16  C   UNL     1      33.031 -23.323 -15.833  0.00  0.00    +0.020 C 
BRANCH  16  17
ATOM     17  C   UNL     1      33.135 -24.715 -15.220  0.00  0.00    +0.099 C 
BRANCH  17  21
ATOM     18 CL   UNL     1      33.133 -23.233 -12.684  0.00  0.00    -0.062 Cl
ATOM     19  O   UNL     1      36.131 -25.764 -12.173  0.00  0.00    -0.448 OA
ATOM     20  O   UNL     1      35.331 -26.135 -16.121  0.00  0.00    -0.269 OA
ATOM     21  N   UNL     1      34.351 -24.883 -14.411  0.00  0.00    -0.244 N 
ATOM     22  C   UNL     1      35.429 -25.542 -15.044  0.00  0.00    +0.256 C 
ATOM     23  C   UNL     1      34.355 -24.399 -13.105  0.00  0.00    +0.151 C 
ATOM     24  C   UNL     1      36.799 -25.460 -14.483  0.00  0.00    +0.088 C 
ATOM     25  C   UNL     1      37.091 -25.585 -13.128  0.00  0.00    +0.150 C 
ATOM     26  C   UNL     1      35.169 -24.795 -12.118  0.00  0.00    +0.206 C 
ATOM     27  C   UNL     1      37.859 -25.312 -15.393  0.00  0.00    +0.008 C 
ATOM     28  C   UNL     1      38.417 -25.586 -12.682  0.00  0.00    +0.038 C 
ATOM     29  C   UNL     1      39.182 -25.291 -14.947  0.00  0.00    +0.000 C 
ATOM     30  C   UNL     1      39.461 -25.432 -13.591  0.00  0.00    +0.003 C 
ENDBRANCH  17  21
ENDBRANCH  16  17
ENDBRANCH   1  16
TORSDOF 6
ENDMDL
MODEL 6
REMARK VINA RESULT:     -10.3      6.393     12.829
REMARK  Name = 9801640
REMARK  6 active torsions:
REMARK  status: ('A' for Active; 'I' for Inactive)
REMARK    1  A    between atoms: C_1  and  C_2
REMARK    2  A    between atoms: C_1  and  C_16
REMARK    3  A    between atoms: C_2  and  N_3
REMARK    4  A    between atoms: C_7  and  C_11
REMARK    5  A    between atoms: C_16  and  C_17
REMARK    6  A    between atoms: C_17  and  N_21
REMARK                            x       y       z     vdW  Elec       q    Type
REMARK                         _______ _______ _______ _____ _____    ______ ____
ROOT
ATOM      1  C   UNL     1      34.213 -22.792 -19.135  0.00  0.00    -0.021 C 
ENDROOT
BRANCH   1   2
ATOM      2  C   UNL     1      35.497 -21.963 -19.115  0.00  0.00    -0.077 C 
BRANCH   2   3
ATOM      3  N   UNL     1      35.306 -20.713 -19.848  0.00  0.00    +0.390 N 
ATOM      4  C   UNL     1      36.480 -20.394 -20.666  0.00  0.00    -0.072 C 
ATOM      5  C   UNL     1      34.094 -20.777 -20.680  0.00  0.00    -0.051 C 
ATOM      6  C   UNL     1      36.318 -19.000 -21.291  0.00  0.00    +0.005 C 
ATOM      7  C   UNL     1      34.967 -18.798 -21.940  0.00  0.00    -0.013 C 
ATOM      8  C   UNL     1      33.952 -19.632 -21.646  0.00  0.00    -0.052 C 
ATOM      9  H   UNL     1      35.187 -19.965 -19.166  0.00  0.00    -0.079 HD
BRANCH   7  11
ATOM     10  N   UNL     1      34.889 -16.427 -22.353  0.00  0.00    -0.244 NA
ATOM     11  C   UNL     1      34.804 -17.668 -22.886  0.00  0.00    +0.077 C 
ATOM     12  C   UNL     1      34.578 -17.916 -24.233  0.00  0.00    +0.019 C 
ATOM     13  C   UNL     1      34.431 -16.825 -25.082  0.00  0.00    +0.003 C 
ATOM     14  C   UNL     1      34.740 -15.391 -23.209  0.00  0.00    +0.099 C 
ATOM     15  C   UNL     1      34.512 -15.535 -24.568  0.00  0.00    +0.021 C 
ENDBRANCH   7  11
ENDBRANCH   2   3
ENDBRANCH   1   2
BRANCH   1  16
ATOM     16  C   UNL     1      33.431 -22.630 -17.828  0.00  0.00    +0.020 C 
BRANCH  16  17
ATOM     17  C   UNL     1      33.136 -23.964 -17.152  0.00  0.00    +0.099 C 
BRANCH  17  21
ATOM     18 CL   UNL     1      31.000 -22.916 -15.430  0.00  0.00    -0.062 Cl
ATOM     19  O   UNL     1      33.384 -24.695 -12.821  0.00  0.00    -0.448 OA
ATOM     20  O   UNL     1      35.631 -24.663 -16.185  0.00  0.00    -0.269 OA
ATOM     21  N   UNL     1      33.457 -23.951 -15.718  0.00  0.00    -0.244 N 
ATOM     22  C   UNL     1      34.801 -24.229 -15.382  0.00  0.00    +0.256 C 
ATOM     23  C   UNL     1      32.437 -23.677 -14.809  0.00  0.00    +0.151 C 
ATOM     24  C   UNL     1      35.326 -23.903 -14.035  0.00  0.00    +0.088 C 
ATOM     25  C   UNL     1      34.636 -24.151 -12.852  0.00  0.00    +0.150 C 
ATOM     26  C   UNL     1      32.427 -24.006 -13.511  0.00  0.00    +0.206 C 
ATOM     27  C   UNL     1      36.625 -23.371 -13.962  0.00  0.00    +0.008 C 
ATOM     28  C   UNL     1      35.234 -23.897 -11.612  0.00  0.00    +0.038 C 
ATOM     29  C   UNL     1      37.214 -23.097 -12.726  0.00  0.00    +0.000 C 
ATOM     30  C   UNL     1      36.519 -23.364 -11.551  0.00  0.00    +0.003 C 
ENDBRANCH  17  21
ENDBRANCH  16  17
ENDBRANCH   1  16
TORSDOF 6
ENDMDL
MODEL 7
REMARK VINA RESULT:      -9.9      2.841      4.607
REMARK  Name = 9801640
REMARK  6 active torsions:
REMARK  status: ('A' for Active; 'I' for Inactive)
REMARK    1  A    between atoms: C_1  and  C_2
REMARK    2  A    between atoms: C_1  and  C_16
REMARK    3  A    between atoms: C_2  and  N_3
REMARK    4  A    between atoms: C_7  and  C_11
REMARK    5  A    between atoms: C_16  and  C_17
REMARK    6  A    between atoms: C_17  and  N_21
REMARK                            x       y       z     vdW  Elec       q    Type
REMARK                         _______ _______ _______ _____ _____    ______ ____
ROOT
ATOM      1  C   UNL     1      33.901 -10.399 -24.285  0.00  0.00    -0.021 C 
ENDROOT
BRANCH   1   2
ATOM      2  C   UNL     1      33.467 -11.457 -25.299  0.00  0.00    -0.077 C 
BRANCH   2   3
ATOM      3  N   UNL     1      33.996 -12.766 -24.923  0.00  0.00    +0.390 N 
ATOM      4  C   UNL     1      33.690 -13.079 -23.524  0.00  0.00    -0.072 C 
ATOM      5  C   UNL     1      33.476 -13.814 -25.816  0.00  0.00    -0.051 C 
ATOM      6  C   UNL     1      34.399 -14.379 -23.113  0.00  0.00    +0.005 C 
ATOM      7  C   UNL     1      34.207 -15.497 -24.112  0.00  0.00    -0.013 C 
ATOM      8  C   UNL     1      33.777 -15.216 -25.356  0.00  0.00    -0.052 C 
ATOM      9  H   UNL     1      35.010 -12.735 -25.023  0.00  0.00    -0.079 HD
BRANCH   7  11
ATOM     10  N   UNL     1      35.122 -17.016 -22.484  0.00  0.00    -0.244 NA
ATOM     11  C   UNL     1      34.509 -16.884 -23.682  0.00  0.00    +0.077 C 
ATOM     12  C   UNL     1      34.164 -17.954 -24.495  0.00  0.00    +0.019 C 
ATOM     13  C   UNL     1      34.468 -19.236 -24.050  0.00  0.00    +0.003 C 
ATOM     14  C   UNL     1      35.403 -18.277 -22.085  0.00  0.00    +0.099 C 
ATOM     15  C   UNL     1      35.099 -19.409 -22.823  0.00  0.00    +0.021 C 
ENDBRANCH   7  11
ENDBRANCH   2   3
ENDBRANCH   1   2
BRANCH   1  16
ATOM     16  C   UNL     1      32.687  -9.743 -23.619  0.00  0.00    +0.020 C 
BRANCH  16  17
ATOM     17  C   UNL     1      33.065  -8.535 -22.769  0.00  0.00    +0.099 C 
BRANCH  17  21
ATOM     18 CL   UNL     1      30.356  -7.687 -23.524  0.00  0.00    -0.062 Cl
ATOM     19  O   UNL     1      32.469  -4.398 -24.144  0.00  0.00    -0.448 OA
ATOM     20  O   UNL     1      35.339  -7.198 -23.601  0.00  0.00    -0.269 OA
ATOM     21  N   UNL     1      33.007  -7.276 -23.526  0.00  0.00    -0.244 N 
ATOM     22  C   UNL     1      34.245  -6.765 -23.974  0.00  0.00    +0.256 C 
ATOM     23  C   UNL     1      31.763  -6.684 -23.739  0.00  0.00    +0.151 C 
ATOM     24  C   UNL     1      34.297  -5.723 -25.027  0.00  0.00    +0.088 C 
ATOM     25  C   UNL     1      33.454  -4.617 -25.065  0.00  0.00    +0.150 C 
ATOM     26  C   UNL     1      31.542  -5.396 -24.029  0.00  0.00    +0.206 C 
ATOM     27  C   UNL     1      35.302  -5.842 -26.001  0.00  0.00    +0.008 C 
ATOM     28  C   UNL     1      33.621  -3.628 -26.041  0.00  0.00    +0.038 C 
ATOM     29  C   UNL     1      35.456  -4.867 -26.988  0.00  0.00    +0.000 C 
ATOM     30  C   UNL     1      34.617  -3.757 -27.006  0.00  0.00    +0.003 C 
ENDBRANCH  17  21
ENDBRANCH  16  17
ENDBRANCH   1  16
TORSDOF 6
ENDMDL
MODEL 8
REMARK VINA RESULT:      -9.9      2.496      4.098
REMARK  Name = 9801640
REMARK  6 active torsions:
REMARK  status: ('A' for Active; 'I' for Inactive)
REMARK    1  A    between atoms: C_1  and  C_2
REMARK    2  A    between atoms: C_1  and  C_16
REMARK    3  A    between atoms: C_2  and  N_3
REMARK    4  A    between atoms: C_7  and  C_11
REMARK    5  A    between atoms: C_16  and  C_17
REMARK    6  A    between atoms: C_17  and  N_21
REMARK                            x       y       z     vdW  Elec       q    Type
REMARK                         _______ _______ _______ _____ _____    ______ ____
ROOT
ATOM      1  C   UNL     1      34.677 -10.949 -26.352  0.00  0.00    -0.021 C 
ENDROOT
BRANCH   1   2
ATOM      2  C   UNL     1      33.591 -11.694 -25.577  0.00  0.00    -0.077 C 
BRANCH   2   3
ATOM      3  N   UNL     1      34.105 -12.967 -25.079  0.00  0.00    +0.390 N 
ATOM      4  C   UNL     1      33.823 -13.130 -23.650  0.00  0.00    -0.072 C 
ATOM      5  C   UNL     1      33.550 -14.091 -25.849  0.00  0.00    -0.051 C 
ATOM      6  C   UNL     1      34.518 -14.394 -23.121  0.00  0.00    +0.005 C 
ATOM      7  C   UNL     1      34.287 -15.605 -23.996  0.00  0.00    -0.013 C 
ATOM      8  C   UNL     1      33.837 -15.443 -25.254  0.00  0.00    -0.052 C 
ATOM      9  H   UNL     1      35.118 -12.965 -25.200  0.00  0.00    -0.079 HD
BRANCH   7  11
ATOM     10  N   UNL     1      35.059 -16.969 -22.169  0.00  0.00    -0.244 NA
ATOM     11  C   UNL     1      34.574 -16.946 -23.432  0.00  0.00    +0.077 C 
ATOM     12  C   UNL     1      34.344 -18.083 -24.193  0.00  0.00    +0.019 C 
ATOM     13  C   UNL     1      34.630 -19.319 -23.622  0.00  0.00    +0.003 C 
ATOM     14  C   UNL     1      35.325 -18.188 -21.648  0.00  0.00    +0.099 C 
ATOM     15  C   UNL     1      35.130 -19.380 -22.325  0.00  0.00    +0.021 C 
ENDBRANCH   7  11
ENDBRANCH   2   3
ENDBRANCH   1   2
BRANCH   1  16
ATOM     16  C   UNL     1      34.608  -9.442 -26.088  0.00  0.00    +0.020 C 
BRANCH  16  17
ATOM     17  C   UNL     1      34.749  -9.098 -24.609  0.00  0.00    +0.099 C 
BRANCH  17  21
ATOM     18 CL   UNL     1      32.200  -9.634 -23.252  0.00  0.00    -0.062 Cl
ATOM     19  O   UNL     1      32.745  -5.784 -22.521  0.00  0.00    -0.448 OA
ATOM     20  O   UNL     1      35.554  -6.552 -25.330  0.00  0.00    -0.269 OA
ATOM     21  N   UNL     1      33.988  -7.896 -24.238  0.00  0.00    -0.244 N 
ATOM     22  C   UNL     1      34.464  -6.675 -24.766  0.00  0.00    +0.256 C 
ATOM     23  C   UNL     1      32.881  -8.039 -23.404  0.00  0.00    +0.151 C 
ATOM     24  C   UNL     1      33.606  -5.466 -24.765  0.00  0.00    +0.088 C 
ATOM     25  C   UNL     1      32.823  -5.072 -23.684  0.00  0.00    +0.150 C 
ATOM     26  C   UNL     1      32.329  -7.079 -22.652  0.00  0.00    +0.206 C 
ATOM     27  C   UNL     1      33.645  -4.648 -25.906  0.00  0.00    +0.008 C 
ATOM     28  C   UNL     1      32.107  -3.870 -23.724  0.00  0.00    +0.038 C 
ATOM     29  C   UNL     1      32.914  -3.459 -25.956  0.00  0.00    +0.000 C 
ATOM     30  C   UNL     1      32.148  -3.068 -24.863  0.00  0.00    +0.003 C 
ENDBRANCH  17  21
ENDBRANCH  16  17
ENDBRANCH   1  16
TORSDOF 6
ENDMDL
MODEL 9
REMARK VINA RESULT:      -9.8      4.135     11.005
REMARK  Name = 9801640
REMARK  6 active torsions:
REMARK  status: ('A' for Active; 'I' for Inactive)
REMARK    1  A    between atoms: C_1  and  C_2
REMARK    2  A    between atoms: C_1  and  C_16
REMARK    3  A    between atoms: C_2  and  N_3
REMARK    4  A    between atoms: C_7  and  C_11
REMARK    5  A    between atoms: C_16  and  C_17
REMARK    6  A    between atoms: C_17  and  N_21
REMARK                            x       y       z     vdW  Elec       q    Type
REMARK                         _______ _______ _______ _____ _____    ______ ____
ROOT
ATOM      1  C   UNL     1      34.769 -18.350 -22.802  0.00  0.00    -0.021 C 
ENDROOT
BRANCH   1   2
ATOM      2  C   UNL     1      35.450 -16.982 -22.829  0.00  0.00    -0.077 C 
BRANCH   2   3
ATOM      3  N   UNL     1      34.454 -15.918 -22.726  0.00  0.00    +0.390 N 
ATOM      4  C   UNL     1      34.544 -15.231 -21.434  0.00  0.00    -0.072 C 
ATOM      5  C   UNL     1      34.597 -14.961 -23.834  0.00  0.00    -0.051 C 
ATOM      6  C   UNL     1      33.384 -14.235 -21.289  0.00  0.00    +0.005 C 
ATOM      7  C   UNL     1      33.203 -13.359 -22.508  0.00  0.00    -0.013 C 
ATOM      8  C   UNL     1      33.774 -13.711 -23.675  0.00  0.00    -0.052 C 
ATOM      9  H   UNL     1      33.530 -16.345 -22.789  0.00  0.00    -0.079 HD
BRANCH   7  11
ATOM     10  N   UNL     1      32.751 -11.084 -23.154  0.00  0.00    -0.244 NA
ATOM     11  C   UNL     1      32.386 -12.128 -22.375  0.00  0.00    +0.077 C 
ATOM     12  C   UNL     1      31.319 -12.095 -21.489  0.00  0.00    +0.019 C 
ATOM     13  C   UNL     1      30.583 -10.919 -21.397  0.00  0.00    +0.003 C 
ATOM     14  C   UNL     1      32.012  -9.957 -23.037  0.00  0.00    +0.099 C 
ATOM     15  C   UNL     1      30.929  -9.825 -22.183  0.00  0.00    +0.021 C 
ENDBRANCH   7  11
ENDBRANCH   2   3
ENDBRANCH   1   2
BRANCH   1  16
ATOM     16  C   UNL     1      34.983 -19.046 -21.454  0.00  0.00    +0.020 C 
BRANCH  16  17
ATOM     17  C   UNL     1      34.999 -20.566 -21.574  0.00  0.00    +0.099 C 
BRANCH  17  21
ATOM     18 CL   UNL     1      32.233 -20.338 -20.611  0.00  0.00    -0.062 Cl
ATOM     19  O   UNL     1      33.679 -23.231 -18.332  0.00  0.00    -0.448 OA
ATOM     20  O   UNL     1      37.009 -21.747 -20.086  0.00  0.00    -0.269 OA
ATOM     21  N   UNL     1      34.740 -21.233 -20.290  0.00  0.00    -0.244 N 
ATOM     22  C   UNL     1      35.879 -21.697 -19.593  0.00  0.00    +0.256 C 
ATOM     23  C   UNL     1      33.421 -21.366 -19.861  0.00  0.00    +0.151 C 
ATOM     24  C   UNL     1      35.792 -22.057 -18.158  0.00  0.00    +0.088 C 
ATOM     25  C   UNL     1      34.749 -22.792 -17.604  0.00  0.00    +0.150 C 
ATOM     26  C   UNL     1      32.966 -22.258 -18.972  0.00  0.00    +0.206 C 
ATOM     27  C   UNL     1      36.866 -21.678 -17.334  0.00  0.00    +0.008 C 
ATOM     28  C   UNL     1      34.780 -23.170 -16.257  0.00  0.00    +0.038 C 
ATOM     29  C   UNL     1      36.888 -22.036 -15.984  0.00  0.00    +0.000 C 
ATOM     30  C   UNL     1      35.846 -22.785 -15.447  0.00  0.00    +0.003 C 
ENDBRANCH  17  21
ENDBRANCH  16  17
ENDBRANCH   1  16
TORSDOF 6
ENDMDL
