MODEL 1
REMARK VINA RESULT:     -12.1      0.000      0.000
REMARK  Name = 24882195
REMARK  2 active torsions:
REMARK  status: ('A' for Active; 'I' for Inactive)
REMARK    1  A    between atoms: C_5  and  N_15
REMARK    2  A    between atoms: N_15  and  C_21
REMARK                            x       y       z     vdW  Elec       q    Type
REMARK                         _______ _______ _______ _____ _____    ______ ____
ROOT
ATOM      1  C   UNL     1      34.702 -22.184 -18.382  0.00  0.00    +0.001 C 
ATOM      2  C   UNL     1      33.384 -22.030 -18.865  0.00  0.00    +0.000 C 
ATOM      3  C   UNL     1      35.527 -20.732 -20.174  0.00  0.00    +0.000 C 
ATOM      4  C   UNL     1      34.209 -20.577 -20.658  0.00  0.00    +0.000 C 
ATOM      5  C   UNL     1      33.872 -23.626 -16.606  0.00  0.00    +0.049 C 
ATOM      6  C   UNL     1      35.756 -21.533 -19.044  0.00  0.00    +0.000 C 
ATOM      7  C   UNL     1      34.930 -22.986 -17.252  0.00  0.00    +0.015 C 
ATOM      8  C   UNL     1      33.154 -21.229 -19.996  0.00  0.00    +0.000 C 
ATOM      9  C   UNL     1      32.329 -22.681 -18.203  0.00  0.00    +0.001 C 
ATOM     10  C   UNL     1      32.573 -23.474 -17.081  0.00  0.00    +0.015 C 
ATOM     11  C   UNL     1      36.581 -20.081 -20.837  0.00  0.00    +0.000 C 
ATOM     12  C   UNL     1      33.980 -19.776 -21.788  0.00  0.00    +0.000 C 
ATOM     13  C   UNL     1      36.338 -19.288 -21.959  0.00  0.00    +0.000 C 
ATOM     14  C   UNL     1      35.039 -19.136 -22.433  0.00  0.00    +0.000 C 
ENDROOT
BRANCH   5  15
ATOM     15  N   UNL     1      34.119 -24.427 -15.471  0.00  0.00    -0.299 N 
ATOM     16  H   UNL     1      33.372 -24.999 -15.181  0.00  0.00    +0.153 HD
BRANCH  15  21
ATOM     17  N   UNL     1      36.094 -25.601 -14.963  0.00  0.00    -0.106 N 
ATOM     18  N   UNL     1      37.667 -24.897 -13.286  0.00  0.00    -0.340 NA
ATOM     19  N   UNL     1      35.955 -26.618 -15.854  0.00  0.00    -0.139 NA
ATOM     20  N   UNL     1      37.883 -26.878 -14.670  0.00  0.00    -0.145 NA
ATOM     21  C   UNL     1      35.244 -24.513 -14.729  0.00  0.00    +0.138 C 
ATOM     22  C   UNL     1      35.594 -23.624 -13.787  0.00  0.00    +0.061 C 
ATOM     23  C   UNL     1      37.284 -25.781 -14.250  0.00  0.00    +0.174 C 
ATOM     24  C   UNL     1      36.878 -23.887 -13.069  0.00  0.00    +0.125 C 
ATOM     25  C   UNL     1      37.283 -22.897 -12.007  0.00  0.00    +0.068 C 
ATOM     26  C   UNL     1      37.047 -27.342 -15.633  0.00  0.00    +0.230 C 
ENDBRANCH  15  21
ENDBRANCH   5  15
TORSDOF 2
ENDMDL
MODEL 2
REMARK VINA RESULT:     -11.9      1.223      2.240
REMARK  Name = 24882195
REMARK  2 active torsions:
REMARK  status: ('A' for Active; 'I' for Inactive)
REMARK    1  A    between atoms: C_5  and  N_15
REMARK    2  A    between atoms: N_15  and  C_21
REMARK                            x       y       z     vdW  Elec       q    Type
REMARK                         _______ _______ _______ _____ _____    ______ ____
ROOT
ATOM      1  C   UNL     1      34.929 -22.434 -18.016  0.00  0.00    +0.001 C 
ATOM      2  C   UNL     1      33.564 -22.431 -18.375  0.00  0.00    +0.000 C 
ATOM      3  C   UNL     1      35.427 -20.948 -19.899  0.00  0.00    +0.000 C 
ATOM      4  C   UNL     1      34.062 -20.944 -20.258  0.00  0.00    +0.000 C 
ATOM      5  C   UNL     1      34.424 -23.912 -16.149  0.00  0.00    +0.049 C 
ATOM      6  C   UNL     1      35.843 -21.693 -18.783  0.00  0.00    +0.000 C 
ATOM      7  C   UNL     1      35.344 -23.180 -16.901  0.00  0.00    +0.015 C 
ATOM      8  C   UNL     1      33.147 -21.686 -19.492  0.00  0.00    +0.000 C 
ATOM      9  C   UNL     1      32.650 -23.173 -17.608  0.00  0.00    +0.001 C 
ATOM     10  C   UNL     1      33.078 -23.908 -16.502  0.00  0.00    +0.015 C 
ATOM     11  C   UNL     1      36.340 -20.206 -20.666  0.00  0.00    +0.000 C 
ATOM     12  C   UNL     1      33.646 -20.199 -21.374  0.00  0.00    +0.000 C 
ATOM     13  C   UNL     1      35.912 -19.471 -21.772  0.00  0.00    +0.000 C 
ATOM     14  C   UNL     1      34.567 -19.467 -22.125  0.00  0.00    +0.000 C 
ENDROOT
BRANCH   5  15
ATOM     15  N   UNL     1      34.858 -24.655 -15.031  0.00  0.00    -0.299 N 
ATOM     16  H   UNL     1      34.168 -25.198 -14.585  0.00  0.00    +0.153 HD
BRANCH  15  21
ATOM     17  N   UNL     1      36.221 -24.425 -13.127  0.00  0.00    -0.106 N 
ATOM     18  N   UNL     1      38.597 -24.791 -13.139  0.00  0.00    -0.340 NA
ATOM     19  N   UNL     1      35.258 -24.072 -12.236  0.00  0.00    -0.139 NA
ATOM     20  N   UNL     1      37.286 -24.145 -11.203  0.00  0.00    -0.145 NA
ATOM     21  C   UNL     1      36.094 -24.719 -14.491  0.00  0.00    +0.138 C 
ATOM     22  C   UNL     1      37.200 -25.047 -15.176  0.00  0.00    +0.061 C 
ATOM     23  C   UNL     1      37.455 -24.463 -12.471  0.00  0.00    +0.174 C 
ATOM     24  C   UNL     1      38.479 -25.065 -14.404  0.00  0.00    +0.125 C 
ATOM     25  C   UNL     1      39.730 -25.429 -15.163  0.00  0.00    +0.068 C 
ATOM     26  C   UNL     1      35.951 -23.920 -11.112  0.00  0.00    +0.230 C 
ENDBRANCH  15  21
ENDBRANCH   5  15
TORSDOF 2
ENDMDL
MODEL 3
REMARK VINA RESULT:     -11.6      2.253      4.229
REMARK  Name = 24882195
REMARK  2 active torsions:
REMARK  status: ('A' for Active; 'I' for Inactive)
REMARK    1  A    between atoms: C_5  and  N_15
REMARK    2  A    between atoms: N_15  and  C_21
REMARK                            x       y       z     vdW  Elec       q    Type
REMARK                         _______ _______ _______ _____ _____    ______ ____
ROOT
ATOM      1  C   UNL     1      34.165 -21.257 -20.087  0.00  0.00    +0.001 C 
ATOM      2  C   UNL     1      35.513 -21.061 -19.714  0.00  0.00    +0.000 C 
ATOM      3  C   UNL     1      34.420 -19.606 -21.878  0.00  0.00    +0.000 C 
ATOM      4  C   UNL     1      35.769 -19.410 -21.506  0.00  0.00    +0.000 C 
ATOM      5  C   UNL     1      33.921 -22.896 -18.304  0.00  0.00    +0.049 C 
ATOM      6  C   UNL     1      33.636 -20.526 -21.163  0.00  0.00    +0.000 C 
ATOM      7  C   UNL     1      33.382 -22.177 -19.371  0.00  0.00    +0.015 C 
ATOM      8  C   UNL     1      36.298 -20.140 -20.429  0.00  0.00    +0.000 C 
ATOM      9  C   UNL     1      36.041 -21.792 -18.637  0.00  0.00    +0.001 C 
ATOM     10  C   UNL     1      35.250 -22.704 -17.937  0.00  0.00    +0.015 C 
ATOM     11  C   UNL     1      33.893 -18.874 -22.955  0.00  0.00    +0.000 C 
ATOM     12  C   UNL     1      36.552 -18.489 -22.221  0.00  0.00    +0.000 C 
ATOM     13  C   UNL     1      34.684 -17.964 -23.655  0.00  0.00    +0.000 C 
ATOM     14  C   UNL     1      36.012 -17.772 -23.289  0.00  0.00    +0.000 C 
ENDROOT
BRANCH   5  15
ATOM     15  N   UNL     1      33.120 -23.817 -17.596  0.00  0.00    -0.299 N 
ATOM     16  H   UNL     1      33.136 -24.742 -17.931  0.00  0.00    +0.153 HD
BRANCH  15  21
ATOM     17  N   UNL     1      32.883 -23.834 -15.255  0.00  0.00    -0.106 N 
ATOM     18  N   UNL     1      30.862 -23.202 -14.117  0.00  0.00    -0.340 NA
ATOM     19  N   UNL     1      34.131 -24.266 -14.933  0.00  0.00    -0.139 NA
ATOM     20  N   UNL     1      32.909 -23.933 -13.041  0.00  0.00    -0.145 NA
ATOM     21  C   UNL     1      32.333 -23.597 -16.521  0.00  0.00    +0.138 C 
ATOM     22  C   UNL     1      31.063 -23.168 -16.592  0.00  0.00    +0.061 C 
ATOM     23  C   UNL     1      32.153 -23.636 -14.079  0.00  0.00    +0.174 C 
ATOM     24  C   UNL     1      30.351 -22.982 -15.292  0.00  0.00    +0.125 C 
ATOM     25  C   UNL     1      28.924 -22.501 -15.357  0.00  0.00    +0.068 C 
ATOM     26  C   UNL     1      34.085 -24.304 -13.606  0.00  0.00    +0.230 C 
ENDBRANCH  15  21
ENDBRANCH   5  15
TORSDOF 2
ENDMDL
MODEL 4
REMARK VINA RESULT:     -11.2      9.824     13.805
REMARK  Name = 24882195
REMARK  2 active torsions:
REMARK  status: ('A' for Active; 'I' for Inactive)
REMARK    1  A    between atoms: C_5  and  N_15
REMARK    2  A    between atoms: N_15  and  C_21
REMARK                            x       y       z     vdW  Elec       q    Type
REMARK                         _______ _______ _______ _____ _____    ______ ____
ROOT
ATOM      1  C   UNL     1      34.286 -14.689 -23.579  0.00  0.00    +0.001 C 
ATOM      2  C   UNL     1      33.921 -15.288 -24.804  0.00  0.00    +0.000 C 
ATOM      3  C   UNL     1      34.832 -16.895 -22.663  0.00  0.00    +0.000 C 
ATOM      4  C   UNL     1      34.467 -17.495 -23.889  0.00  0.00    +0.000 C 
ATOM      5  C   UNL     1      33.741 -12.502 -24.497  0.00  0.00    +0.049 C 
ATOM      6  C   UNL     1      34.736 -15.501 -22.524  0.00  0.00    +0.000 C 
ATOM      7  C   UNL     1      34.189 -13.295 -23.440  0.00  0.00    +0.015 C 
ATOM      8  C   UNL     1      34.017 -16.683 -24.944  0.00  0.00    +0.000 C 
ATOM      9  C   UNL     1      33.471 -14.476 -25.859  0.00  0.00    +0.001 C 
ATOM     10  C   UNL     1      33.381 -13.092 -25.705  0.00  0.00    +0.015 C 
ATOM     11  C   UNL     1      35.282 -17.708 -21.610  0.00  0.00    +0.000 C 
ATOM     12  C   UNL     1      34.563 -18.889 -24.028  0.00  0.00    +0.000 C 
ATOM     13  C   UNL     1      35.371 -19.091 -21.763  0.00  0.00    +0.000 C 
ATOM     14  C   UNL     1      35.013 -19.681 -22.971  0.00  0.00    +0.000 C 
ENDROOT
BRANCH   5  15
ATOM     15  N   UNL     1      33.650 -11.103 -24.341  0.00  0.00    -0.299 N 
ATOM     16  H   UNL     1      34.117 -10.566 -25.022  0.00  0.00    +0.153 HD
BRANCH  15  21
ATOM     17  N   UNL     1      33.324  -9.043 -23.252  0.00  0.00    -0.106 N 
ATOM     18  N   UNL     1      31.786  -8.729 -21.430  0.00  0.00    -0.340 NA
ATOM     19  N   UNL     1      34.204  -8.297 -23.970  0.00  0.00    -0.139 NA
ATOM     20  N   UNL     1      33.195  -7.004 -22.391  0.00  0.00    -0.145 NA
ATOM     21  C   UNL     1      33.010 -10.402 -23.380  0.00  0.00    +0.138 C 
ATOM     22  C   UNL     1      32.097 -10.925 -22.548  0.00  0.00    +0.061 C 
ATOM     23  C   UNL     1      32.717  -8.228 -22.291  0.00  0.00    +0.174 C 
ATOM     24  C   UNL     1      31.495  -9.991 -21.549  0.00  0.00    +0.125 C 
ATOM     25  C   UNL     1      30.469 -10.566 -20.607  0.00  0.00    +0.068 C 
ATOM     26  C   UNL     1      34.082  -7.097 -23.413  0.00  0.00    +0.230 C 
ENDBRANCH  15  21
ENDBRANCH   5  15
TORSDOF 2
ENDMDL
MODEL 5
REMARK VINA RESULT:     -11.2      1.789      2.785
REMARK  Name = 24882195
REMARK  2 active torsions:
REMARK  status: ('A' for Active; 'I' for Inactive)
REMARK    1  A    between atoms: C_5  and  N_15
REMARK    2  A    between atoms: N_15  and  C_21
REMARK                            x       y       z     vdW  Elec       q    Type
REMARK                         _______ _______ _______ _____ _____    ______ ____
ROOT
ATOM      1  C   UNL     1      35.365 -21.289 -19.418  0.00  0.00    +0.001 C 
ATOM      2  C   UNL     1      34.010 -21.393 -19.800  0.00  0.00    +0.000 C 
ATOM      3  C   UNL     1      35.766 -19.731 -21.265  0.00  0.00    +0.000 C 
ATOM      4  C   UNL     1      34.411 -19.834 -21.648  0.00  0.00    +0.000 C 
ATOM      5  C   UNL     1      34.956 -22.839 -17.586  0.00  0.00    +0.049 C 
ATOM      6  C   UNL     1      36.225 -20.460 -20.156  0.00  0.00    +0.000 C 
ATOM      7  C   UNL     1      35.823 -22.019 -18.309  0.00  0.00    +0.015 C 
ATOM      8  C   UNL     1      33.549 -20.664 -20.910  0.00  0.00    +0.000 C 
ATOM      9  C   UNL     1      33.149 -22.223 -19.062  0.00  0.00    +0.001 C 
ATOM     10  C   UNL     1      33.620 -22.941 -17.962  0.00  0.00    +0.015 C 
ATOM     11  C   UNL     1      36.626 -18.901 -22.004  0.00  0.00    +0.000 C 
ATOM     12  C   UNL     1      33.952 -19.105 -22.757  0.00  0.00    +0.000 C 
ATOM     13  C   UNL     1      36.155 -18.183 -23.103  0.00  0.00    +0.000 C 
ATOM     14  C   UNL     1      34.820 -18.285 -23.479  0.00  0.00    +0.000 C 
ENDROOT
BRANCH   5  15
ATOM     15  N   UNL     1      35.433 -23.564 -16.474  0.00  0.00    -0.299 N 
ATOM     16  H   UNL     1      36.353 -23.907 -16.550  0.00  0.00    +0.153 HD
BRANCH  15  21
ATOM     17  N   UNL     1      35.499 -23.661 -14.124  0.00  0.00    -0.106 N 
ATOM     18  N   UNL     1      33.653 -24.393 -12.769  0.00  0.00    -0.340 NA
ATOM     19  N   UNL     1      36.770 -23.213 -13.943  0.00  0.00    -0.139 NA
ATOM     20  N   UNL     1      35.807 -23.661 -11.929  0.00  0.00    -0.145 NA
ATOM     21  C   UNL     1      34.795 -23.852 -15.319  0.00  0.00    +0.138 C 
ATOM     22  C   UNL     1      33.535 -24.309 -15.249  0.00  0.00    +0.061 C 
ATOM     23  C   UNL     1      34.929 -23.928 -12.875  0.00  0.00    +0.174 C 
ATOM     24  C   UNL     1      32.999 -24.571 -13.879  0.00  0.00    +0.125 C 
ATOM     25  C   UNL     1      31.585 -25.085 -13.785  0.00  0.00    +0.068 C 
ATOM     26  C   UNL     1      36.894 -23.235 -12.620  0.00  0.00    +0.230 C 
ENDBRANCH  15  21
ENDBRANCH   5  15
TORSDOF 2
ENDMDL
MODEL 6
REMARK VINA RESULT:     -11.2      2.648      3.951
REMARK  Name = 24882195
REMARK  2 active torsions:
REMARK  status: ('A' for Active; 'I' for Inactive)
REMARK    1  A    between atoms: C_5  and  N_15
REMARK    2  A    between atoms: N_15  and  C_21
REMARK                            x       y       z     vdW  Elec       q    Type
REMARK                         _______ _______ _______ _____ _____    ______ ____
ROOT
ATOM      1  C   UNL     1      33.969 -21.312 -19.844  0.00  0.00    +0.001 C 
ATOM      2  C   UNL     1      35.335 -21.305 -19.489  0.00  0.00    +0.000 C 
ATOM      3  C   UNL     1      34.435 -19.747 -21.669  0.00  0.00    +0.000 C 
ATOM      4  C   UNL     1      35.803 -19.739 -21.315  0.00  0.00    +0.000 C 
ATOM      5  C   UNL     1      33.515 -22.867 -18.027  0.00  0.00    +0.049 C 
ATOM      6  C   UNL     1      33.537 -20.532 -20.929  0.00  0.00    +0.000 C 
ATOM      7  C   UNL     1      33.071 -22.098 -19.103  0.00  0.00    +0.015 C 
ATOM      8  C   UNL     1      36.235 -20.519 -20.229  0.00  0.00    +0.000 C 
ATOM      9  C   UNL     1      35.768 -22.085 -18.403  0.00  0.00    +0.001 C 
ATOM     10  C   UNL     1      34.863 -22.861 -17.677  0.00  0.00    +0.015 C 
ATOM     11  C   UNL     1      34.005 -18.966 -22.755  0.00  0.00    +0.000 C 
ATOM     12  C   UNL     1      36.701 -18.954 -22.055  0.00  0.00    +0.000 C 
ATOM     13  C   UNL     1      34.909 -18.191 -23.480  0.00  0.00    +0.000 C 
ATOM     14  C   UNL     1      36.255 -18.185 -23.131  0.00  0.00    +0.000 C 
ENDROOT
BRANCH   5  15
ATOM     15  N   UNL     1      32.600 -23.651 -17.294  0.00  0.00    -0.299 N 
ATOM     16  H   UNL     1      31.856 -24.035 -17.812  0.00  0.00    +0.153 HD
BRANCH  15  21
ATOM     17  N   UNL     1      31.402 -24.355 -15.395  0.00  0.00    -0.106 N 
ATOM     18  N   UNL     1      32.389 -24.613 -13.218  0.00  0.00    -0.340 NA
ATOM     19  N   UNL     1      30.183 -24.508 -15.976  0.00  0.00    -0.139 NA
ATOM     20  N   UNL     1      30.063 -25.032 -13.763  0.00  0.00    -0.145 NA
ATOM     21  C   UNL     1      32.609 -23.945 -15.976  0.00  0.00    +0.138 C 
ATOM     22  C   UNL     1      33.696 -23.867 -15.194  0.00  0.00    +0.061 C 
ATOM     23  C   UNL     1      31.304 -24.682 -14.039  0.00  0.00    +0.174 C 
ATOM     24  C   UNL     1      33.509 -24.233 -13.757  0.00  0.00    +0.125 C 
ATOM     25  C   UNL     1      34.723 -24.149 -12.867  0.00  0.00    +0.068 C 
ATOM     26  C   UNL     1      29.430 -24.912 -14.958  0.00  0.00    +0.230 C 
ENDBRANCH  15  21
ENDBRANCH   5  15
TORSDOF 2
ENDMDL
MODEL 7
REMARK VINA RESULT:     -11.2      1.100      2.037
REMARK  Name = 24882195
REMARK  2 active torsions:
REMARK  status: ('A' for Active; 'I' for Inactive)
REMARK    1  A    between atoms: C_5  and  N_15
REMARK    2  A    between atoms: N_15  and  C_21
REMARK                            x       y       z     vdW  Elec       q    Type
REMARK                         _______ _______ _______ _____ _____    ______ ____
ROOT
ATOM      1  C   UNL     1      34.693 -21.973 -18.578  0.00  0.00    +0.001 C 
ATOM      2  C   UNL     1      36.054 -21.602 -18.530  0.00  0.00    +0.000 C 
ATOM      3  C   UNL     1      34.409 -20.667 -20.631  0.00  0.00    +0.000 C 
ATOM      4  C   UNL     1      35.771 -20.295 -20.584  0.00  0.00    +0.000 C 
ATOM      5  C   UNL     1      34.984 -23.268 -16.538  0.00  0.00    +0.049 C 
ATOM      6  C   UNL     1      33.888 -21.501 -19.628  0.00  0.00    +0.000 C 
ATOM      7  C   UNL     1      34.172 -22.807 -17.575  0.00  0.00    +0.015 C 
ATOM      8  C   UNL     1      36.576 -20.767 -19.533  0.00  0.00    +0.000 C 
ATOM      9  C   UNL     1      36.859 -22.075 -17.480  0.00  0.00    +0.001 C 
ATOM     10  C   UNL     1      36.326 -22.903 -16.490  0.00  0.00    +0.015 C 
ATOM     11  C   UNL     1      33.605 -20.193 -21.681  0.00  0.00    +0.000 C 
ATOM     12  C   UNL     1      36.292 -19.461 -21.587  0.00  0.00    +0.000 C 
ATOM     13  C   UNL     1      34.137 -19.366 -22.670  0.00  0.00    +0.000 C 
ATOM     14  C   UNL     1      35.479 -19.001 -22.623  0.00  0.00    +0.000 C 
ENDROOT
BRANCH   5  15
ATOM     15  N   UNL     1      34.445 -24.105 -15.539  0.00  0.00    -0.299 N 
ATOM     16  H   UNL     1      33.500 -24.353 -15.653  0.00  0.00    +0.153 HD
BRANCH  15  21
ATOM     17  N   UNL     1      35.884 -25.725 -14.621  0.00  0.00    -0.106 N 
ATOM     18  N   UNL     1      36.440 -25.842 -12.284  0.00  0.00    -0.340 NA
ATOM     19  N   UNL     1      36.180 -26.398 -15.764  0.00  0.00    -0.139 NA
ATOM     20  N   UNL     1      37.265 -27.345 -14.000  0.00  0.00    -0.145 NA
ATOM     21  C   UNL     1      35.055 -24.610 -14.444  0.00  0.00    +0.138 C 
ATOM     22  C   UNL     1      34.914 -24.112 -13.206  0.00  0.00    +0.061 C 
ATOM     23  C   UNL     1      36.562 -26.323 -13.553  0.00  0.00    +0.174 C 
ATOM     24  C   UNL     1      35.670 -24.807 -12.121  0.00  0.00    +0.125 C 
ATOM     25  C   UNL     1      35.520 -24.258 -10.724  0.00  0.00    +0.068 C 
ATOM     26  C   UNL     1      37.003 -27.347 -15.331  0.00  0.00    +0.230 C 
ENDBRANCH  15  21
ENDBRANCH   5  15
TORSDOF 2
ENDMDL
MODEL 8
REMARK VINA RESULT:     -11.0      5.942     10.257
REMARK  Name = 24882195
REMARK  2 active torsions:
REMARK  status: ('A' for Active; 'I' for Inactive)
REMARK    1  A    between atoms: C_5  and  N_15
REMARK    2  A    between atoms: N_15  and  C_21
REMARK                            x       y       z     vdW  Elec       q    Type
REMARK                         _______ _______ _______ _____ _____    ______ ____
ROOT
ATOM      1  C   UNL     1      34.650 -19.870 -21.333  0.00  0.00    +0.001 C 
ATOM      2  C   UNL     1      35.948 -20.062 -20.810  0.00  0.00    +0.000 C 
ATOM      3  C   UNL     1      33.752 -21.444 -19.686  0.00  0.00    +0.000 C 
ATOM      4  C   UNL     1      35.050 -21.638 -19.162  0.00  0.00    +0.000 C 
ATOM      5  C   UNL     1      35.552 -18.307 -22.967  0.00  0.00    +0.049 C 
ATOM      6  C   UNL     1      33.570 -20.564 -20.764  0.00  0.00    +0.000 C 
ATOM      7  C   UNL     1      34.469 -18.989 -22.412  0.00  0.00    +0.015 C 
ATOM      8  C   UNL     1      36.131 -20.944 -19.731  0.00  0.00    +0.000 C 
ATOM      9  C   UNL     1      37.028 -19.368 -21.379  0.00  0.00    +0.001 C 
ATOM     10  C   UNL     1      36.831 -18.496 -22.451  0.00  0.00    +0.015 C 
ATOM     11  C   UNL     1      32.673 -22.139 -19.116  0.00  0.00    +0.000 C 
ATOM     12  C   UNL     1      35.232 -22.518 -18.083  0.00  0.00    +0.000 C 
ATOM     13  C   UNL     1      32.870 -23.011 -18.045  0.00  0.00    +0.000 C 
ATOM     14  C   UNL     1      34.148 -23.200 -17.529  0.00  0.00    +0.000 C 
ENDROOT
BRANCH   5  15
ATOM     15  N   UNL     1      35.352 -17.426 -24.050  0.00  0.00    -0.299 N 
ATOM     16  H   UNL     1      35.743 -17.708 -24.908  0.00  0.00    +0.153 HD
BRANCH  15  21
ATOM     17  N   UNL     1      34.458 -15.619 -22.835  0.00  0.00    -0.106 N 
ATOM     18  N   UNL     1      33.335 -13.754 -23.855  0.00  0.00    -0.340 NA
ATOM     19  N   UNL     1      34.798 -16.034 -21.586  0.00  0.00    -0.139 NA
ATOM     20  N   UNL     1      33.704 -14.040 -21.475  0.00  0.00    -0.145 NA
ATOM     21  C   UNL     1      34.696 -16.245 -24.065  0.00  0.00    +0.138 C 
ATOM     22  C   UNL     1      34.262 -15.639 -25.181  0.00  0.00    +0.061 C 
ATOM     23  C   UNL     1      33.789 -14.395 -22.741  0.00  0.00    +0.174 C 
ATOM     24  C   UNL     1      33.556 -14.335 -24.997  0.00  0.00    +0.125 C 
ATOM     25  C   UNL     1      33.062 -13.644 -26.242  0.00  0.00    +0.068 C 
ATOM     26  C   UNL     1      34.324 -15.055 -20.822  0.00  0.00    +0.230 C 
ENDBRANCH  15  21
ENDBRANCH   5  15
TORSDOF 2
ENDMDL
MODEL 9
REMARK VINA RESULT:     -10.9      2.145      3.061
REMARK  Name = 24882195
REMARK  2 active torsions:
REMARK  status: ('A' for Active; 'I' for Inactive)
REMARK    1  A    between atoms: C_5  and  N_15
REMARK    2  A    between atoms: N_15  and  C_21
REMARK                            x       y       z     vdW  Elec       q    Type
REMARK                         _______ _______ _______ _____ _____    ______ ____
ROOT
ATOM      1  C   UNL     1      34.871 -21.586 -19.428  0.00  0.00    +0.001 C 
ATOM      2  C   UNL     1      33.615 -21.146 -19.900  0.00  0.00    +0.000 C 
ATOM      3  C   UNL     1      35.989 -20.007 -20.931  0.00  0.00    +0.000 C 
ATOM      4  C   UNL     1      34.733 -19.566 -21.403  0.00  0.00    +0.000 C 
ATOM      5  C   UNL     1      33.751 -23.152 -17.939  0.00  0.00    +0.049 C 
ATOM      6  C   UNL     1      36.041 -21.011 -19.950  0.00  0.00    +0.000 C 
ATOM      7  C   UNL     1      34.922 -22.591 -18.448  0.00  0.00    +0.015 C 
ATOM      8  C   UNL     1      33.562 -20.141 -20.882  0.00  0.00    +0.000 C 
ATOM      9  C   UNL     1      32.444 -21.721 -19.378  0.00  0.00    +0.001 C 
ATOM     10  C   UNL     1      32.512 -22.718 -18.404  0.00  0.00    +0.015 C 
ATOM     11  C   UNL     1      37.159 -19.432 -21.454  0.00  0.00    +0.000 C 
ATOM     12  C   UNL     1      34.681 -18.562 -22.384  0.00  0.00    +0.000 C 
ATOM     13  C   UNL     1      37.091 -18.436 -22.428  0.00  0.00    +0.000 C 
ATOM     14  C   UNL     1      35.854 -18.001 -22.892  0.00  0.00    +0.000 C 
ENDROOT
BRANCH   5  15
ATOM     15  N   UNL     1      33.820 -24.159 -16.954  0.00  0.00    -0.299 N 
ATOM     16  H   UNL     1      33.865 -25.083 -17.291  0.00  0.00    +0.153 HD
BRANCH  15  21
ATOM     17  N   UNL     1      32.600 -24.050 -14.946  0.00  0.00    -0.106 N 
ATOM     18  N   UNL     1      33.614 -23.760 -12.785  0.00  0.00    -0.340 NA
ATOM     19  N   UNL     1      31.352 -24.196 -15.464  0.00  0.00    -0.139 NA
ATOM     20  N   UNL     1      31.235 -23.979 -13.201  0.00  0.00    -0.145 NA
ATOM     21  C   UNL     1      33.832 -24.025 -15.610  0.00  0.00    +0.138 C 
ATOM     22  C   UNL     1      34.946 -23.869 -14.879  0.00  0.00    +0.061 C 
ATOM     23  C   UNL     1      32.502 -23.920 -13.557  0.00  0.00    +0.174 C 
ATOM     24  C   UNL     1      34.758 -23.736 -13.402  0.00  0.00    +0.125 C 
ATOM     25  C   UNL     1      36.002 -23.559 -12.569  0.00  0.00    +0.068 C 
ATOM     26  C   UNL     1      30.585 -24.146 -14.380  0.00  0.00    +0.230 C 
ENDBRANCH  15  21
ENDBRANCH   5  15
TORSDOF 2
ENDMDL
