MODEL 1
REMARK VINA RESULT:     -12.0      0.000      0.000
REMARK  Name = 59473233
REMARK  3 active torsions:
REMARK  status: ('A' for Active; 'I' for Inactive)
REMARK    1  A    between atoms: N_1  and  C_25
REMARK    2  A    between atoms: C_7  and  C_14
REMARK    3  A    between atoms: C_22  and  N_29
REMARK                            x       y       z     vdW  Elec       q    Type
REMARK                         _______ _______ _______ _____ _____    ______ ____
ROOT
ATOM      1  N   UNL     1      36.529 -23.067 -16.460  0.00  0.00    -0.286 N 
ATOM      2  N   UNL     1      35.197 -23.916 -13.113  0.00  0.00    -0.260 N 
ATOM      3  N   UNL     1      34.361 -23.534 -15.724  0.00  0.00    -0.387 NA
ATOM      4  N   UNL     1      37.324 -23.502 -13.638  0.00  0.00    -0.224 NA
ATOM      5  C   UNL     1      35.645 -23.395 -15.458  0.00  0.00    +0.216 C 
ATOM      6  C   UNL     1      36.097 -23.595 -14.095  0.00  0.00    +0.180 C 
ATOM      7  C   UNL     1      33.474 -23.868 -14.701  0.00  0.00    +0.131 C 
ATOM      8  C   UNL     1      33.858 -24.054 -13.419  0.00  0.00    +0.156 C 
ATOM      9  C   UNL     1      35.898 -24.036 -11.946  0.00  0.00    +0.088 C 
ATOM     10  C   UNL     1      37.206 -23.776 -12.295  0.00  0.00    +0.117 C 
ATOM     11  H   UNL     1      37.450 -23.401 -16.363  0.00  0.00    +0.155 HD
ENDROOT
BRANCH   7  14
ATOM     12  N   UNL     1      29.360 -22.741 -17.302  0.00  0.00    -0.236 N 
ATOM     13  N   UNL     1      28.088 -23.173 -17.293  0.00  0.00    -0.180 NA
ATOM     14  C   UNL     1      32.044 -23.997 -15.063  0.00  0.00    +0.028 C 
ATOM     15  C   UNL     1      30.167 -23.354 -16.382  0.00  0.00    +0.067 C 
ATOM     16  C   UNL     1      31.521 -23.192 -16.081  0.00  0.00    +0.018 C 
ATOM     17  C   UNL     1      29.347 -24.263 -15.723  0.00  0.00    +0.035 C 
ATOM     18  C   UNL     1      31.243 -24.916 -14.384  0.00  0.00    +0.002 C 
ATOM     19  C   UNL     1      29.887 -25.063 -14.702  0.00  0.00    +0.003 C 
ATOM     20  C   UNL     1      28.083 -24.098 -16.331  0.00  0.00    +0.119 C 
ATOM     21  H   UNL     1      29.682 -22.042 -17.916  0.00  0.00    +0.174 HD
ENDBRANCH   7  14
BRANCH   1  25
ATOM     22  C   UNL     1      35.709 -20.799 -19.876  0.00  0.00    +0.048 C 
ATOM     23  C   UNL     1      36.837 -20.517 -19.105  0.00  0.00    +0.016 C 
ATOM     24  C   UNL     1      34.855 -21.837 -19.506  0.00  0.00    +0.016 C 
ATOM     25  C   UNL     1      36.255 -22.311 -17.596  0.00  0.00    +0.050 C 
ATOM     26  C   UNL     1      37.111 -21.273 -17.965  0.00  0.00    +0.016 C 
ATOM     27  C   UNL     1      35.127 -22.593 -18.367  0.00  0.00    +0.016 C 
BRANCH  22  29
ATOM     28  O   UNL     1      34.845 -18.300 -23.144  0.00  0.00    -0.350 OA
ATOM     29  N   UNL     1      35.436 -20.040 -21.019  0.00  0.00    -0.303 N 
ATOM     30  C   UNL     1      36.360 -18.952 -21.366  0.00  0.00    +0.123 C 
ATOM     31  C   UNL     1      34.047 -19.843 -21.452  0.00  0.00    +0.123 C 
ATOM     32  C   UNL     1      36.207 -18.599 -22.841  0.00  0.00    +0.164 C 
ATOM     33  C   UNL     1      34.019 -19.441 -22.922  0.00  0.00    +0.164 C 
ENDBRANCH  22  29
ENDBRANCH   1  25
TORSDOF 3
ENDMDL
MODEL 2
REMARK VINA RESULT:     -10.8      1.383      1.999
REMARK  Name = 59473233
REMARK  3 active torsions:
REMARK  status: ('A' for Active; 'I' for Inactive)
REMARK    1  A    between atoms: N_1  and  C_25
REMARK    2  A    between atoms: C_7  and  C_14
REMARK    3  A    between atoms: C_22  and  N_29
REMARK                            x       y       z     vdW  Elec       q    Type
REMARK                         _______ _______ _______ _____ _____    ______ ____
ROOT
ATOM      1  N   UNL     1      36.580 -22.504 -17.912  0.00  0.00    -0.286 N 
ATOM      2  N   UNL     1      35.616 -23.604 -14.512  0.00  0.00    -0.260 N 
ATOM      3  N   UNL     1      34.499 -22.999 -16.972  0.00  0.00    -0.387 NA
ATOM      4  N   UNL     1      37.679 -23.179 -15.244  0.00  0.00    -0.224 NA
ATOM      5  C   UNL     1      35.808 -22.901 -16.845  0.00  0.00    +0.216 C 
ATOM      6  C   UNL     1      36.406 -23.217 -15.563  0.00  0.00    +0.180 C 
ATOM      7  C   UNL     1      33.725 -23.403 -15.884  0.00  0.00    +0.131 C 
ATOM      8  C   UNL     1      34.248 -23.698 -14.672  0.00  0.00    +0.156 C 
ATOM      9  C   UNL     1      36.441 -23.829 -13.447  0.00  0.00    +0.088 C 
ATOM     10  C   UNL     1      37.707 -23.561 -13.923  0.00  0.00    +0.117 C 
ATOM     11  H   UNL     1      37.498 -22.859 -17.949  0.00  0.00    +0.155 HD
ENDROOT
BRANCH   7  14
ATOM     12  N   UNL     1      29.118 -25.069 -14.909  0.00  0.00    -0.236 N 
ATOM     13  N   UNL     1      27.899 -24.832 -15.422  0.00  0.00    -0.180 NA
ATOM     14  C   UNL     1      32.262 -23.481 -16.088  0.00  0.00    +0.028 C 
ATOM     15  C   UNL     1      30.126 -24.364 -15.511  0.00  0.00    +0.067 C 
ATOM     16  C   UNL     1      31.502 -24.329 -15.276  0.00  0.00    +0.018 C 
ATOM     17  C   UNL     1      29.505 -23.606 -16.497  0.00  0.00    +0.035 C 
ATOM     18  C   UNL     1      31.664 -22.710 -17.087  0.00  0.00    +0.002 C 
ATOM     19  C   UNL     1      30.282 -22.760 -17.306  0.00  0.00    +0.003 C 
ATOM     20  C   UNL     1      28.138 -23.943 -16.388  0.00  0.00    +0.119 C 
ATOM     21  H   UNL     1      29.272 -25.695 -14.166  0.00  0.00    +0.174 HD
ENDBRANCH   7  14
BRANCH   1  25
ATOM     22  C   UNL     1      35.429 -19.947 -21.014  0.00  0.00    +0.048 C 
ATOM     23  C   UNL     1      34.521 -20.873 -20.500  0.00  0.00    +0.016 C 
ATOM     24  C   UNL     1      36.721 -19.875 -20.493  0.00  0.00    +0.016 C 
ATOM     25  C   UNL     1      36.197 -21.654 -18.946  0.00  0.00    +0.050 C 
ATOM     26  C   UNL     1      34.905 -21.727 -19.466  0.00  0.00    +0.016 C 
ATOM     27  C   UNL     1      37.105 -20.728 -19.460  0.00  0.00    +0.016 C 
BRANCH  22  29
ATOM     28  O   UNL     1      34.063 -17.285 -23.967  0.00  0.00    -0.350 OA
ATOM     29  N   UNL     1      35.044 -19.091 -22.051  0.00  0.00    -0.303 N 
ATOM     30  C   UNL     1      35.158 -17.643 -21.833  0.00  0.00    +0.123 C 
ATOM     31  C   UNL     1      33.988 -19.502 -22.984  0.00  0.00    +0.123 C 
ATOM     32  C   UNL     1      35.194 -16.922 -23.176  0.00  0.00    +0.164 C 
ATOM     33  C   UNL     1      34.085 -18.680 -24.265  0.00  0.00    +0.164 C 
ENDBRANCH  22  29
ENDBRANCH   1  25
TORSDOF 3
ENDMDL
MODEL 3
REMARK VINA RESULT:      -9.2      2.534      7.079
REMARK  Name = 59473233
REMARK  3 active torsions:
REMARK  status: ('A' for Active; 'I' for Inactive)
REMARK    1  A    between atoms: N_1  and  C_25
REMARK    2  A    between atoms: C_7  and  C_14
REMARK    3  A    between atoms: C_22  and  N_29
REMARK                            x       y       z     vdW  Elec       q    Type
REMARK                         _______ _______ _______ _____ _____    ______ ____
ROOT
ATOM      1  N   UNL     1      33.652 -23.979 -13.480  0.00  0.00    -0.286 N 
ATOM      2  N   UNL     1      37.183 -24.734 -14.290  0.00  0.00    -0.260 N 
ATOM      3  N   UNL     1      35.069 -23.167 -15.150  0.00  0.00    -0.387 NA
ATOM      4  N   UNL     1      35.976 -25.612 -12.633  0.00  0.00    -0.224 NA
ATOM      5  C   UNL     1      34.876 -23.951 -14.107  0.00  0.00    +0.216 C 
ATOM      6  C   UNL     1      35.975 -24.775 -13.645  0.00  0.00    +0.180 C 
ATOM      7  C   UNL     1      36.314 -23.145 -15.779  0.00  0.00    +0.131 C 
ATOM      8  C   UNL     1      37.359 -23.906 -15.380  0.00  0.00    +0.156 C 
ATOM      9  C   UNL     1      38.015 -25.607 -13.646  0.00  0.00    +0.088 C 
ATOM     10  C   UNL     1      37.248 -26.135 -12.629  0.00  0.00    +0.117 C 
ATOM     11  H   UNL     1      33.655 -24.180 -12.516  0.00  0.00    +0.155 HD
ENDROOT
BRANCH   7  14
ATOM     12  N   UNL     1      35.219 -21.510 -20.370  0.00  0.00    -0.236 N 
ATOM     13  N   UNL     1      35.675 -20.519 -21.155  0.00  0.00    -0.180 NA
ATOM     14  C   UNL     1      36.463 -22.254 -16.950  0.00  0.00    +0.028 C 
ATOM     15  C   UNL     1      35.835 -21.587 -19.150  0.00  0.00    +0.067 C 
ATOM     16  C   UNL     1      35.653 -22.457 -18.072  0.00  0.00    +0.018 C 
ATOM     17  C   UNL     1      36.768 -20.557 -19.143  0.00  0.00    +0.035 C 
ATOM     18  C   UNL     1      37.410 -21.228 -16.918  0.00  0.00    +0.002 C 
ATOM     19  C   UNL     1      37.575 -20.366 -18.010  0.00  0.00    +0.003 C 
ATOM     20  C   UNL     1      36.617 -19.941 -20.405  0.00  0.00    +0.119 C 
ATOM     21  H   UNL     1      34.506 -22.127 -20.650  0.00  0.00    +0.174 HD
ENDBRANCH   7  14
BRANCH   1  25
ATOM     22  C   UNL     1      29.922 -23.292 -15.242  0.00  0.00    +0.048 C 
ATOM     23  C   UNL     1      29.999 -23.728 -13.919  0.00  0.00    +0.016 C 
ATOM     24  C   UNL     1      31.090 -23.086 -15.976  0.00  0.00    +0.016 C 
ATOM     25  C   UNL     1      32.410 -23.752 -14.067  0.00  0.00    +0.050 C 
ATOM     26  C   UNL     1      31.244 -23.958 -13.331  0.00  0.00    +0.016 C 
ATOM     27  C   UNL     1      32.333 -23.316 -15.390  0.00  0.00    +0.016 C 
BRANCH  22  29
ATOM     28  O   UNL     1      26.281 -22.374 -17.133  0.00  0.00    -0.350 OA
ATOM     29  N   UNL     1      28.674 -23.062 -15.830  0.00  0.00    -0.303 N 
ATOM     30  C   UNL     1      28.567 -23.168 -17.292  0.00  0.00    +0.123 C 
ATOM     31  C   UNL     1      27.728 -22.135 -15.200  0.00  0.00    +0.123 C 
ATOM     32  C   UNL     1      27.112 -23.394 -17.686  0.00  0.00    +0.164 C 
ATOM     33  C   UNL     1      26.318 -22.415 -15.707  0.00  0.00    +0.164 C 
ENDBRANCH  22  29
ENDBRANCH   1  25
TORSDOF 3
ENDMDL
