MODEL 1
REMARK VINA RESULT:     -12.2      0.000      0.000
REMARK  Name = 10138993
REMARK  4 active torsions:
REMARK  status: ('A' for Active; 'I' for Inactive)
REMARK    1  A    between atoms: C_5  and  N_18
REMARK    2  A    between atoms: C_12  and  C_22
REMARK    3  A    between atoms: C_22  and  C_26
REMARK    4  A    between atoms: C_23  and  N_29
REMARK                            x       y       z     vdW  Elec       q    Type
REMARK                         _______ _______ _______ _____ _____    ______ ____
ROOT
ATOM      1  O   UNL     1      33.231 -21.203 -20.776  0.00  0.00    -0.274 OA
ATOM      2  N   UNL     1      32.148 -23.347 -17.326  0.00  0.00    -0.275 N 
ATOM      3  N   UNL     1      34.688 -21.767 -19.022  0.00  0.00    -0.268 N 
ATOM      4  N   UNL     1      32.566 -22.658 -18.401  0.00  0.00    -0.157 NA
ATOM      5  C   UNL     1      35.472 -23.747 -14.963  0.00  0.00    +0.069 C 
ATOM      6  C   UNL     1      35.476 -23.082 -16.195  0.00  0.00    +0.020 C 
ATOM      7  C   UNL     1      34.302 -24.323 -14.462  0.00  0.00    +0.018 C 
ATOM      8  C   UNL     1      34.276 -23.006 -16.921  0.00  0.00    +0.052 A 
ATOM      9  C   UNL     1      33.127 -23.589 -16.400  0.00  0.00    +0.077 A 
ATOM     10  C   UNL     1      33.100 -24.257 -15.174  0.00  0.00    +0.020 C 
ATOM     11  C   UNL     1      33.850 -22.461 -18.140  0.00  0.00    +0.155 A 
ATOM     12  C   UNL     1      34.336 -21.200 -20.244  0.00  0.00    +0.232 C 
ATOM     13  H   UNL     1      31.219 -23.653 -17.215  0.00  0.00    +0.189 HD
ATOM     14  H   UNL     1      35.628 -21.668 -18.748  0.00  0.00    +0.156 HD
ENDROOT
BRANCH   5  18
ATOM     15  S   UNL     1      37.962 -24.887 -14.775  0.00  0.00    +0.057 S 
ATOM     16  O   UNL     1      37.400 -26.124 -15.280  0.00  0.00    -0.154 OA
ATOM     17  O   UNL     1      38.921 -24.111 -15.532  0.00  0.00    -0.154 OA
ATOM     18  N   UNL     1      36.701 -23.837 -14.194  0.00  0.00    -0.194 N 
ATOM     19  C   UNL     1      38.625 -25.208 -13.148  0.00  0.00    +0.174 C 
ATOM     20  C   UNL     1      38.113 -24.073 -12.278  0.00  0.00    +0.051 C 
ATOM     21  C   UNL     1      36.667 -23.833 -12.704  0.00  0.00    +0.117 C 
ENDBRANCH   5  18
BRANCH  12  22
ATOM     22  C   UNL     1      35.542 -20.530 -20.899  0.00  0.00    +0.112 C 
BRANCH  22  26
ATOM     23  C   UNL     1      34.580 -16.932 -23.063  0.00  0.00    +0.048 C 
ATOM     24  C   UNL     1      34.479 -18.195 -23.678  0.00  0.00    +0.014 C 
ATOM     25  C   UNL     1      35.003 -16.878 -21.721  0.00  0.00    +0.014 C 
ATOM     26  C   UNL     1      35.208 -19.283 -21.648  0.00  0.00    -0.013 C 
ATOM     27  C   UNL     1      34.791 -19.360 -22.977  0.00  0.00    -0.003 C 
ATOM     28  C   UNL     1      35.315 -18.043 -21.021  0.00  0.00    -0.003 C 
BRANCH  23  29
ATOM     29  N   UNL     1      34.266 -15.762 -23.767  0.00  0.00    -0.307 N 
ATOM     30  C   UNL     1      33.498 -13.337 -25.132  0.00  0.00    +0.004 C 
ATOM     31  C   UNL     1      33.831 -14.610 -25.900  0.00  0.00    +0.021 C 
ATOM     32  C   UNL     1      34.272 -13.298 -23.819  0.00  0.00    +0.021 C 
ATOM     33  C   UNL     1      33.576 -15.860 -25.058  0.00  0.00    +0.091 C 
ATOM     34  C   UNL     1      34.009 -14.547 -22.980  0.00  0.00    +0.091 C 
ENDBRANCH  23  29
ENDBRANCH  22  26
ENDBRANCH  12  22
TORSDOF 4
ENDMDL
MODEL 2
REMARK VINA RESULT:     -10.1      7.761     14.764
REMARK  Name = 10138993
REMARK  4 active torsions:
REMARK  status: ('A' for Active; 'I' for Inactive)
REMARK    1  A    between atoms: C_5  and  N_18
REMARK    2  A    between atoms: C_12  and  C_22
REMARK    3  A    between atoms: C_22  and  C_26
REMARK    4  A    between atoms: C_23  and  N_29
REMARK                            x       y       z     vdW  Elec       q    Type
REMARK                         _______ _______ _______ _____ _____    ______ ____
ROOT
ATOM      1  O   UNL     1      32.132 -13.340 -22.528  0.00  0.00    -0.274 OA
ATOM      2  N   UNL     1      30.523  -9.481 -22.089  0.00  0.00    -0.275 N 
ATOM      3  N   UNL     1      33.049 -11.381 -23.442  0.00  0.00    -0.268 N 
ATOM      4  N   UNL     1      31.093 -10.684 -22.271  0.00  0.00    -0.157 NA
ATOM      5  C   UNL     1      32.935  -6.844 -24.095  0.00  0.00    +0.069 C 
ATOM      6  C   UNL     1      33.179  -8.222 -24.035  0.00  0.00    +0.020 C 
ATOM      7  C   UNL     1      31.826  -6.283 -23.458  0.00  0.00    +0.018 C 
ATOM      8  C   UNL     1      32.283  -9.033 -23.317  0.00  0.00    +0.052 A 
ATOM      9  C   UNL     1      31.188  -8.447 -22.691  0.00  0.00    +0.077 A 
ATOM     10  C   UNL     1      30.925  -7.076 -22.739  0.00  0.00    +0.020 C 
ATOM     11  C   UNL     1      32.153 -10.394 -23.013  0.00  0.00    +0.155 A 
ATOM     12  C   UNL     1      32.983 -12.746 -23.181  0.00  0.00    +0.232 C 
ATOM     13  H   UNL     1      29.698  -9.354 -21.567  0.00  0.00    +0.189 HD
ATOM     14  H   UNL     1      33.809 -11.075 -23.988  0.00  0.00    +0.156 HD
ENDROOT
BRANCH   5  18
ATOM     15  S   UNL     1      33.178  -4.696 -25.785  0.00  0.00    +0.057 S 
ATOM     16  O   UNL     1      31.979  -5.138 -26.470  0.00  0.00    -0.154 OA
ATOM     17  O   UNL     1      33.220  -3.466 -25.022  0.00  0.00    -0.154 OA
ATOM     18  N   UNL     1      33.848  -5.988 -24.832  0.00  0.00    -0.194 N 
ATOM     19  C   UNL     1      34.519  -4.696 -26.966  0.00  0.00    +0.174 C 
ATOM     20  C   UNL     1      35.671  -5.391 -26.261  0.00  0.00    +0.051 C 
ATOM     21  C   UNL     1      35.055  -6.559 -25.496  0.00  0.00    +0.117 C 
ENDBRANCH   5  18
BRANCH  12  22
ATOM     22  C   UNL     1      34.153 -13.481 -23.831  0.00  0.00    +0.112 C 
BRANCH  22  26
ATOM     23  C   UNL     1      35.002 -17.321 -22.073  0.00  0.00    +0.048 C 
ATOM     24  C   UNL     1      34.735 -16.198 -21.266  0.00  0.00    +0.014 C 
ATOM     25  C   UNL     1      34.982 -17.153 -23.471  0.00  0.00    +0.014 C 
ATOM     26  C   UNL     1      34.447 -14.811 -23.223  0.00  0.00    -0.013 C 
ATOM     27  C   UNL     1      34.461 -14.954 -21.835  0.00  0.00    -0.003 C 
ATOM     28  C   UNL     1      34.708 -15.910 -24.040  0.00  0.00    -0.003 C 
BRANCH  23  29
ATOM     29  N   UNL     1      35.277 -18.570 -21.501  0.00  0.00    -0.307 N 
ATOM     30  C   UNL     1      35.926 -21.175 -20.442  0.00  0.00    +0.004 C 
ATOM     31  C   UNL     1      34.483 -20.696 -20.544  0.00  0.00    +0.021 C 
ATOM     32  C   UNL     1      36.862 -19.986 -20.256  0.00  0.00    +0.021 C 
ATOM     33  C   UNL     1      34.310 -19.662 -21.657  0.00  0.00    +0.091 C 
ATOM     34  C   UNL     1      36.688 -18.960 -21.373  0.00  0.00    +0.091 C 
ENDBRANCH  23  29
ENDBRANCH  22  26
ENDBRANCH  12  22
TORSDOF 4
ENDMDL
MODEL 3
REMARK VINA RESULT:     -10.0      2.689      3.959
REMARK  Name = 10138993
REMARK  4 active torsions:
REMARK  status: ('A' for Active; 'I' for Inactive)
REMARK    1  A    between atoms: C_5  and  N_18
REMARK    2  A    between atoms: C_12  and  C_22
REMARK    3  A    between atoms: C_22  and  C_26
REMARK    4  A    between atoms: C_23  and  N_29
REMARK                            x       y       z     vdW  Elec       q    Type
REMARK                         _______ _______ _______ _____ _____    ______ ____
ROOT
ATOM      1  O   UNL     1      37.180 -20.548 -20.302  0.00  0.00    -0.274 OA
ATOM      2  N   UNL     1      37.247 -21.881 -16.316  0.00  0.00    -0.275 N 
ATOM      3  N   UNL     1      35.413 -21.651 -19.215  0.00  0.00    -0.268 N 
ATOM      4  N   UNL     1      37.154 -21.482 -17.595  0.00  0.00    -0.157 NA
ATOM      5  C   UNL     1      33.647 -23.656 -15.491  0.00  0.00    +0.069 C 
ATOM      6  C   UNL     1      33.966 -23.100 -16.735  0.00  0.00    +0.020 C 
ATOM      7  C   UNL     1      34.565 -23.636 -14.438  0.00  0.00    +0.018 C 
ATOM      8  C   UNL     1      35.232 -22.516 -16.906  0.00  0.00    +0.052 A 
ATOM      9  C   UNL     1      36.126 -22.508 -15.841  0.00  0.00    +0.077 A 
ATOM     10  C   UNL     1      35.829 -23.058 -14.591  0.00  0.00    +0.020 C 
ATOM     11  C   UNL     1      35.934 -21.873 -17.934  0.00  0.00    +0.155 A 
ATOM     12  C   UNL     1      36.049 -21.023 -20.283  0.00  0.00    +0.232 C 
ATOM     13  H   UNL     1      38.050 -21.733 -15.767  0.00  0.00    +0.189 HD
ATOM     14  H   UNL     1      34.498 -21.974 -19.379  0.00  0.00    +0.156 HD
ENDROOT
BRANCH   5  18
ATOM     15  S   UNL     1      30.937 -23.243 -15.355  0.00  0.00    +0.057 S 
ATOM     16  O   UNL     1      31.193 -21.985 -14.682  0.00  0.00    -0.154 OA
ATOM     17  O   UNL     1      30.359 -23.303 -16.681  0.00  0.00    -0.154 OA
ATOM     18  N   UNL     1      32.343 -24.266 -15.293  0.00  0.00    -0.194 N 
ATOM     19  C   UNL     1      29.978 -24.272 -14.254  0.00  0.00    +0.174 C 
ATOM     20  C   UNL     1      30.656 -25.631 -14.286  0.00  0.00    +0.051 C 
ATOM     21  C   UNL     1      32.158 -25.353 -14.290  0.00  0.00    +0.117 C 
ENDBRANCH   5  18
BRANCH  12  22
ATOM     22  C   UNL     1      35.140 -20.982 -21.509  0.00  0.00    +0.112 C 
BRANCH  22  26
ATOM     23  C   UNL     1      34.461 -17.020 -23.054  0.00  0.00    +0.048 C 
ATOM     24  C   UNL     1      34.219 -18.157 -23.848  0.00  0.00    +0.014 C 
ATOM     25  C   UNL     1      34.930 -17.213 -21.741  0.00  0.00    +0.014 C 
ATOM     26  C   UNL     1      34.905 -19.610 -22.043  0.00  0.00    -0.013 C 
ATOM     27  C   UNL     1      34.439 -19.441 -23.348  0.00  0.00    -0.003 C 
ATOM     28  C   UNL     1      35.150 -18.497 -21.241  0.00  0.00    -0.003 C 
BRANCH  23  29
ATOM     29  N   UNL     1      34.239 -15.731 -23.556  0.00  0.00    -0.307 N 
ATOM     30  C   UNL     1      33.911 -13.086 -24.665  0.00  0.00    +0.004 C 
ATOM     31  C   UNL     1      33.794 -13.340 -23.167  0.00  0.00    +0.021 C 
ATOM     32  C   UNL     1      33.497 -14.330 -25.443  0.00  0.00    +0.021 C 
ATOM     33  C   UNL     1      34.598 -14.566 -22.738  0.00  0.00    +0.091 C 
ATOM     34  C   UNL     1      34.307 -15.551 -25.014  0.00  0.00    +0.091 C 
ENDBRANCH  23  29
ENDBRANCH  22  26
ENDBRANCH  12  22
TORSDOF 4
ENDMDL
MODEL 4
REMARK VINA RESULT:     -10.0      3.020      4.929
REMARK  Name = 10138993
REMARK  4 active torsions:
REMARK  status: ('A' for Active; 'I' for Inactive)
REMARK    1  A    between atoms: C_5  and  N_18
REMARK    2  A    between atoms: C_12  and  C_22
REMARK    3  A    between atoms: C_22  and  C_26
REMARK    4  A    between atoms: C_23  and  N_29
REMARK                            x       y       z     vdW  Elec       q    Type
REMARK                         _______ _______ _______ _____ _____    ______ ____
ROOT
ATOM      1  O   UNL     1      37.287 -21.664 -18.494  0.00  0.00    -0.274 OA
ATOM      2  N   UNL     1      35.642 -22.769 -14.787  0.00  0.00    -0.275 N 
ATOM      3  N   UNL     1      35.098 -22.453 -18.167  0.00  0.00    -0.268 N 
ATOM      4  N   UNL     1      36.101 -22.434 -16.004  0.00  0.00    -0.157 NA
ATOM      5  C   UNL     1      31.778 -23.987 -15.404  0.00  0.00    +0.069 C 
ATOM      6  C   UNL     1      32.623 -23.549 -16.431  0.00  0.00    +0.020 C 
ATOM      7  C   UNL     1      32.222 -24.034 -14.080  0.00  0.00    +0.018 C 
ATOM      8  C   UNL     1      33.931 -23.155 -16.103  0.00  0.00    +0.052 A 
ATOM      9  C   UNL     1      34.346 -23.210 -14.777  0.00  0.00    +0.077 A 
ATOM     10  C   UNL     1      33.521 -23.644 -13.737  0.00  0.00    +0.020 C 
ATOM     11  C   UNL     1      35.056 -22.672 -16.784  0.00  0.00    +0.155 A 
ATOM     12  C   UNL     1      36.176 -21.978 -18.909  0.00  0.00    +0.232 C 
ATOM     13  H   UNL     1      36.190 -22.702 -13.972  0.00  0.00    +0.189 HD
ATOM     14  H   UNL     1      34.277 -22.656 -18.669  0.00  0.00    +0.156 HD
ENDROOT
BRANCH   5  18
ATOM     15  S   UNL     1      29.237 -23.167 -16.039  0.00  0.00    +0.057 S 
ATOM     16  O   UNL     1      29.398 -22.059 -15.118  0.00  0.00    -0.154 OA
ATOM     17  O   UNL     1      29.122 -22.970 -17.469  0.00  0.00    -0.154 OA
ATOM     18  N   UNL     1      30.423 -24.401 -15.721  0.00  0.00    -0.194 N 
ATOM     19  C   UNL     1      27.862 -24.157 -15.473  0.00  0.00    +0.174 C 
ATOM     20  C   UNL     1      28.358 -25.592 -15.523  0.00  0.00    +0.051 C 
ATOM     21  C   UNL     1      29.799 -25.559 -15.020  0.00  0.00    +0.117 C 
ENDBRANCH   5  18
BRANCH  12  22
ATOM     22  C   UNL     1      35.816 -21.882 -20.390  0.00  0.00    +0.112 C 
BRANCH  22  26
ATOM     23  C   UNL     1      34.962 -17.876 -21.724  0.00  0.00    +0.048 C 
ATOM     24  C   UNL     1      36.272 -18.260 -21.379  0.00  0.00    +0.014 C 
ATOM     25  C   UNL     1      33.939 -18.838 -21.622  0.00  0.00    +0.014 C 
ATOM     26  C   UNL     1      35.520 -20.495 -20.852  0.00  0.00    -0.013 C 
ATOM     27  C   UNL     1      36.549 -19.557 -20.947  0.00  0.00    -0.003 C 
ATOM     28  C   UNL     1      34.216 -20.135 -21.190  0.00  0.00    -0.003 C 
BRANCH  23  29
ATOM     29  N   UNL     1      34.685 -16.574 -22.159  0.00  0.00    -0.307 N 
ATOM     30  C   UNL     1      34.259 -13.872 -23.082  0.00  0.00    +0.004 C 
ATOM     31  C   UNL     1      33.722 -14.347 -21.738  0.00  0.00    +0.021 C 
ATOM     32  C   UNL     1      34.340 -15.041 -24.057  0.00  0.00    +0.021 C 
ATOM     33  C   UNL     1      34.554 -15.496 -21.171  0.00  0.00    +0.091 C 
ATOM     34  C   UNL     1      35.177 -16.185 -23.489  0.00  0.00    +0.091 C 
ENDBRANCH  23  29
ENDBRANCH  22  26
ENDBRANCH  12  22
TORSDOF 4
ENDMDL
MODEL 5
REMARK VINA RESULT:      -9.6      8.755     16.045
REMARK  Name = 10138993
REMARK  4 active torsions:
REMARK  status: ('A' for Active; 'I' for Inactive)
REMARK    1  A    between atoms: C_5  and  N_18
REMARK    2  A    between atoms: C_12  and  C_22
REMARK    3  A    between atoms: C_22  and  C_26
REMARK    4  A    between atoms: C_23  and  N_29
REMARK                            x       y       z     vdW  Elec       q    Type
REMARK                         _______ _______ _______ _____ _____    ______ ____
ROOT
ATOM      1  O   UNL     1      32.384 -11.499 -23.182  0.00  0.00    -0.274 OA
ATOM      2  N   UNL     1      31.754  -7.429 -22.341  0.00  0.00    -0.275 N 
ATOM      3  N   UNL     1      33.255  -9.711 -24.430  0.00  0.00    -0.268 N 
ATOM      4  N   UNL     1      31.998  -8.709 -22.670  0.00  0.00    -0.157 NA
ATOM      5  C   UNL     1      33.734  -5.210 -25.161  0.00  0.00    +0.069 C 
ATOM      6  C   UNL     1      33.731  -6.611 -25.142  0.00  0.00    +0.020 C 
ATOM      7  C   UNL     1      33.040  -4.478 -24.194  0.00  0.00    +0.018 C 
ATOM      8  C   UNL     1      33.017  -7.268 -24.126  0.00  0.00    +0.052 A 
ATOM      9  C   UNL     1      32.337  -6.514 -23.175  0.00  0.00    +0.077 A 
ATOM     10  C   UNL     1      32.325  -5.118 -23.176  0.00  0.00    +0.020 C 
ATOM     11  C   UNL     1      32.761  -8.592 -23.747  0.00  0.00    +0.155 A 
ATOM     12  C   UNL     1      33.042 -11.049 -24.114  0.00  0.00    +0.232 C 
ATOM     13  H   UNL     1      31.204  -7.172 -21.566  0.00  0.00    +0.189 HD
ATOM     14  H   UNL     1      33.814  -9.531 -25.219  0.00  0.00    +0.156 HD
ENDROOT
BRANCH   5  18
ATOM     15  S   UNL     1      33.577  -3.464 -27.272  0.00  0.00    +0.057 S 
ATOM     16  O   UNL     1      32.310  -4.066 -27.637  0.00  0.00    -0.154 OA
ATOM     17  O   UNL     1      33.673  -2.100 -26.796  0.00  0.00    -0.154 OA
ATOM     18  N   UNL     1      34.465  -4.511 -26.202  0.00  0.00    -0.194 N 
ATOM     19  C   UNL     1      34.706  -3.685 -28.639  0.00  0.00    +0.174 C 
ATOM     20  C   UNL     1      35.995  -4.191 -28.013  0.00  0.00    +0.051 C 
ATOM     21  C   UNL     1      35.578  -5.184 -26.931  0.00  0.00    +0.117 C 
ENDBRANCH   5  18
BRANCH  12  22
ATOM     22  C   UNL     1      33.754 -11.963 -25.109  0.00  0.00    +0.112 C 
BRANCH  22  26
ATOM     23  C   UNL     1      34.472 -15.943 -23.627  0.00  0.00    +0.048 C 
ATOM     24  C   UNL     1      34.089 -15.727 -24.965  0.00  0.00    +0.014 C 
ATOM     25  C   UNL     1      34.614 -14.822 -22.787  0.00  0.00    +0.014 C 
ATOM     26  C   UNL     1      34.003 -13.341 -24.595  0.00  0.00    -0.013 C 
ATOM     27  C   UNL     1      33.856 -14.438 -25.445  0.00  0.00    -0.003 C 
ATOM     28  C   UNL     1      34.381 -13.533 -23.267  0.00  0.00    -0.003 C 
BRANCH  23  29
ATOM     29  N   UNL     1      34.706 -17.238 -23.145  0.00  0.00    -0.307 N 
ATOM     30  C   UNL     1      35.042 -19.925 -22.146  0.00  0.00    +0.004 C 
ATOM     31  C   UNL     1      35.742 -18.741 -21.492  0.00  0.00    +0.021 C 
ATOM     32  C   UNL     1      34.821 -19.651 -23.629  0.00  0.00    +0.021 C 
ATOM     33  C   UNL     1      34.976 -17.437 -21.716  0.00  0.00    +0.091 C 
ATOM     34  C   UNL     1      34.051 -18.350 -23.848  0.00  0.00    +0.091 C 
ENDBRANCH  23  29
ENDBRANCH  22  26
ENDBRANCH  12  22
TORSDOF 4
ENDMDL
