MODEL 1
REMARK VINA RESULT:     -11.7      0.000      0.000
REMARK  Name = 24978486
REMARK  5 active torsions:
REMARK  status: ('A' for Active; 'I' for Inactive)
REMARK    1  A    between atoms: O_1  and  C_6
REMARK    2  A    between atoms: O_1  and  C_18
REMARK    3  A    between atoms: C_18  and  C_20
REMARK    4  A    between atoms: N_19  and  C_26
REMARK    5  A    between atoms: C_26  and  C_29
REMARK                            x       y       z     vdW  Elec       q    Type
REMARK                         _______ _______ _______ _____ _____    ______ ____
ROOT
ATOM      1  O   UNL     1      34.689 -22.771 -17.678  0.00  0.00    -0.479 OA
ENDROOT
BRANCH   1   6
ATOM      2  N   UNL     1      35.797 -24.132 -13.162  0.00  0.00    -0.332 NA
ATOM      3  N   UNL     1      37.578 -23.377 -14.599  0.00  0.00    -0.317 NA
ATOM      4  N   UNL     1      37.166 -22.696 -16.790  0.00  0.00    -0.335 N 
ATOM      5  N   UNL     1      38.014 -24.055 -12.399  0.00  0.00    -0.283 N 
ATOM      6  C   UNL     1      34.361 -23.241 -16.431  0.00  0.00    +0.130 C 
ATOM      7  C   UNL     1      35.301 -23.447 -15.406  0.00  0.00    +0.177 C 
ATOM      8  C   UNL     1      33.017 -23.519 -16.207  0.00  0.00    +0.033 C 
ATOM      9  C   UNL     1      34.906 -23.932 -14.149  0.00  0.00    +0.137 C 
ATOM     10  C   UNL     1      36.660 -23.188 -15.565  0.00  0.00    +0.181 C 
ATOM     11  C   UNL     1      32.613 -24.001 -14.967  0.00  0.00    +0.005 C 
ATOM     12  C   UNL     1      33.555 -24.203 -13.953  0.00  0.00    +0.030 C 
ATOM     13  C   UNL     1      37.085 -23.844 -13.440  0.00  0.00    +0.197 C 
ATOM     14  H   UNL     1      38.129 -22.517 -16.889  0.00  0.00    +0.144 HD
ATOM     15  H   UNL     1      36.554 -22.533 -17.544  0.00  0.00    +0.144 HD
ATOM     16  H   UNL     1      37.708 -24.397 -11.528  0.00  0.00    +0.156 HD
ATOM     17  H   UNL     1      38.969 -23.861 -12.543  0.00  0.00    +0.156 HD
ENDBRANCH   1   6
BRANCH   1  18
ATOM     18  C   UNL     1      33.626 -22.584 -18.595  0.00  0.00    +0.205 C 
BRANCH  18  20
ATOM     19  N   UNL     1      35.101 -19.422 -21.141  0.00  0.00    +0.390 N 
ATOM     20  C   UNL     1      34.170 -21.874 -19.832  0.00  0.00    +0.040 C 
ATOM     21  C   UNL     1      35.551 -21.270 -19.558  0.00  0.00    -0.019 C 
ATOM     22  C   UNL     1      33.209 -20.778 -20.303  0.00  0.00    -0.019 C 
ATOM     23  C   UNL     1      36.057 -20.471 -20.761  0.00  0.00    -0.077 C 
ATOM     24  C   UNL     1      33.793 -19.996 -21.482  0.00  0.00    -0.077 C 
ATOM     25  H   UNL     1      34.975 -18.805 -20.338  0.00  0.00    -0.079 HD
BRANCH  19  26
ATOM     26  C   UNL     1      35.622 -18.636 -22.258  0.00  0.00    -0.049 C 
BRANCH  26  29
ATOM     27 CL   UNL     1      34.850 -17.454 -24.958  0.00  0.00    -0.082 Cl
ATOM     28 CL   UNL     1      33.664 -14.470 -24.845  0.00  0.00    -0.081 Cl
ATOM     29  C   UNL     1      35.060 -17.239 -22.271  0.00  0.00    -0.032 C 
ATOM     30  C   UNL     1      34.677 -16.607 -23.455  0.00  0.00    +0.062 C 
ATOM     31  C   UNL     1      34.929 -16.574 -21.052  0.00  0.00    -0.005 C 
ATOM     32  C   UNL     1      34.160 -15.312 -23.418  0.00  0.00    +0.068 C 
ATOM     33  C   UNL     1      34.412 -15.279 -21.015  0.00  0.00    +0.001 C 
ATOM     34  C   UNL     1      34.028 -14.648 -22.199  0.00  0.00    +0.012 C 
ENDBRANCH  26  29
ENDBRANCH  19  26
ENDBRANCH  18  20
ENDBRANCH   1  18
TORSDOF 5
ENDMDL
MODEL 2
REMARK VINA RESULT:     -11.3      2.121      3.086
REMARK  Name = 24978486
REMARK  5 active torsions:
REMARK  status: ('A' for Active; 'I' for Inactive)
REMARK    1  A    between atoms: O_1  and  C_6
REMARK    2  A    between atoms: O_1  and  C_18
REMARK    3  A    between atoms: C_18  and  C_20
REMARK    4  A    between atoms: N_19  and  C_26
REMARK    5  A    between atoms: C_26  and  C_29
REMARK                            x       y       z     vdW  Elec       q    Type
REMARK                         _______ _______ _______ _____ _____    ______ ____
ROOT
ATOM      1  O   UNL     1      35.202 -22.366 -18.543  0.00  0.00    -0.479 OA
ENDROOT
BRANCH   1   6
ATOM      2  N   UNL     1      32.566 -23.903 -14.779  0.00  0.00    -0.332 NA
ATOM      3  N   UNL     1      31.436 -23.454 -16.860  0.00  0.00    -0.317 NA
ATOM      4  N   UNL     1      32.600 -22.711 -18.739  0.00  0.00    -0.335 N 
ATOM      5  N   UNL     1      30.248 -24.200 -14.984  0.00  0.00    -0.283 N 
ATOM      6  C   UNL     1      35.059 -22.780 -17.242  0.00  0.00    +0.130 C 
ATOM      7  C   UNL     1      33.825 -23.140 -16.672  0.00  0.00    +0.177 C 
ATOM      8  C   UNL     1      36.219 -22.830 -16.477  0.00  0.00    +0.033 C 
ATOM      9  C   UNL     1      33.741 -23.555 -15.334  0.00  0.00    +0.137 C 
ATOM     10  C   UNL     1      32.629 -23.113 -17.383  0.00  0.00    +0.181 C 
ATOM     11  C   UNL     1      36.149 -23.238 -15.149  0.00  0.00    +0.005 C 
ATOM     12  C   UNL     1      34.917 -23.596 -14.590  0.00  0.00    +0.030 C 
ATOM     13  C   UNL     1      31.478 -23.833 -15.572  0.00  0.00    +0.197 C 
ATOM     14  H   UNL     1      31.747 -22.696 -19.230  0.00  0.00    +0.144 HD
ATOM     15  H   UNL     1      33.434 -22.447 -19.191  0.00  0.00    +0.144 HD
ATOM     16  H   UNL     1      30.219 -24.487 -14.042  0.00  0.00    +0.156 HD
ATOM     17  H   UNL     1      29.419 -24.171 -15.514  0.00  0.00    +0.156 HD
ENDBRANCH   1   6
BRANCH   1  18
ATOM     18  C   UNL     1      36.371 -21.632 -18.859  0.00  0.00    +0.205 C 
BRANCH  18  20
ATOM     19  N   UNL     1      35.353 -18.605 -21.767  0.00  0.00    +0.390 N 
ATOM     20  C   UNL     1      36.167 -20.951 -20.210  0.00  0.00    +0.040 C 
ATOM     21  C   UNL     1      37.047 -19.704 -20.337  0.00  0.00    -0.019 C 
ATOM     22  C   UNL     1      34.697 -20.571 -20.418  0.00  0.00    -0.019 C 
ATOM     23  C   UNL     1      36.773 -18.961 -21.647  0.00  0.00    -0.077 C 
ATOM     24  C   UNL     1      34.501 -19.800 -21.725  0.00  0.00    -0.077 C 
ATOM     25  H   UNL     1      35.108 -18.015 -20.971  0.00  0.00    -0.079 HD
BRANCH  19  26
ATOM     26  C   UNL     1      35.118 -17.851 -22.998  0.00  0.00    -0.049 C 
BRANCH  26  29
ATOM     27 CL   UNL     1      34.480 -16.070 -25.386  0.00  0.00    -0.082 Cl
ATOM     28 CL   UNL     1      33.608 -13.068 -24.647  0.00  0.00    -0.081 Cl
ATOM     29  C   UNL     1      34.703 -16.431 -22.716  0.00  0.00    -0.032 C 
ATOM     30  C   UNL     1      34.390 -15.536 -23.739  0.00  0.00    +0.062 C 
ATOM     31  C   UNL     1      34.636 -16.020 -21.385  0.00  0.00    -0.005 C 
ATOM     32  C   UNL     1      34.010 -14.229 -23.430  0.00  0.00    +0.068 C 
ATOM     33  C   UNL     1      34.256 -14.715 -21.076  0.00  0.00    +0.001 C 
ATOM     34  C   UNL     1      33.943 -13.819 -22.099  0.00  0.00    +0.012 C 
ENDBRANCH  26  29
ENDBRANCH  19  26
ENDBRANCH  18  20
ENDBRANCH   1  18
TORSDOF 5
ENDMDL
MODEL 3
REMARK VINA RESULT:     -11.3      3.839      6.260
REMARK  Name = 24978486
REMARK  5 active torsions:
REMARK  status: ('A' for Active; 'I' for Inactive)
REMARK    1  A    between atoms: O_1  and  C_6
REMARK    2  A    between atoms: O_1  and  C_18
REMARK    3  A    between atoms: C_18  and  C_20
REMARK    4  A    between atoms: N_19  and  C_26
REMARK    5  A    between atoms: C_26  and  C_29
REMARK                            x       y       z     vdW  Elec       q    Type
REMARK                         _______ _______ _______ _____ _____    ______ ____
ROOT
ATOM      1  O   UNL     1      34.186 -18.935 -22.163  0.00  0.00    -0.479 OA
ENDROOT
BRANCH   1   6
ATOM      2  N   UNL     1      34.689 -22.383 -18.797  0.00  0.00    -0.332 NA
ATOM      3  N   UNL     1      32.476 -21.900 -19.617  0.00  0.00    -0.317 NA
ATOM      4  N   UNL     1      32.111 -20.263 -21.237  0.00  0.00    -0.335 N 
ATOM      5  N   UNL     1      32.821 -23.550 -17.990  0.00  0.00    -0.283 N 
ATOM      6  C   UNL     1      34.935 -19.706 -21.309  0.00  0.00    +0.130 C 
ATOM      7  C   UNL     1      34.386 -20.686 -20.463  0.00  0.00    +0.177 C 
ATOM      8  C   UNL     1      36.306 -19.474 -21.307  0.00  0.00    +0.033 C 
ATOM      9  C   UNL     1      35.204 -21.443 -19.609  0.00  0.00    +0.137 C 
ATOM     10  C   UNL     1      33.024 -20.967 -20.418  0.00  0.00    +0.181 C 
ATOM     11  C   UNL     1      37.127 -20.217 -20.465  0.00  0.00    +0.005 C 
ATOM     12  C   UNL     1      36.573 -21.191 -19.627  0.00  0.00    +0.030 C 
ATOM     13  C   UNL     1      33.354 -22.561 -18.845  0.00  0.00    +0.197 C 
ATOM     14  H   UNL     1      31.150 -20.471 -21.195  0.00  0.00    +0.144 HD
ATOM     15  H   UNL     1      32.437 -19.565 -21.850  0.00  0.00    +0.144 HD
ATOM     16  H   UNL     1      33.418 -24.066 -17.402  0.00  0.00    +0.156 HD
ATOM     17  H   UNL     1      31.852 -23.725 -17.982  0.00  0.00    +0.156 HD
ENDBRANCH   1   6
BRANCH   1  18
ATOM     18  C   UNL     1      34.672 -18.781 -23.484  0.00  0.00    +0.205 C 
BRANCH  18  20
ATOM     19  N   UNL     1      33.604 -14.603 -23.717  0.00  0.00    +0.390 N 
ATOM     20  C   UNL     1      34.772 -17.290 -23.794  0.00  0.00    +0.040 C 
ATOM     21  C   UNL     1      34.716 -16.455 -22.511  0.00  0.00    -0.019 C 
ATOM     22  C   UNL     1      33.656 -16.850 -24.748  0.00  0.00    -0.019 C 
ATOM     23  C   UNL     1      34.714 -14.956 -22.823  0.00  0.00    -0.077 C 
ATOM     24  C   UNL     1      33.689 -15.340 -24.985  0.00  0.00    -0.077 C 
ATOM     25  H   UNL     1      32.732 -14.866 -23.257  0.00  0.00    -0.079 HD
BRANCH  19  26
ATOM     26  C   UNL     1      33.585 -13.161 -23.963  0.00  0.00    -0.049 C 
BRANCH  26  29
ATOM     27 CL   UNL     1      33.221 -10.160 -24.340  0.00  0.00    -0.082 Cl
ATOM     28 CL   UNL     1      31.407  -8.722 -22.112  0.00  0.00    -0.081 Cl
ATOM     29  C   UNL     1      32.745 -12.429 -22.951  0.00  0.00    -0.032 C 
ATOM     30  C   UNL     1      32.517 -11.056 -23.033  0.00  0.00    +0.062 C 
ATOM     31  C   UNL     1      32.187 -13.167 -21.907  0.00  0.00    -0.005 C 
ATOM     32  C   UNL     1      31.731 -10.420 -22.071  0.00  0.00    +0.068 C 
ATOM     33  C   UNL     1      31.401 -12.532 -20.946  0.00  0.00    +0.001 C 
ATOM     34  C   UNL     1      31.173 -11.159 -21.028  0.00  0.00    +0.012 C 
ENDBRANCH  26  29
ENDBRANCH  19  26
ENDBRANCH  18  20
ENDBRANCH   1  18
TORSDOF 5
ENDMDL
MODEL 4
REMARK VINA RESULT:     -11.2      1.493      2.306
REMARK  Name = 24978486
REMARK  5 active torsions:
REMARK  status: ('A' for Active; 'I' for Inactive)
REMARK    1  A    between atoms: O_1  and  C_6
REMARK    2  A    between atoms: O_1  and  C_18
REMARK    3  A    between atoms: C_18  and  C_20
REMARK    4  A    between atoms: N_19  and  C_26
REMARK    5  A    between atoms: C_26  and  C_29
REMARK                            x       y       z     vdW  Elec       q    Type
REMARK                         _______ _______ _______ _____ _____    ______ ____
ROOT
ATOM      1  O   UNL     1      34.141 -23.604 -17.500  0.00  0.00    -0.479 OA
ENDROOT
BRANCH   1   6
ATOM      2  N   UNL     1      33.690 -24.253 -12.720  0.00  0.00    -0.332 NA
ATOM      3  N   UNL     1      35.890 -24.399 -13.692  0.00  0.00    -0.317 NA
ATOM      4  N   UNL     1      36.230 -24.104 -15.979  0.00  0.00    -0.335 N 
ATOM      5  N   UNL     1      35.570 -24.698 -11.390  0.00  0.00    -0.283 N 
ATOM      6  C   UNL     1      33.406 -23.677 -16.343  0.00  0.00    +0.130 C 
ATOM      7  C   UNL     1      33.967 -23.939 -15.081  0.00  0.00    +0.177 C 
ATOM      8  C   UNL     1      32.035 -23.477 -16.466  0.00  0.00    +0.033 C 
ATOM      9  C   UNL     1      33.163 -24.003 -13.932  0.00  0.00    +0.137 C 
ATOM     10  C   UNL     1      35.330 -24.147 -14.889  0.00  0.00    +0.181 C 
ATOM     11  C   UNL     1      31.228 -23.539 -15.336  0.00  0.00    +0.005 C 
ATOM     12  C   UNL     1      31.794 -23.800 -14.084  0.00  0.00    +0.030 C 
ATOM     13  C   UNL     1      35.024 -24.437 -12.665  0.00  0.00    +0.197 C 
ATOM     14  H   UNL     1      37.192 -24.253 -15.830  0.00  0.00    +0.144 HD
ATOM     15  H   UNL     1      35.895 -23.925 -16.887  0.00  0.00    +0.144 HD
ATOM     16  H   UNL     1      34.982 -24.737 -10.601  0.00  0.00    +0.156 HD
ATOM     17  H   UNL     1      36.540 -24.839 -11.288  0.00  0.00    +0.156 HD
ENDBRANCH   1   6
BRANCH   1  18
ATOM     18  C   UNL     1      33.460 -23.188 -18.670  0.00  0.00    +0.205 C 
BRANCH  18  20
ATOM     19  N   UNL     1      35.189 -20.163 -21.222  0.00  0.00    +0.390 N 
ATOM     20  C   UNL     1      34.037 -21.848 -19.118  0.00  0.00    +0.040 C 
ATOM     21  C   UNL     1      33.187 -21.227 -20.231  0.00  0.00    -0.019 C 
ATOM     22  C   UNL     1      35.483 -22.005 -19.598  0.00  0.00    -0.019 C 
ATOM     23  C   UNL     1      33.815 -19.933 -20.754  0.00  0.00    -0.077 C 
ATOM     24  C   UNL     1      36.035 -20.686 -20.142  0.00  0.00    -0.077 C 
ATOM     25  H   UNL     1      35.156 -20.862 -21.964  0.00  0.00    -0.079 HD
BRANCH  19  26
ATOM     26  C   UNL     1      35.756 -18.930 -21.766  0.00  0.00    -0.049 C 
BRANCH  26  29
ATOM     27 CL   UNL     1      35.060 -15.970 -21.963  0.00  0.00    -0.082 Cl
ATOM     28 CL   UNL     1      33.494 -15.119 -24.636  0.00  0.00    -0.081 Cl
ATOM     29  C   UNL     1      35.021 -18.468 -22.996  0.00  0.00    -0.032 C 
ATOM     30  C   UNL     1      34.656 -17.135 -23.183  0.00  0.00    +0.062 C 
ATOM     31  C   UNL     1      34.705 -19.420 -23.966  0.00  0.00    -0.005 C 
ATOM     32  C   UNL     1      33.976 -16.753 -24.340  0.00  0.00    +0.068 C 
ATOM     33  C   UNL     1      34.026 -19.039 -25.122  0.00  0.00    +0.001 C 
ATOM     34  C   UNL     1      33.661 -17.705 -25.309  0.00  0.00    +0.012 C 
ENDBRANCH  26  29
ENDBRANCH  19  26
ENDBRANCH  18  20
ENDBRANCH   1  18
TORSDOF 5
ENDMDL
MODEL 5
REMARK VINA RESULT:     -11.0      5.503     11.492
REMARK  Name = 24978486
REMARK  5 active torsions:
REMARK  status: ('A' for Active; 'I' for Inactive)
REMARK    1  A    between atoms: O_1  and  C_6
REMARK    2  A    between atoms: O_1  and  C_18
REMARK    3  A    between atoms: C_18  and  C_20
REMARK    4  A    between atoms: N_19  and  C_26
REMARK    5  A    between atoms: C_26  and  C_29
REMARK                            x       y       z     vdW  Elec       q    Type
REMARK                         _______ _______ _______ _____ _____    ______ ____
ROOT
ATOM      1  O   UNL     1      34.248 -13.375 -23.603  0.00  0.00    -0.479 OA
ENDROOT
BRANCH   1   6
ATOM      2  N   UNL     1      31.597  -9.378 -22.916  0.00  0.00    -0.332 NA
ATOM      3  N   UNL     1      33.334  -9.326 -24.585  0.00  0.00    -0.317 NA
ATOM      4  N   UNL     1      34.673 -11.187 -25.004  0.00  0.00    -0.335 N 
ATOM      5  N   UNL     1      31.999  -7.443 -24.179  0.00  0.00    -0.283 N 
ATOM      6  C   UNL     1      33.250 -12.665 -22.984  0.00  0.00    +0.130 C 
ATOM      7  C   UNL     1      32.937 -11.330 -23.295  0.00  0.00    +0.177 C 
ATOM      8  C   UNL     1      32.533 -13.336 -21.999  0.00  0.00    +0.033 C 
ATOM      9  C   UNL     1      31.905 -10.655 -22.625  0.00  0.00    +0.137 C 
ATOM     10  C   UNL     1      33.616 -10.603 -24.269  0.00  0.00    +0.181 C 
ATOM     11  C   UNL     1      31.508 -12.678 -21.328  0.00  0.00    +0.005 C 
ATOM     12  C   UNL     1      31.203 -11.350 -21.644  0.00  0.00    +0.030 C 
ATOM     13  C   UNL     1      32.328  -8.783 -23.879  0.00  0.00    +0.197 C 
ATOM     14  H   UNL     1      35.145 -10.663 -25.691  0.00  0.00    +0.144 HD
ATOM     15  H   UNL     1      34.937 -12.120 -24.830  0.00  0.00    +0.144 HD
ATOM     16  H   UNL     1      31.270  -6.995 -23.693  0.00  0.00    +0.156 HD
ATOM     17  H   UNL     1      32.498  -6.957 -24.876  0.00  0.00    +0.156 HD
ENDBRANCH   1   6
BRANCH   1  18
ATOM     18  C   UNL     1      33.863 -14.528 -24.329  0.00  0.00    +0.205 C 
BRANCH  18  20
ATOM     19  N   UNL     1      34.803 -18.297 -22.441  0.00  0.00    +0.390 N 
ATOM     20  C   UNL     1      34.678 -15.716 -23.824  0.00  0.00    +0.040 C 
ATOM     21  C   UNL     1      34.212 -17.021 -24.477  0.00  0.00    -0.019 C 
ATOM     22  C   UNL     1      34.587 -15.837 -22.300  0.00  0.00    -0.019 C 
ATOM     23  C   UNL     1      34.956 -18.227 -23.901  0.00  0.00    -0.077 C 
ATOM     24  C   UNL     1      35.318 -17.083 -21.796  0.00  0.00    -0.077 C 
ATOM     25  H   UNL     1      33.807 -18.367 -22.232  0.00  0.00    -0.079 HD
BRANCH  19  26
ATOM     26  C   UNL     1      35.476 -19.483 -21.913  0.00  0.00    -0.049 C 
BRANCH  26  29
ATOM     27 CL   UNL     1      36.811 -21.289 -19.854  0.00  0.00    -0.082 Cl
ATOM     28 CL   UNL     1      34.788 -22.924 -17.968  0.00  0.00    -0.081 Cl
ATOM     29  C   UNL     1      34.581 -20.276 -20.999  0.00  0.00    -0.032 C 
ATOM     30  C   UNL     1      35.092 -21.132 -20.023  0.00  0.00    +0.062 C 
ATOM     31  C   UNL     1      33.201 -20.136 -21.150  0.00  0.00    -0.005 C 
ATOM     32  C   UNL     1      34.223 -21.847 -19.198  0.00  0.00    +0.068 C 
ATOM     33  C   UNL     1      32.333 -20.850 -20.325  0.00  0.00    +0.001 C 
ATOM     34  C   UNL     1      32.844 -21.706 -19.349  0.00  0.00    +0.012 C 
ENDBRANCH  26  29
ENDBRANCH  19  26
ENDBRANCH  18  20
ENDBRANCH   1  18
TORSDOF 5
ENDMDL
MODEL 6
REMARK VINA RESULT:     -10.9      5.651     11.565
REMARK  Name = 24978486
REMARK  5 active torsions:
REMARK  status: ('A' for Active; 'I' for Inactive)
REMARK    1  A    between atoms: O_1  and  C_6
REMARK    2  A    between atoms: O_1  and  C_18
REMARK    3  A    between atoms: C_18  and  C_20
REMARK    4  A    between atoms: N_19  and  C_26
REMARK    5  A    between atoms: C_26  and  C_29
REMARK                            x       y       z     vdW  Elec       q    Type
REMARK                         _______ _______ _______ _____ _____    ______ ____
ROOT
ATOM      1  O   UNL     1      33.156 -13.842 -24.158  0.00  0.00    -0.479 OA
ENDROOT
BRANCH   1   6
ATOM      2  N   UNL     1      32.741  -9.129 -23.110  0.00  0.00    -0.332 NA
ATOM      3  N   UNL     1      31.629 -10.721 -21.683  0.00  0.00    -0.317 NA
ATOM      4  N   UNL     1      31.757 -13.014 -22.087  0.00  0.00    -0.335 N 
ATOM      5  N   UNL     1      31.487  -8.421 -21.258  0.00  0.00    -0.283 N 
ATOM      6  C   UNL     1      33.412 -12.513 -24.391  0.00  0.00    +0.130 C 
ATOM      7  C   UNL     1      32.915 -11.474 -23.585  0.00  0.00    +0.177 C 
ATOM      8  C   UNL     1      34.207 -12.219 -25.493  0.00  0.00    +0.033 C 
ATOM      9  C   UNL     1      33.210 -10.131 -23.874  0.00  0.00    +0.137 C 
ATOM     10  C   UNL     1      32.115 -11.700 -22.468  0.00  0.00    +0.181 C 
ATOM     11  C   UNL     1      34.506 -10.894 -25.791  0.00  0.00    +0.005 C 
ATOM     12  C   UNL     1      34.008  -9.866 -24.984  0.00  0.00    +0.030 C 
ATOM     13  C   UNL     1      31.976  -9.478 -22.056  0.00  0.00    +0.197 C 
ATOM     14  H   UNL     1      31.191 -13.160 -21.296  0.00  0.00    +0.144 HD
ATOM     15  H   UNL     1      32.076 -13.782 -22.614  0.00  0.00    +0.144 HD
ATOM     16  H   UNL     1      31.710  -7.490 -21.485  0.00  0.00    +0.156 HD
ATOM     17  H   UNL     1      30.924  -8.615 -20.473  0.00  0.00    +0.156 HD
ENDBRANCH   1   6
BRANCH   1  18
ATOM     18  C   UNL     1      33.508 -14.753 -25.182  0.00  0.00    +0.205 C 
BRANCH  18  20
ATOM     19  N   UNL     1      34.750 -18.095 -22.744  0.00  0.00    +0.390 N 
ATOM     20  C   UNL     1      34.397 -15.839 -24.582  0.00  0.00    +0.040 C 
ATOM     21  C   UNL     1      33.838 -17.234 -24.877  0.00  0.00    -0.019 C 
ATOM     22  C   UNL     1      34.549 -15.651 -23.069  0.00  0.00    -0.019 C 
ATOM     23  C   UNL     1      34.669 -18.323 -24.193  0.00  0.00    -0.077 C 
ATOM     24  C   UNL     1      35.356 -16.791 -22.445  0.00  0.00    -0.077 C 
ATOM     25  H   UNL     1      33.800 -18.093 -22.372  0.00  0.00    -0.079 HD
BRANCH  19  26
ATOM     26  C   UNL     1      35.503 -19.170 -22.099  0.00  0.00    -0.049 C 
BRANCH  26  29
ATOM     27 CL   UNL     1      36.884 -21.008 -20.099  0.00  0.00    -0.082 Cl
ATOM     28 CL   UNL     1      34.905 -22.743 -18.257  0.00  0.00    -0.081 Cl
ATOM     29  C   UNL     1      34.628 -20.011 -21.206  0.00  0.00    -0.032 C 
ATOM     30  C   UNL     1      35.162 -20.884 -20.258  0.00  0.00    +0.062 C 
ATOM     31  C   UNL     1      33.245 -19.897 -21.349  0.00  0.00    -0.005 C 
ATOM     32  C   UNL     1      34.312 -21.643 -19.453  0.00  0.00    +0.068 C 
ATOM     33  C   UNL     1      32.396 -20.655 -20.544  0.00  0.00    +0.001 C 
ATOM     34  C   UNL     1      32.930 -21.528 -19.596  0.00  0.00    +0.012 C 
ENDBRANCH  26  29
ENDBRANCH  19  26
ENDBRANCH  18  20
ENDBRANCH   1  18
TORSDOF 5
ENDMDL
MODEL 7
REMARK VINA RESULT:     -10.9      5.967     12.389
REMARK  Name = 24978486
REMARK  5 active torsions:
REMARK  status: ('A' for Active; 'I' for Inactive)
REMARK    1  A    between atoms: O_1  and  C_6
REMARK    2  A    between atoms: O_1  and  C_18
REMARK    3  A    between atoms: C_18  and  C_20
REMARK    4  A    between atoms: N_19  and  C_26
REMARK    5  A    between atoms: C_26  and  C_29
REMARK                            x       y       z     vdW  Elec       q    Type
REMARK                         _______ _______ _______ _____ _____    ______ ____
ROOT
ATOM      1  O   UNL     1      33.625 -12.579 -23.670  0.00  0.00    -0.479 OA
ENDROOT
BRANCH   1   6
ATOM      2  N   UNL     1      32.338  -7.960 -24.367  0.00  0.00    -0.332 NA
ATOM      3  N   UNL     1      31.295  -9.179 -22.568  0.00  0.00    -0.317 NA
ATOM      4  N   UNL     1      31.835 -11.406 -22.137  0.00  0.00    -0.335 N 
ATOM      5  N   UNL     1      30.739  -6.942 -22.985  0.00  0.00    -0.283 N 
ATOM      6  C   UNL     1      33.702 -11.377 -24.329  0.00  0.00    +0.130 C 
ATOM      7  C   UNL     1      32.940 -10.249 -23.980  0.00  0.00    +0.177 C 
ATOM      8  C   UNL     1      34.590 -11.312 -25.398  0.00  0.00    +0.033 C 
ATOM      9  C   UNL     1      33.061  -9.046 -24.694  0.00  0.00    +0.137 C 
ATOM     10  C   UNL     1      32.035 -10.247 -22.922  0.00  0.00    +0.181 C 
ATOM     11  C   UNL     1      34.718 -10.127 -26.113  0.00  0.00    +0.005 C 
ATOM     12  C   UNL     1      33.957  -9.009 -25.758  0.00  0.00    +0.030 C 
ATOM     13  C   UNL     1      31.494  -8.085 -23.322  0.00  0.00    +0.197 C 
ATOM     14  H   UNL     1      31.192 -11.392 -21.392  0.00  0.00    +0.144 HD
ATOM     15  H   UNL     1      32.341 -12.227 -22.335  0.00  0.00    +0.144 HD
ATOM     16  H   UNL     1      30.844  -6.112 -23.503  0.00  0.00    +0.156 HD
ATOM     17  H   UNL     1      30.107  -6.973 -22.230  0.00  0.00    +0.156 HD
ENDBRANCH   1   6
BRANCH   1  18
ATOM     18  C   UNL     1      33.255 -13.710 -24.436  0.00  0.00    +0.205 C 
BRANCH  18  20
ATOM     19  N   UNL     1      34.667 -17.555 -23.065  0.00  0.00    +0.390 N 
ATOM     20  C   UNL     1      34.211 -14.854 -24.108  0.00  0.00    +0.040 C 
ATOM     21  C   UNL     1      33.858 -16.113 -24.906  0.00  0.00    -0.019 C 
ATOM     22  C   UNL     1      34.198 -15.170 -22.609  0.00  0.00    -0.019 C 
ATOM     23  C   UNL     1      34.749 -17.292 -24.508  0.00  0.00    -0.077 C 
ATOM     24  C   UNL     1      35.078 -16.379 -22.288  0.00  0.00    -0.077 C 
ATOM     25  H   UNL     1      33.693 -17.759 -22.837  0.00  0.00    -0.079 HD
BRANCH  19  26
ATOM     26  C   UNL     1      35.483 -18.715 -22.710  0.00  0.00    -0.049 C 
BRANCH  26  29
ATOM     27 CL   UNL     1      37.219 -20.201 -20.694  0.00  0.00    -0.082 Cl
ATOM     28 CL   UNL     1      35.610 -22.071 -18.635  0.00  0.00    -0.081 Cl
ATOM     29  C   UNL     1      34.787 -19.608 -21.717  0.00  0.00    -0.032 C 
ATOM     30  C   UNL     1      35.490 -20.332 -20.754  0.00  0.00    +0.062 C 
ATOM     31  C   UNL     1      33.397 -19.700 -21.781  0.00  0.00    -0.005 C 
ATOM     32  C   UNL     1      34.802 -21.147 -19.854  0.00  0.00    +0.068 C 
ATOM     33  C   UNL     1      32.709 -20.514 -20.882  0.00  0.00    +0.001 C 
ATOM     34  C   UNL     1      33.412 -21.238 -19.918  0.00  0.00    +0.012 C 
ENDBRANCH  26  29
ENDBRANCH  19  26
ENDBRANCH  18  20
ENDBRANCH   1  18
TORSDOF 5
ENDMDL
MODEL 8
REMARK VINA RESULT:     -10.6      2.502      3.655
REMARK  Name = 24978486
REMARK  5 active torsions:
REMARK  status: ('A' for Active; 'I' for Inactive)
REMARK    1  A    between atoms: O_1  and  C_6
REMARK    2  A    between atoms: O_1  and  C_18
REMARK    3  A    between atoms: C_18  and  C_20
REMARK    4  A    between atoms: N_19  and  C_26
REMARK    5  A    between atoms: C_26  and  C_29
REMARK                            x       y       z     vdW  Elec       q    Type
REMARK                         _______ _______ _______ _____ _____    ______ ____
ROOT
ATOM      1  O   UNL     1      32.607 -22.766 -18.074  0.00  0.00    -0.479 OA
ENDROOT
BRANCH   1   6
ATOM      2  N   UNL     1      32.035 -24.606 -13.628  0.00  0.00    -0.332 NA
ATOM      3  N   UNL     1      30.068 -23.952 -14.857  0.00  0.00    -0.317 NA
ATOM      4  N   UNL     1      30.219 -23.055 -17.004  0.00  0.00    -0.335 N 
ATOM      5  N   UNL     1      29.894 -24.852 -12.701  0.00  0.00    -0.283 N 
ATOM      6  C   UNL     1      33.087 -23.296 -16.902  0.00  0.00    +0.130 C 
ATOM      7  C   UNL     1      32.264 -23.691 -15.833  0.00  0.00    +0.177 C 
ATOM      8  C   UNL     1      34.467 -23.433 -16.803  0.00  0.00    +0.033 C 
ATOM      9  C   UNL     1      32.813 -24.225 -14.656  0.00  0.00    +0.137 C 
ATOM     10  C   UNL     1      30.876 -23.581 -15.868  0.00  0.00    +0.181 C 
ATOM     11  C   UNL     1      35.024 -23.961 -15.644  0.00  0.00    +0.005 C 
ATOM     12  C   UNL     1      34.198 -24.351 -14.585  0.00  0.00    +0.030 C 
ATOM     13  C   UNL     1      30.705 -24.449 -13.784  0.00  0.00    +0.197 C 
ATOM     14  H   UNL     1      29.238 -22.983 -17.016  0.00  0.00    +0.144 HD
ATOM     15  H   UNL     1      30.744 -22.762 -17.784  0.00  0.00    +0.144 HD
ATOM     16  H   UNL     1      30.307 -25.223 -11.888  0.00  0.00    +0.156 HD
ATOM     17  H   UNL     1      28.915 -24.762 -12.758  0.00  0.00    +0.156 HD
ENDBRANCH   1   6
BRANCH   1  18
ATOM     18  C   UNL     1      33.435 -22.878 -19.217  0.00  0.00    +0.205 C 
BRANCH  18  20
ATOM     19  N   UNL     1      35.291 -19.649 -21.405  0.00  0.00    +0.390 N 
ATOM     20  C   UNL     1      34.039 -21.508 -19.515  0.00  0.00    +0.040 C 
ATOM     21  C   UNL     1      33.241 -20.780 -20.602  0.00  0.00    -0.019 C 
ATOM     22  C   UNL     1      35.504 -21.634 -19.945  0.00  0.00    -0.019 C 
ATOM     23  C   UNL     1      33.899 -19.450 -20.978  0.00  0.00    -0.077 C 
ATOM     24  C   UNL     1      36.086 -20.277 -20.341  0.00  0.00    -0.077 C 
ATOM     25  H   UNL     1      35.287 -20.278 -22.208  0.00  0.00    -0.079 HD
BRANCH  19  26
ATOM     26  C   UNL     1      35.888 -18.377 -21.809  0.00  0.00    -0.049 C 
BRANCH  26  29
ATOM     27 CL   UNL     1      34.856 -15.536 -21.431  0.00  0.00    -0.082 Cl
ATOM     28 CL   UNL     1      33.292 -14.312 -23.958  0.00  0.00    -0.081 Cl
ATOM     29  C   UNL     1      35.146 -17.748 -22.958  0.00  0.00    -0.032 C 
ATOM     30  C   UNL     1      34.634 -16.453 -22.886  0.00  0.00    +0.062 C 
ATOM     31  C   UNL     1      34.978 -18.501 -24.120  0.00  0.00    -0.005 C 
ATOM     32  C   UNL     1      33.953 -15.911 -23.977  0.00  0.00    +0.068 C 
ATOM     33  C   UNL     1      34.298 -17.960 -25.210  0.00  0.00    +0.001 C 
ATOM     34  C   UNL     1      33.785 -16.665 -25.139  0.00  0.00    +0.012 C 
ENDBRANCH  26  29
ENDBRANCH  19  26
ENDBRANCH  18  20
ENDBRANCH   1  18
TORSDOF 5
ENDMDL
MODEL 9
REMARK VINA RESULT:     -10.4      6.411     12.655
REMARK  Name = 24978486
REMARK  5 active torsions:
REMARK  status: ('A' for Active; 'I' for Inactive)
REMARK    1  A    between atoms: O_1  and  C_6
REMARK    2  A    between atoms: O_1  and  C_18
REMARK    3  A    between atoms: C_18  and  C_20
REMARK    4  A    between atoms: N_19  and  C_26
REMARK    5  A    between atoms: C_26  and  C_29
REMARK                            x       y       z     vdW  Elec       q    Type
REMARK                         _______ _______ _______ _____ _____    ______ ____
ROOT
ATOM      1  O   UNL     1      33.729 -11.754 -23.918  0.00  0.00    -0.479 OA
ENDROOT
BRANCH   1   6
ATOM      2  N   UNL     1      33.196  -6.938 -23.931  0.00  0.00    -0.332 NA
ATOM      3  N   UNL     1      35.011  -7.891 -25.197  0.00  0.00    -0.317 NA
ATOM      4  N   UNL     1      35.367 -10.195 -25.266  0.00  0.00    -0.335 N 
ATOM      5  N   UNL     1      34.671  -5.574 -25.141  0.00  0.00    -0.283 N 
ATOM      6  C   UNL     1      33.092 -10.596 -23.546  0.00  0.00    +0.130 C 
ATOM      7  C   UNL     1      33.503  -9.316 -23.957  0.00  0.00    +0.177 C 
ATOM      8  C   UNL     1      31.987 -10.737 -22.714  0.00  0.00    +0.033 C 
ATOM      9  C   UNL     1      32.812  -8.167 -23.542  0.00  0.00    +0.137 C 
ATOM     10  C   UNL     1      34.599  -9.106 -24.789  0.00  0.00    +0.181 C 
ATOM     11  C   UNL     1      31.294  -9.607 -22.295  0.00  0.00    +0.005 C 
ATOM     12  C   UNL     1      31.709  -8.337 -22.710  0.00  0.00    +0.030 C 
ATOM     13  C   UNL     1      34.274  -6.867 -24.737  0.00  0.00    +0.197 C 
ATOM     14  H   UNL     1      36.139 -10.033 -25.853  0.00  0.00    +0.144 HD
ATOM     15  H   UNL     1      35.126 -11.115 -25.010  0.00  0.00    +0.144 HD
ATOM     16  H   UNL     1      34.167  -4.786 -24.834  0.00  0.00    +0.156 HD
ATOM     17  H   UNL     1      35.451  -5.459 -25.732  0.00  0.00    +0.156 HD
ENDBRANCH   1   6
BRANCH   1  18
ATOM     18  C   UNL     1      33.015 -12.964 -23.746  0.00  0.00    +0.205 C 
BRANCH  18  20
ATOM     19  N   UNL     1      34.581 -16.965 -23.300  0.00  0.00    +0.390 N 
ATOM     20  C   UNL     1      34.015 -14.117 -23.701  0.00  0.00    +0.040 C 
ATOM     21  C   UNL     1      33.680 -15.177 -24.755  0.00  0.00    -0.019 C 
ATOM     22  C   UNL     1      34.050 -14.760 -22.311  0.00  0.00    -0.019 C 
ATOM     23  C   UNL     1      34.618 -16.382 -24.648  0.00  0.00    -0.077 C 
ATOM     24  C   UNL     1      34.976 -15.978 -22.286  0.00  0.00    -0.077 C 
ATOM     25  H   UNL     1      33.621 -17.249 -23.106  0.00  0.00    -0.079 HD
BRANCH  19  26
ATOM     26  C   UNL     1      35.442 -18.144 -23.229  0.00  0.00    -0.049 C 
BRANCH  26  29
ATOM     27 CL   UNL     1      37.533 -19.241 -21.303  0.00  0.00    -0.082 Cl
ATOM     28 CL   UNL     1      36.410 -21.302 -19.109  0.00  0.00    -0.081 Cl
ATOM     29  C   UNL     1      34.978 -19.116 -22.177  0.00  0.00    -0.032 C 
ATOM     30  C   UNL     1      35.855 -19.676 -21.248  0.00  0.00    +0.062 C 
ATOM     31  C   UNL     1      33.625 -19.453 -22.148  0.00  0.00    -0.005 C 
ATOM     32  C   UNL     1      35.379 -20.572 -20.290  0.00  0.00    +0.068 C 
ATOM     33  C   UNL     1      33.148 -20.348 -21.191  0.00  0.00    +0.001 C 
ATOM     34  C   UNL     1      34.026 -20.908 -20.262  0.00  0.00    +0.012 C 
ENDBRANCH  26  29
ENDBRANCH  19  26
ENDBRANCH  18  20
ENDBRANCH   1  18
TORSDOF 5
ENDMDL
