MODEL 1
REMARK VINA RESULT:     -11.6      0.000      0.000
REMARK  Name = 24779675
REMARK  4 active torsions:
REMARK  status: ('A' for Active; 'I' for Inactive)
REMARK    1  A    between atoms: N_1  and  C_22
REMARK    2  A    between atoms: N_5  and  C_14
REMARK    3  A    between atoms: C_10  and  C_21
REMARK    4  A    between atoms: C_22  and  C_23
REMARK                            x       y       z     vdW  Elec       q    Type
REMARK                         _______ _______ _______ _____ _____    ______ ____
ROOT
ATOM      1  N   UNL     1      33.856 -22.977 -17.790  0.00  0.00    -0.259 N 
ATOM      2  N   UNL     1      32.015 -23.528 -16.530  0.00  0.00    -0.314 NA
ATOM      3  N   UNL     1      34.210 -24.014 -15.723  0.00  0.00    -0.295 NA
ATOM      4  N   UNL     1      32.388 -24.570 -14.454  0.00  0.00    -0.123 N 
ATOM      5  N   UNL     1      34.543 -25.064 -13.624  0.00  0.00    -0.274 N 
ATOM      6  N   UNL     1      31.783 -25.083 -13.368  0.00  0.00    -0.170 NA
ATOM      7  C   UNL     1      33.322 -23.510 -16.670  0.00  0.00    +0.203 C 
ATOM      8  C   UNL     1      31.530 -24.072 -15.391  0.00  0.00    +0.219 C 
ATOM      9  C   UNL     1      33.763 -24.542 -14.620  0.00  0.00    +0.279 C 
ATOM     10  C   UNL     1      30.268 -24.274 -14.878  0.00  0.00    +0.203 C 
ATOM     11  C   UNL     1      30.486 -24.898 -13.634  0.00  0.00    +0.116 C 
ATOM     12  H   UNL     1      34.836 -22.969 -17.882  0.00  0.00    +0.160 HD
ATOM     13  H   UNL     1      34.070 -25.432 -12.843  0.00  0.00    +0.156 HD
ENDROOT
BRANCH   5  14
ATOM     14  C   UNL     1      35.937 -25.131 -13.598  0.00  0.00    +0.051 C 
ATOM     15  C   UNL     1      36.612 -25.969 -14.486  0.00  0.00    +0.015 C 
ATOM     16  C   UNL     1      36.655 -24.359 -12.685  0.00  0.00    +0.015 C 
ATOM     17  C   UNL     1      38.005 -26.037 -14.460  0.00  0.00    +0.001 C 
ATOM     18  C   UNL     1      38.049 -24.426 -12.659  0.00  0.00    +0.001 C 
ATOM     19  C   UNL     1      38.723 -25.265 -13.546  0.00  0.00    +0.000 C 
ENDBRANCH   5  14
BRANCH  10  21
ATOM     20  N   UNL     1      28.028 -23.637 -15.990  0.00  0.00    -0.195 NA
ATOM     21  C   UNL     1      29.035 -23.922 -15.490  0.00  0.00    +0.087 C 
ENDBRANCH  10  21
BRANCH   1  22
ATOM     22  C   UNL     1      33.063 -22.420 -18.853  0.00  0.00    +0.099 C 
BRANCH  22  23
ATOM     23  C   UNL     1      33.980 -21.832 -19.924  0.00  0.00    +0.020 C 
ATOM     24  C   UNL     1      33.382 -20.540 -20.498  0.00  0.00    +0.002 C 
ATOM     25  C   UNL     1      35.383 -21.579 -19.358  0.00  0.00    +0.002 C 
ATOM     26  C   UNL     1      34.306 -19.902 -21.534  0.00  0.00    +0.000 C 
ATOM     27  C   UNL     1      36.304 -20.940 -20.396  0.00  0.00    +0.000 C 
ATOM     28  C   UNL     1      35.702 -19.661 -20.971  0.00  0.00    +0.000 C 
ENDBRANCH  22  23
ENDBRANCH   1  22
TORSDOF 4
ENDMDL
MODEL 2
REMARK VINA RESULT:     -10.7      1.480      5.559
REMARK  Name = 24779675
REMARK  4 active torsions:
REMARK  status: ('A' for Active; 'I' for Inactive)
REMARK    1  A    between atoms: N_1  and  C_22
REMARK    2  A    between atoms: N_5  and  C_14
REMARK    3  A    between atoms: C_10  and  C_21
REMARK    4  A    between atoms: C_22  and  C_23
REMARK                            x       y       z     vdW  Elec       q    Type
REMARK                         _______ _______ _______ _____ _____    ______ ____
ROOT
ATOM      1  N   UNL     1      34.141 -22.615 -18.238  0.00  0.00    -0.259 N 
ATOM      2  N   UNL     1      35.060 -23.319 -16.253  0.00  0.00    -0.314 NA
ATOM      3  N   UNL     1      32.689 -23.298 -16.536  0.00  0.00    -0.295 NA
ATOM      4  N   UNL     1      33.586 -24.003 -14.551  0.00  0.00    -0.123 N 
ATOM      5  N   UNL     1      31.238 -23.996 -14.796  0.00  0.00    -0.274 N 
ATOM      6  N   UNL     1      33.518 -24.473 -13.293  0.00  0.00    -0.170 NA
ATOM      7  C   UNL     1      33.991 -23.087 -16.982  0.00  0.00    +0.203 C 
ATOM      8  C   UNL     1      34.857 -23.792 -15.002  0.00  0.00    +0.219 C 
ATOM      9  C   UNL     1      32.472 -23.751 -15.335  0.00  0.00    +0.279 C 
ATOM     10  C   UNL     1      35.681 -24.151 -13.960  0.00  0.00    +0.203 C 
ATOM     11  C   UNL     1      34.803 -24.562 -12.937  0.00  0.00    +0.116 C 
ATOM     12  H   UNL     1      33.333 -22.446 -18.773  0.00  0.00    +0.160 HD
ATOM     13  H   UNL     1      31.221 -24.339 -13.874  0.00  0.00    +0.156 HD
ENDROOT
BRANCH   5  14
ATOM     14  C   UNL     1      30.001 -23.811 -15.416  0.00  0.00    +0.051 C 
ATOM     15  C   UNL     1      29.434 -24.843 -16.165  0.00  0.00    +0.015 C 
ATOM     16  C   UNL     1      29.331 -22.594 -15.286  0.00  0.00    +0.015 C 
ATOM     17  C   UNL     1      28.199 -24.658 -16.786  0.00  0.00    +0.001 C 
ATOM     18  C   UNL     1      28.095 -22.410 -15.906  0.00  0.00    +0.001 C 
ATOM     19  C   UNL     1      27.529 -23.441 -16.656  0.00  0.00    +0.000 C 
ENDBRANCH   5  14
BRANCH  10  21
ATOM     20  N   UNL     1      38.261 -24.071 -13.930  0.00  0.00    -0.195 NA
ATOM     21  C   UNL     1      37.101 -24.107 -13.944  0.00  0.00    +0.087 C 
ENDBRANCH  10  21
BRANCH   1  22
ATOM     22  C   UNL     1      35.424 -22.349 -18.832  0.00  0.00    +0.099 C 
BRANCH  22  23
ATOM     23  C   UNL     1      35.242 -21.510 -20.095  0.00  0.00    +0.020 C 
ATOM     24  C   UNL     1      33.835 -20.899 -20.141  0.00  0.00    +0.002 C 
ATOM     25  C   UNL     1      36.315 -20.416 -20.180  0.00  0.00    +0.002 C 
ATOM     26  C   UNL     1      33.645 -20.011 -21.369  0.00  0.00    +0.000 C 
ATOM     27  C   UNL     1      36.121 -19.529 -21.407  0.00  0.00    +0.000 C 
ATOM     28  C   UNL     1      34.718 -18.931 -21.454  0.00  0.00    +0.000 C 
ENDBRANCH  22  23
ENDBRANCH   1  22
TORSDOF 4
ENDMDL
MODEL 3
REMARK VINA RESULT:     -10.6      1.504      5.491
REMARK  Name = 24779675
REMARK  4 active torsions:
REMARK  status: ('A' for Active; 'I' for Inactive)
REMARK    1  A    between atoms: N_1  and  C_22
REMARK    2  A    between atoms: N_5  and  C_14
REMARK    3  A    between atoms: C_10  and  C_21
REMARK    4  A    between atoms: C_22  and  C_23
REMARK                            x       y       z     vdW  Elec       q    Type
REMARK                         _______ _______ _______ _____ _____    ______ ____
ROOT
ATOM      1  N   UNL     1      34.845 -22.341 -18.130  0.00  0.00    -0.259 N 
ATOM      2  N   UNL     1      36.017 -23.426 -16.478  0.00  0.00    -0.314 NA
ATOM      3  N   UNL     1      33.631 -23.363 -16.412  0.00  0.00    -0.295 NA
ATOM      4  N   UNL     1      34.781 -24.449 -14.758  0.00  0.00    -0.123 N 
ATOM      5  N   UNL     1      32.422 -24.407 -14.661  0.00  0.00    -0.274 N 
ATOM      6  N   UNL     1      34.879 -25.164 -13.623  0.00  0.00    -0.170 NA
ATOM      7  C   UNL     1      34.862 -23.057 -16.987  0.00  0.00    +0.203 C 
ATOM      8  C   UNL     1      35.980 -24.143 -15.332  0.00  0.00    +0.219 C 
ATOM      9  C   UNL     1      33.573 -24.051 -15.309  0.00  0.00    +0.279 C 
ATOM     10  C   UNL     1      36.934 -24.701 -14.511  0.00  0.00    +0.203 C 
ATOM     11  C   UNL     1      36.198 -25.316 -13.478  0.00  0.00    +0.116 C 
ATOM     12  H   UNL     1      33.974 -22.071 -18.500  0.00  0.00    +0.160 HD
ATOM     13  H   UNL     1      32.527 -24.930 -13.833  0.00  0.00    +0.156 HD
ENDROOT
BRANCH   5  14
ATOM     14  C   UNL     1      31.115 -24.108 -15.049  0.00  0.00    +0.051 C 
ATOM     15  C   UNL     1      30.297 -25.109 -15.575  0.00  0.00    +0.015 C 
ATOM     16  C   UNL     1      30.626 -22.808 -14.911  0.00  0.00    +0.015 C 
ATOM     17  C   UNL     1      28.991 -24.810 -15.964  0.00  0.00    +0.001 C 
ATOM     18  C   UNL     1      29.320 -22.510 -15.299  0.00  0.00    +0.001 C 
ATOM     19  C   UNL     1      28.503 -23.510 -15.826  0.00  0.00    +0.000 C 
ENDBRANCH   5  14
BRANCH  10  21
ATOM     20  N   UNL     1      39.494 -24.612 -14.833  0.00  0.00    -0.195 NA
ATOM     21  C   UNL     1      38.343 -24.653 -14.689  0.00  0.00    +0.087 C 
ENDBRANCH  10  21
BRANCH   1  22
ATOM     22  C   UNL     1      36.039 -21.952 -18.834  0.00  0.00    +0.099 C 
BRANCH  22  23
ATOM     23  C   UNL     1      35.661 -21.231 -20.127  0.00  0.00    +0.020 C 
ATOM     24  C   UNL     1      34.176 -20.842 -20.116  0.00  0.00    +0.002 C 
ATOM     25  C   UNL     1      36.547 -19.996 -20.338  0.00  0.00    +0.002 C 
ATOM     26  C   UNL     1      33.785 -20.072 -21.376  0.00  0.00    +0.000 C 
ATOM     27  C   UNL     1      36.152 -19.227 -21.597  0.00  0.00    +0.000 C 
ATOM     28  C   UNL     1      34.674 -18.851 -21.588  0.00  0.00    +0.000 C 
ENDBRANCH  22  23
ENDBRANCH   1  22
TORSDOF 4
ENDMDL
MODEL 4
REMARK VINA RESULT:     -10.2      1.787      7.197
REMARK  Name = 24779675
REMARK  4 active torsions:
REMARK  status: ('A' for Active; 'I' for Inactive)
REMARK    1  A    between atoms: N_1  and  C_22
REMARK    2  A    between atoms: N_5  and  C_14
REMARK    3  A    between atoms: C_10  and  C_21
REMARK    4  A    between atoms: C_22  and  C_23
REMARK                            x       y       z     vdW  Elec       q    Type
REMARK                         _______ _______ _______ _____ _____    ______ ____
ROOT
ATOM      1  N   UNL     1      32.896 -23.161 -15.077  0.00  0.00    -0.259 N 
ATOM      2  N   UNL     1      34.980 -23.880 -14.430  0.00  0.00    -0.314 NA
ATOM      3  N   UNL     1      34.701 -22.716 -16.496  0.00  0.00    -0.295 NA
ATOM      4  N   UNL     1      36.785 -23.425 -15.868  0.00  0.00    -0.123 N 
ATOM      5  N   UNL     1      36.546 -22.276 -17.918  0.00  0.00    -0.274 N 
ATOM      6  N   UNL     1      38.111 -23.572 -16.032  0.00  0.00    -0.170 NA
ATOM      7  C   UNL     1      34.220 -23.269 -15.312  0.00  0.00    +0.203 C 
ATOM      8  C   UNL     1      36.300 -23.962 -14.711  0.00  0.00    +0.219 C 
ATOM      9  C   UNL     1      35.968 -22.785 -16.787  0.00  0.00    +0.279 C 
ATOM     10  C   UNL     1      37.393 -24.500 -14.070  0.00  0.00    +0.203 C 
ATOM     11  C   UNL     1      38.478 -24.230 -14.928  0.00  0.00    +0.116 C 
ATOM     12  H   UNL     1      32.338 -22.701 -15.745  0.00  0.00    +0.160 HD
ATOM     13  H   UNL     1      37.518 -22.401 -18.009  0.00  0.00    +0.156 HD
ENDROOT
BRANCH   5  14
ATOM     14  C   UNL     1      35.903 -21.601 -18.957  0.00  0.00    +0.051 C 
ATOM     15  C   UNL     1      36.604 -20.667 -19.720  0.00  0.00    +0.015 C 
ATOM     16  C   UNL     1      34.560 -21.860 -19.232  0.00  0.00    +0.015 C 
ATOM     17  C   UNL     1      35.962 -19.991 -20.758  0.00  0.00    +0.001 C 
ATOM     18  C   UNL     1      33.919 -21.184 -20.270  0.00  0.00    +0.001 C 
ATOM     19  C   UNL     1      34.619 -20.250 -21.033  0.00  0.00    +0.000 C 
ENDBRANCH   5  14
BRANCH  10  21
ATOM     20  N   UNL     1      37.401 -25.725 -11.798  0.00  0.00    -0.195 NA
ATOM     21  C   UNL     1      37.398 -25.174 -12.819  0.00  0.00    +0.087 C 
ENDBRANCH  10  21
BRANCH   1  22
ATOM     22  C   UNL     1      32.259 -23.684 -13.897  0.00  0.00    +0.099 C 
BRANCH  22  23
ATOM     23  C   UNL     1      30.767 -23.880 -14.161  0.00  0.00    +0.020 C 
ATOM     24  C   UNL     1      30.284 -22.930 -15.265  0.00  0.00    +0.002 C 
ATOM     25  C   UNL     1      30.469 -25.340 -14.528  0.00  0.00    +0.002 C 
ATOM     26  C   UNL     1      28.806 -23.143 -15.586  0.00  0.00    +0.000 C 
ATOM     27  C   UNL     1      28.990 -25.549 -14.850  0.00  0.00    +0.000 C 
ATOM     28  C   UNL     1      28.511 -24.596 -15.941  0.00  0.00    +0.000 C 
ENDBRANCH  22  23
ENDBRANCH   1  22
TORSDOF 4
ENDMDL
MODEL 5
REMARK VINA RESULT:      -9.5      1.443      6.653
REMARK  Name = 24779675
REMARK  4 active torsions:
REMARK  status: ('A' for Active; 'I' for Inactive)
REMARK    1  A    between atoms: N_1  and  C_22
REMARK    2  A    between atoms: N_5  and  C_14
REMARK    3  A    between atoms: C_10  and  C_21
REMARK    4  A    between atoms: C_22  and  C_23
REMARK                            x       y       z     vdW  Elec       q    Type
REMARK                         _______ _______ _______ _____ _____    ______ ____
ROOT
ATOM      1  N   UNL     1      35.079 -24.206 -15.932  0.00  0.00    -0.259 N 
ATOM      2  N   UNL     1      32.809 -24.244 -15.577  0.00  0.00    -0.314 NA
ATOM      3  N   UNL     1      33.716 -23.012 -17.411  0.00  0.00    -0.295 NA
ATOM      4  N   UNL     1      31.452 -23.039 -17.073  0.00  0.00    -0.123 N 
ATOM      5  N   UNL     1      32.313 -21.810 -18.897  0.00  0.00    -0.274 N 
ATOM      6  N   UNL     1      30.182 -22.706 -17.367  0.00  0.00    -0.170 NA
ATOM      7  C   UNL     1      33.833 -23.830 -16.290  0.00  0.00    +0.203 C 
ATOM      8  C   UNL     1      31.581 -23.840 -15.977  0.00  0.00    +0.219 C 
ATOM      9  C   UNL     1      32.544 -22.611 -17.812  0.00  0.00    +0.279 C 
ATOM     10  C   UNL     1      30.300 -24.049 -15.520  0.00  0.00    +0.203 C 
ATOM     11  C   UNL     1      29.482 -23.328 -16.414  0.00  0.00    +0.116 C 
ATOM     12  H   UNL     1      35.836 -23.890 -16.474  0.00  0.00    +0.160 HD
ATOM     13  H   UNL     1      31.374 -21.584 -19.085  0.00  0.00    +0.156 HD
ENDROOT
BRANCH   5  14
ATOM     14  C   UNL     1      33.269 -21.278 -19.764  0.00  0.00    +0.051 C 
ATOM     15  C   UNL     1      32.883 -20.388 -20.767  0.00  0.00    +0.015 C 
ATOM     16  C   UNL     1      34.611 -21.636 -19.628  0.00  0.00    +0.015 C 
ATOM     17  C   UNL     1      33.837 -19.858 -21.635  0.00  0.00    +0.001 C 
ATOM     18  C   UNL     1      35.565 -21.105 -20.496  0.00  0.00    +0.001 C 
ATOM     19  C   UNL     1      35.178 -20.216 -21.499  0.00  0.00    +0.000 C 
ENDBRANCH   5  14
BRANCH  10  21
ATOM     20  N   UNL     1      29.599 -25.455 -13.472  0.00  0.00    -0.195 NA
ATOM     21  C   UNL     1      29.914 -24.823 -14.393  0.00  0.00    +0.087 C 
ENDBRANCH  10  21
BRANCH   1  22
ATOM     22  C   UNL     1      35.353 -25.048 -14.797  0.00  0.00    +0.099 C 
BRANCH  22  23
ATOM     23  C   UNL     1      35.556 -24.185 -13.554  0.00  0.00    +0.020 C 
ATOM     24  C   UNL     1      35.248 -24.987 -12.282  0.00  0.00    +0.002 C 
ATOM     25  C   UNL     1      36.982 -23.621 -13.512  0.00  0.00    +0.002 C 
ATOM     26  C   UNL     1      35.495 -24.162 -11.021  0.00  0.00    +0.000 C 
ATOM     27  C   UNL     1      37.227 -22.799 -12.249  0.00  0.00    +0.000 C 
ATOM     28  C   UNL     1      36.911 -23.596 -10.987  0.00  0.00    +0.000 C 
ENDBRANCH  22  23
ENDBRANCH   1  22
TORSDOF 4
ENDMDL
MODEL 6
REMARK VINA RESULT:      -9.4      1.235      6.441
REMARK  Name = 24779675
REMARK  4 active torsions:
REMARK  status: ('A' for Active; 'I' for Inactive)
REMARK    1  A    between atoms: N_1  and  C_22
REMARK    2  A    between atoms: N_5  and  C_14
REMARK    3  A    between atoms: C_10  and  C_21
REMARK    4  A    between atoms: C_22  and  C_23
REMARK                            x       y       z     vdW  Elec       q    Type
REMARK                         _______ _______ _______ _____ _____    ______ ____
ROOT
ATOM      1  N   UNL     1      35.135 -23.786 -15.523  0.00  0.00    -0.259 N 
ATOM      2  N   UNL     1      32.863 -24.040 -15.295  0.00  0.00    -0.314 NA
ATOM      3  N   UNL     1      33.757 -22.876 -17.179  0.00  0.00    -0.295 NA
ATOM      4  N   UNL     1      31.491 -23.119 -16.970  0.00  0.00    -0.123 N 
ATOM      5  N   UNL     1      32.340 -21.962 -18.845  0.00  0.00    -0.274 N 
ATOM      6  N   UNL     1      30.216 -22.952 -17.364  0.00  0.00    -0.170 NA
ATOM      7  C   UNL     1      33.884 -23.579 -15.983  0.00  0.00    +0.203 C 
ATOM      8  C   UNL     1      31.629 -23.807 -15.799  0.00  0.00    +0.219 C 
ATOM      9  C   UNL     1      32.580 -22.640 -17.680  0.00  0.00    +0.279 C 
ATOM     10  C   UNL     1      30.349 -24.114 -15.399  0.00  0.00    +0.203 C 
ATOM     11  C   UNL     1      29.522 -23.564 -16.399  0.00  0.00    +0.116 C 
ATOM     12  H   UNL     1      35.890 -23.436 -16.047  0.00  0.00    +0.160 HD
ATOM     13  H   UNL     1      31.397 -21.857 -19.106  0.00  0.00    +0.156 HD
ENDROOT
BRANCH   5  14
ATOM     14  C   UNL     1      33.291 -21.405 -19.702  0.00  0.00    +0.051 C 
ATOM     15  C   UNL     1      34.628 -21.792 -19.605  0.00  0.00    +0.015 C 
ATOM     16  C   UNL     1      32.905 -20.462 -20.654  0.00  0.00    +0.015 C 
ATOM     17  C   UNL     1      35.579 -21.234 -20.460  0.00  0.00    +0.001 C 
ATOM     18  C   UNL     1      33.856 -19.905 -21.509  0.00  0.00    +0.001 C 
ATOM     19  C   UNL     1      35.193 -20.291 -21.412  0.00  0.00    +0.000 C 
ENDBRANCH   5  14
BRANCH  10  21
ATOM     20  N   UNL     1      29.661 -25.411 -13.276  0.00  0.00    -0.195 NA
ATOM     21  C   UNL     1      29.971 -24.828 -14.230  0.00  0.00    +0.087 C 
ENDBRANCH  10  21
BRANCH   1  22
ATOM     22  C   UNL     1      35.418 -24.495 -14.302  0.00  0.00    +0.099 C 
BRANCH  22  23
ATOM     23  C   UNL     1      36.776 -25.187 -14.413  0.00  0.00    +0.020 C 
ATOM     24  C   UNL     1      37.741 -24.353 -15.266  0.00  0.00    +0.002 C 
ATOM     25  C   UNL     1      37.365 -25.452 -13.021  0.00  0.00    +0.002 C 
ATOM     26  C   UNL     1      39.123 -24.998 -15.348  0.00  0.00    +0.000 C 
ATOM     27  C   UNL     1      38.748 -26.095 -13.107  0.00  0.00    +0.000 C 
ATOM     28  C   UNL     1      39.702 -25.267 -13.963  0.00  0.00    +0.000 C 
ENDBRANCH  22  23
ENDBRANCH   1  22
TORSDOF 4
ENDMDL
