MODEL 1
REMARK VINA RESULT:     -11.1      0.000      0.000
REMARK  Name = 16045418
REMARK  6 active torsions:
REMARK  status: ('A' for Active; 'I' for Inactive)
REMARK    1  A    between atoms: C_2  and  O_8
REMARK    2  A    between atoms: C_4  and  O_23
REMARK    3  A    between atoms: O_8  and  C_9
REMARK    4  A    between atoms: C_9  and  C_14
REMARK    5  A    between atoms: O_23  and  C_25
REMARK    6  A    between atoms: C_28  and  C_32
REMARK                            x       y       z     vdW  Elec       q    Type
REMARK                         _______ _______ _______ _____ _____    ______ ____
ROOT
ATOM      1 CL   UNL     1      31.908 -12.404 -20.860  0.00  0.00    -0.079 Cl
ATOM      2  C   UNL     1      34.673 -15.334 -22.884  0.00  0.00    +0.142 C 
ATOM      3  C   UNL     1      34.062 -14.337 -23.640  0.00  0.00    +0.075 C 
ATOM      4  C   UNL     1      33.206 -13.426 -23.021  0.00  0.00    +0.159 C 
ATOM      5  C   UNL     1      34.434 -15.428 -21.516  0.00  0.00    +0.038 C 
ATOM      6  C   UNL     1      32.963 -13.516 -21.651  0.00  0.00    +0.092 C 
ATOM      7  C   UNL     1      33.577 -14.517 -20.899  0.00  0.00    +0.018 C 
ENDROOT
BRANCH   2   8
ATOM      8  O   UNL     1      35.512 -16.228 -23.491  0.00  0.00    -0.469 OA
BRANCH   8   9
ATOM      9  C   UNL     1      35.049 -17.577 -23.581  0.00  0.00    +0.249 C 
BRANCH   9  14
ATOM     10  N   UNL     1      37.056 -18.322 -22.323  0.00  0.00    -0.227 N 
ATOM     11  N   UNL     1      37.510 -19.152 -21.360  0.00  0.00    -0.115 NA
ATOM     12  N   UNL     1      36.307 -20.761 -20.000  0.00  0.00    -0.335 NA
ATOM     13  N   UNL     1      34.783 -22.213 -18.882  0.00  0.00    -0.332 N 
ATOM     14  C   UNL     1      35.712 -18.409 -22.564  0.00  0.00    +0.097 C 
ATOM     15  C   UNL     1      35.263 -19.362 -21.693  0.00  0.00    +0.090 C 
ATOM     16  C   UNL     1      36.409 -19.800 -20.962  0.00  0.00    +0.105 C 
ATOM     17  C   UNL     1      33.953 -19.798 -21.566  0.00  0.00    +0.016 C 
ATOM     18  C   UNL     1      33.870 -20.782 -20.575  0.00  0.00    +0.049 C 
ATOM     19  C   UNL     1      35.017 -21.204 -19.860  0.00  0.00    +0.189 C 
ATOM     20  H   UNL     1      37.647 -17.705 -22.814  0.00  0.00    +0.175 HD
ATOM     21  H   UNL     1      35.530 -22.560 -18.343  0.00  0.00    +0.145 HD
ATOM     22  H   UNL     1      33.873 -22.565 -18.745  0.00  0.00    +0.145 HD
ENDBRANCH   9  14
ENDBRANCH   8   9
ENDBRANCH   2   8
BRANCH   4  23
ATOM     23  O   UNL     1      32.620 -12.457 -23.781  0.00  0.00    -0.452 OA
BRANCH  23  25
ATOM     24 CL   UNL     1      35.193 -11.645 -28.095  0.00  0.00    -0.082 Cl
ATOM     25  C   UNL     1      33.451 -11.627 -24.513  0.00  0.00    +0.147 C 
ATOM     26  C   UNL     1      33.863 -10.427 -23.960  0.00  0.00    +0.048 C 
ATOM     27  C   UNL     1      33.849 -12.016 -25.780  0.00  0.00    +0.049 C 
ATOM     28  C   UNL     1      34.701  -9.591 -24.698  0.00  0.00    +0.072 C 
ATOM     29  C   UNL     1      34.686 -11.180 -26.517  0.00  0.00    +0.061 C 
ATOM     30  C   UNL     1      35.112  -9.967 -25.977  0.00  0.00    +0.022 C 
BRANCH  28  32
ATOM     31  N   UNL     1      35.493  -7.335 -23.692  0.00  0.00    -0.191 NA
ATOM     32  C   UNL     1      35.136  -8.348 -24.144  0.00  0.00    +0.101 C 
ENDBRANCH  28  32
ENDBRANCH  23  25
ENDBRANCH   4  23
TORSDOF 6
ENDMDL
MODEL 2
REMARK VINA RESULT:     -11.1      7.435     12.217
REMARK  Name = 16045418
REMARK  6 active torsions:
REMARK  status: ('A' for Active; 'I' for Inactive)
REMARK    1  A    between atoms: C_2  and  O_8
REMARK    2  A    between atoms: C_4  and  O_23
REMARK    3  A    between atoms: O_8  and  C_9
REMARK    4  A    between atoms: C_9  and  C_14
REMARK    5  A    between atoms: O_23  and  C_25
REMARK    6  A    between atoms: C_28  and  C_32
REMARK                            x       y       z     vdW  Elec       q    Type
REMARK                         _______ _______ _______ _____ _____    ______ ____
ROOT
ATOM      1 CL   UNL     1      30.770 -23.901 -12.705  0.00  0.00    -0.079 Cl
ATOM      2  C   UNL     1      31.656 -23.091 -17.051  0.00  0.00    +0.142 C 
ATOM      3  C   UNL     1      32.708 -23.347 -16.175  0.00  0.00    +0.075 C 
ATOM      4  C   UNL     1      32.442 -23.599 -14.829  0.00  0.00    +0.159 C 
ATOM      5  C   UNL     1      30.343 -23.084 -16.592  0.00  0.00    +0.038 C 
ATOM      6  C   UNL     1      31.127 -23.594 -14.364  0.00  0.00    +0.092 C 
ATOM      7  C   UNL     1      30.078 -23.336 -15.246  0.00  0.00    +0.018 C 
ENDROOT
BRANCH   2   8
ATOM      8  O   UNL     1      31.917 -22.843 -18.371  0.00  0.00    -0.469 OA
BRANCH   8   9
ATOM      9  C   UNL     1      33.289 -22.657 -18.725  0.00  0.00    +0.249 C 
BRANCH   9  14
ATOM     10  N   UNL     1      32.320 -21.019 -20.321  0.00  0.00    -0.227 N 
ATOM     11  N   UNL     1      32.603 -20.035 -21.200  0.00  0.00    -0.115 NA
ATOM     12  N   UNL     1      34.745 -19.106 -21.858  0.00  0.00    -0.335 NA
ATOM     13  N   UNL     1      37.014 -18.475 -22.231  0.00  0.00    -0.332 N 
ATOM     14  C   UNL     1      33.414 -21.572 -19.712  0.00  0.00    +0.097 C 
ATOM     15  C   UNL     1      34.482 -20.896 -20.234  0.00  0.00    +0.090 C 
ATOM     16  C   UNL     1      33.938 -19.950 -21.155  0.00  0.00    +0.105 C 
ATOM     17  C   UNL     1      35.815 -21.109 -19.917  0.00  0.00    +0.016 C 
ATOM     18  C   UNL     1      36.626 -20.233 -20.647  0.00  0.00    +0.049 C 
ATOM     19  C   UNL     1      36.069 -19.300 -21.556  0.00  0.00    +0.189 C 
ATOM     20  H   UNL     1      31.399 -21.315 -20.133  0.00  0.00    +0.175 HD
ATOM     21  H   UNL     1      36.705 -17.802 -22.878  0.00  0.00    +0.145 HD
ATOM     22  H   UNL     1      37.976 -18.579 -22.048  0.00  0.00    +0.145 HD
ENDBRANCH   9  14
ENDBRANCH   8   9
ENDBRANCH   2   8
BRANCH   4  23
ATOM     23  O   UNL     1      33.488 -23.848 -13.990  0.00  0.00    -0.452 OA
BRANCH  23  25
ATOM     24 CL   UNL     1      37.180 -21.407 -16.500  0.00  0.00    -0.082 Cl
ATOM     25  C   UNL     1      34.757 -23.888 -14.541  0.00  0.00    +0.147 C 
ATOM     26  C   UNL     1      35.493 -25.057 -14.456  0.00  0.00    +0.048 C 
ATOM     27  C   UNL     1      35.258 -22.759 -15.165  0.00  0.00    +0.049 C 
ATOM     28  C   UNL     1      36.771 -25.097 -15.012  0.00  0.00    +0.072 C 
ATOM     29  C   UNL     1      36.536 -22.800 -15.721  0.00  0.00    +0.061 C 
ATOM     30  C   UNL     1      37.293 -23.969 -15.644  0.00  0.00    +0.022 C 
BRANCH  28  32
ATOM     31  N   UNL     1      38.177 -27.272 -14.868  0.00  0.00    -0.191 NA
ATOM     32  C   UNL     1      37.547 -26.295 -14.932  0.00  0.00    +0.101 C 
ENDBRANCH  28  32
ENDBRANCH  23  25
ENDBRANCH   4  23
TORSDOF 6
ENDMDL
MODEL 3
REMARK VINA RESULT:     -10.7      8.159     11.623
REMARK  Name = 16045418
REMARK  6 active torsions:
REMARK  status: ('A' for Active; 'I' for Inactive)
REMARK    1  A    between atoms: C_2  and  O_8
REMARK    2  A    between atoms: C_4  and  O_23
REMARK    3  A    between atoms: O_8  and  C_9
REMARK    4  A    between atoms: C_9  and  C_14
REMARK    5  A    between atoms: O_23  and  C_25
REMARK    6  A    between atoms: C_28  and  C_32
REMARK                            x       y       z     vdW  Elec       q    Type
REMARK                         _______ _______ _______ _____ _____    ______ ____
ROOT
ATOM      1 CL   UNL     1      28.939 -22.563 -17.082  0.00  0.00    -0.079 Cl
ATOM      2  C   UNL     1      32.343 -24.027 -14.514  0.00  0.00    +0.142 C 
ATOM      3  C   UNL     1      32.557 -23.808 -15.873  0.00  0.00    +0.075 C 
ATOM      4  C   UNL     1      31.509 -23.355 -16.674  0.00  0.00    +0.159 C 
ATOM      5  C   UNL     1      31.091 -23.797 -13.952  0.00  0.00    +0.038 C 
ATOM      6  C   UNL     1      30.253 -23.123 -16.115  0.00  0.00    +0.092 C 
ATOM      7  C   UNL     1      30.044 -23.344 -14.754  0.00  0.00    +0.018 C 
ENDROOT
BRANCH   2   8
ATOM      8  O   UNL     1      33.370 -24.472 -13.729  0.00  0.00    -0.469 OA
BRANCH   8   9
ATOM      9  C   UNL     1      34.661 -23.919 -13.993  0.00  0.00    +0.249 C 
BRANCH   9  14
ATOM     10  N   UNL     1      35.148 -25.960 -15.322  0.00  0.00    -0.227 N 
ATOM     11  N   UNL     1      36.104 -26.844 -15.675  0.00  0.00    -0.115 NA
ATOM     12  N   UNL     1      38.445 -26.940 -15.044  0.00  0.00    -0.335 NA
ATOM     13  N   UNL     1      40.658 -26.684 -14.197  0.00  0.00    -0.332 N 
ATOM     14  C   UNL     1      35.572 -24.968 -14.479  0.00  0.00    +0.097 C 
ATOM     15  C   UNL     1      36.898 -25.230 -14.273  0.00  0.00    +0.090 C 
ATOM     16  C   UNL     1      37.192 -26.403 -15.032  0.00  0.00    +0.105 C 
ATOM     17  C   UNL     1      37.761 -24.490 -13.479  0.00  0.00    +0.016 C 
ATOM     18  C   UNL     1      39.040 -25.055 -13.506  0.00  0.00    +0.049 C 
ATOM     19  C   UNL     1      39.313 -26.219 -14.266  0.00  0.00    +0.189 C 
ATOM     20  H   UNL     1      34.220 -26.023 -15.645  0.00  0.00    +0.175 HD
ATOM     21  H   UNL     1      40.927 -27.488 -14.697  0.00  0.00    +0.145 HD
ATOM     22  H   UNL     1      41.319 -26.201 -13.649  0.00  0.00    +0.145 HD
ENDBRANCH   9  14
ENDBRANCH   8   9
ENDBRANCH   2   8
BRANCH   4  23
ATOM     23  O   UNL     1      31.742 -23.146 -18.001  0.00  0.00    -0.452 OA
BRANCH  23  25
ATOM     24 CL   UNL     1      36.704 -22.671 -16.979  0.00  0.00    -0.082 Cl
ATOM     25  C   UNL     1      32.969 -22.616 -18.362  0.00  0.00    +0.147 C 
ATOM     26  C   UNL     1      33.057 -21.831 -19.498  0.00  0.00    +0.048 C 
ATOM     27  C   UNL     1      34.077 -22.884 -17.577  0.00  0.00    +0.049 C 
ATOM     28  C   UNL     1      34.293 -21.296 -19.860  0.00  0.00    +0.072 C 
ATOM     29  C   UNL     1      35.313 -22.349 -17.940  0.00  0.00    +0.061 C 
ATOM     30  C   UNL     1      35.421 -21.556 -19.082  0.00  0.00    +0.022 C 
BRANCH  28  32
ATOM     31  N   UNL     1      34.494 -19.820 -21.983  0.00  0.00    -0.191 NA
ATOM     32  C   UNL     1      34.404 -20.484 -21.031  0.00  0.00    +0.101 C 
ENDBRANCH  28  32
ENDBRANCH  23  25
ENDBRANCH   4  23
TORSDOF 6
ENDMDL
MODEL 4
REMARK VINA RESULT:     -10.7      2.107      4.188
REMARK  Name = 16045418
REMARK  6 active torsions:
REMARK  status: ('A' for Active; 'I' for Inactive)
REMARK    1  A    between atoms: C_2  and  O_8
REMARK    2  A    between atoms: C_4  and  O_23
REMARK    3  A    between atoms: O_8  and  C_9
REMARK    4  A    between atoms: C_9  and  C_14
REMARK    5  A    between atoms: O_23  and  C_25
REMARK    6  A    between atoms: C_28  and  C_32
REMARK                            x       y       z     vdW  Elec       q    Type
REMARK                         _______ _______ _______ _____ _____    ______ ____
ROOT
ATOM      1 CL   UNL     1      33.576 -15.378 -25.884  0.00  0.00    -0.079 Cl
ATOM      2  C   UNL     1      34.914 -18.602 -23.030  0.00  0.00    +0.142 C 
ATOM      3  C   UNL     1      35.315 -17.286 -22.812  0.00  0.00    +0.075 C 
ATOM      4  C   UNL     1      34.905 -16.282 -23.690  0.00  0.00    +0.159 C 
ATOM      5  C   UNL     1      34.108 -18.922 -24.119  0.00  0.00    +0.038 C 
ATOM      6  C   UNL     1      34.097 -16.598 -24.782  0.00  0.00    +0.092 C 
ATOM      7  C   UNL     1      33.699 -17.918 -24.997  0.00  0.00    +0.018 C 
ENDROOT
BRANCH   2   8
ATOM      8  O   UNL     1      35.317 -19.585 -22.169  0.00  0.00    -0.469 OA
BRANCH   8   9
ATOM      9  C   UNL     1      34.288 -20.246 -21.430  0.00  0.00    +0.249 C 
BRANCH   9  14
ATOM     10  N   UNL     1      36.194 -20.840 -19.954  0.00  0.00    -0.227 N 
ATOM     11  N   UNL     1      36.563 -21.521 -18.849  0.00  0.00    -0.115 NA
ATOM     12  N   UNL     1      35.230 -22.866 -17.332  0.00  0.00    -0.335 NA
ATOM     13  N   UNL     1      33.595 -24.084 -16.097  0.00  0.00    -0.332 N 
ATOM     14  C   UNL     1      34.863 -20.926 -20.259  0.00  0.00    +0.097 C 
ATOM     15  C   UNL     1      34.332 -21.720 -19.280  0.00  0.00    +0.090 C 
ATOM     16  C   UNL     1      35.420 -22.070 -18.423  0.00  0.00    +0.105 C 
ATOM     17  C   UNL     1      33.002 -22.095 -19.166  0.00  0.00    +0.016 C 
ATOM     18  C   UNL     1      32.829 -22.910 -18.042  0.00  0.00    +0.049 C 
ATOM     19  C   UNL     1      33.920 -23.246 -17.203  0.00  0.00    +0.189 C 
ATOM     20  H   UNL     1      36.832 -20.323 -20.497  0.00  0.00    +0.175 HD
ATOM     21  H   UNL     1      34.299 -24.362 -15.468  0.00  0.00    +0.145 HD
ATOM     22  H   UNL     1      32.667 -24.385 -15.963  0.00  0.00    +0.145 HD
ENDBRANCH   9  14
ENDBRANCH   8   9
ENDBRANCH   2   8
BRANCH   4  23
ATOM     23  O   UNL     1      35.309 -15.002 -23.456  0.00  0.00    -0.452 OA
BRANCH  23  25
ATOM     24 CL   UNL     1      31.537 -13.782 -20.265  0.00  0.00    -0.082 Cl
ATOM     25  C   UNL     1      34.344 -14.085 -23.074  0.00  0.00    +0.147 C 
ATOM     26  C   UNL     1      34.216 -12.905 -23.786  0.00  0.00    +0.048 C 
ATOM     27  C   UNL     1      33.531 -14.371 -21.992  0.00  0.00    +0.049 C 
ATOM     28  C   UNL     1      33.244 -11.981 -23.402  0.00  0.00    +0.072 C 
ATOM     29  C   UNL     1      32.559 -13.447 -21.609  0.00  0.00    +0.061 C 
ATOM     30  C   UNL     1      32.416 -12.252 -22.314  0.00  0.00    +0.022 C 
BRANCH  28  32
ATOM     31  N   UNL     1      32.978  -9.759 -24.713  0.00  0.00    -0.191 NA
ATOM     32  C   UNL     1      33.098 -10.757 -24.125  0.00  0.00    +0.101 C 
ENDBRANCH  28  32
ENDBRANCH  23  25
ENDBRANCH   4  23
TORSDOF 6
ENDMDL
MODEL 5
REMARK VINA RESULT:     -10.7      8.973     11.872
REMARK  Name = 16045418
REMARK  6 active torsions:
REMARK  status: ('A' for Active; 'I' for Inactive)
REMARK    1  A    between atoms: C_2  and  O_8
REMARK    2  A    between atoms: C_4  and  O_23
REMARK    3  A    between atoms: O_8  and  C_9
REMARK    4  A    between atoms: C_9  and  C_14
REMARK    5  A    between atoms: O_23  and  C_25
REMARK    6  A    between atoms: C_28  and  C_32
REMARK                            x       y       z     vdW  Elec       q    Type
REMARK                         _______ _______ _______ _____ _____    ______ ____
ROOT
ATOM      1 CL   UNL     1      29.043 -22.552 -16.985  0.00  0.00    -0.079 Cl
ATOM      2  C   UNL     1      32.350 -24.093 -14.337  0.00  0.00    +0.142 C 
ATOM      3  C   UNL     1      32.581 -23.944 -15.702  0.00  0.00    +0.075 C 
ATOM      4  C   UNL     1      31.563 -23.467 -16.529  0.00  0.00    +0.159 C 
ATOM      5  C   UNL     1      31.111 -23.771 -13.792  0.00  0.00    +0.038 C 
ATOM      6  C   UNL     1      30.319 -23.142 -15.987  0.00  0.00    +0.092 C 
ATOM      7  C   UNL     1      30.093 -23.295 -14.620  0.00  0.00    +0.018 C 
ENDROOT
BRANCH   2   8
ATOM      8  O   UNL     1      33.348 -24.561 -13.527  0.00  0.00    -0.469 OA
BRANCH   8   9
ATOM      9  C   UNL     1      34.645 -23.994 -13.721  0.00  0.00    +0.249 C 
BRANCH   9  14
ATOM     10  N   UNL     1      35.131 -25.942 -15.182  0.00  0.00    -0.227 N 
ATOM     11  N   UNL     1      36.091 -26.791 -15.606  0.00  0.00    -0.115 NA
ATOM     12  N   UNL     1      38.443 -26.898 -15.021  0.00  0.00    -0.335 NA
ATOM     13  N   UNL     1      40.667 -26.669 -14.195  0.00  0.00    -0.332 N 
ATOM     14  C   UNL     1      35.558 -25.000 -14.286  0.00  0.00    +0.097 C 
ATOM     15  C   UNL     1      36.891 -25.258 -14.118  0.00  0.00    +0.090 C 
ATOM     16  C   UNL     1      37.184 -26.378 -14.954  0.00  0.00    +0.105 C 
ATOM     17  C   UNL     1      37.759 -24.558 -13.294  0.00  0.00    +0.016 C 
ATOM     18  C   UNL     1      39.044 -25.105 -13.378  0.00  0.00    +0.049 C 
ATOM     19  C   UNL     1      39.316 -26.217 -14.213  0.00  0.00    +0.189 C 
ATOM     20  H   UNL     1      34.198 -25.996 -15.494  0.00  0.00    +0.175 HD
ATOM     21  H   UNL     1      40.937 -27.437 -14.749  0.00  0.00    +0.145 HD
ATOM     22  H   UNL     1      41.332 -26.213 -13.629  0.00  0.00    +0.145 HD
ENDBRANCH   9  14
ENDBRANCH   8   9
ENDBRANCH   2   8
BRANCH   4  23
ATOM     23  O   UNL     1      31.812 -23.328 -17.862  0.00  0.00    -0.452 OA
BRANCH  23  25
ATOM     24 CL   UNL     1      34.358 -20.438 -21.188  0.00  0.00    -0.082 Cl
ATOM     25  C   UNL     1      33.012 -22.744 -18.232  0.00  0.00    +0.147 C 
ATOM     26  C   UNL     1      34.131 -22.941 -17.442  0.00  0.00    +0.048 C 
ATOM     27  C   UNL     1      33.063 -21.980 -19.385  0.00  0.00    +0.049 C 
ATOM     28  C   UNL     1      35.339 -22.354 -17.816  0.00  0.00    +0.072 C 
ATOM     29  C   UNL     1      34.272 -21.393 -19.759  0.00  0.00    +0.061 C 
ATOM     30  C   UNL     1      35.410 -21.580 -18.974  0.00  0.00    +0.022 C 
BRANCH  28  32
ATOM     31  N   UNL     1      37.454 -22.699 -16.355  0.00  0.00    -0.191 NA
ATOM     32  C   UNL     1      36.505 -22.545 -17.011  0.00  0.00    +0.101 C 
ENDBRANCH  28  32
ENDBRANCH  23  25
ENDBRANCH   4  23
TORSDOF 6
ENDMDL
MODEL 6
REMARK VINA RESULT:     -10.7      7.288     12.243
REMARK  Name = 16045418
REMARK  6 active torsions:
REMARK  status: ('A' for Active; 'I' for Inactive)
REMARK    1  A    between atoms: C_2  and  O_8
REMARK    2  A    between atoms: C_4  and  O_23
REMARK    3  A    between atoms: O_8  and  C_9
REMARK    4  A    between atoms: C_9  and  C_14
REMARK    5  A    between atoms: O_23  and  C_25
REMARK    6  A    between atoms: C_28  and  C_32
REMARK                            x       y       z     vdW  Elec       q    Type
REMARK                         _______ _______ _______ _____ _____    ______ ____
ROOT
ATOM      1 CL   UNL     1      30.816 -25.172 -13.629  0.00  0.00    -0.079 Cl
ATOM      2  C   UNL     1      31.952 -22.823 -17.305  0.00  0.00    +0.142 C 
ATOM      3  C   UNL     1      32.913 -23.604 -16.669  0.00  0.00    +0.075 C 
ATOM      4  C   UNL     1      32.570 -24.334 -15.531  0.00  0.00    +0.159 C 
ATOM      5  C   UNL     1      30.651 -22.766 -16.813  0.00  0.00    +0.038 C 
ATOM      6  C   UNL     1      31.268 -24.281 -15.034  0.00  0.00    +0.092 C 
ATOM      7  C   UNL     1      30.309 -23.496 -15.675  0.00  0.00    +0.018 C 
ENDROOT
BRANCH   2   8
ATOM      8  O   UNL     1      32.289 -22.107 -18.421  0.00  0.00    -0.469 OA
BRANCH   8   9
ATOM      9  C   UNL     1      33.182 -22.740 -19.339  0.00  0.00    +0.249 C 
BRANCH   9  14
ATOM     10  N   UNL     1      35.507 -22.091 -18.756  0.00  0.00    -0.227 N 
ATOM     11  N   UNL     1      36.526 -21.256 -19.049  0.00  0.00    -0.115 NA
ATOM     12  N   UNL     1      36.670 -19.502 -20.718  0.00  0.00    -0.335 NA
ATOM     13  N   UNL     1      36.411 -17.891 -22.456  0.00  0.00    -0.332 N 
ATOM     14  C   UNL     1      34.387 -21.915 -19.522  0.00  0.00    +0.097 C 
ATOM     15  C   UNL     1      34.705 -20.893 -20.373  0.00  0.00    +0.090 C 
ATOM     16  C   UNL     1      36.042 -20.509 -20.048  0.00  0.00    +0.105 C 
ATOM     17  C   UNL     1      33.877 -20.354 -21.346  0.00  0.00    +0.016 C 
ATOM     18  C   UNL     1      34.539 -19.324 -22.022  0.00  0.00    +0.049 C 
ATOM     19  C   UNL     1      35.865 -18.958 -21.686  0.00  0.00    +0.189 C 
ATOM     20  H   UNL     1      35.566 -22.773 -18.047  0.00  0.00    +0.175 HD
ATOM     21  H   UNL     1      37.328 -17.578 -22.283  0.00  0.00    +0.145 HD
ATOM     22  H   UNL     1      35.871 -17.467 -23.162  0.00  0.00    +0.145 HD
ENDBRANCH   9  14
ENDBRANCH   8   9
ENDBRANCH   2   8
BRANCH   4  23
ATOM     23  O   UNL     1      33.527 -25.093 -14.926  0.00  0.00    -0.452 OA
BRANCH  23  25
ATOM     24 CL   UNL     1      37.938 -22.945 -16.278  0.00  0.00    -0.082 Cl
ATOM     25  C   UNL     1      34.694 -24.459 -14.532  0.00  0.00    +0.147 C 
ATOM     26  C   UNL     1      34.915 -24.229 -13.186  0.00  0.00    +0.048 C 
ATOM     27  C   UNL     1      35.610 -24.073 -15.494  0.00  0.00    +0.049 C 
ATOM     28  C   UNL     1      36.091 -23.592 -12.789  0.00  0.00    +0.072 C 
ATOM     29  C   UNL     1      36.785 -23.436 -15.098  0.00  0.00    +0.061 C 
ATOM     30  C   UNL     1      37.026 -23.194 -13.745  0.00  0.00    +0.022 C 
BRANCH  28  32
ATOM     31  N   UNL     1      36.537 -23.142 -10.274  0.00  0.00    -0.191 NA
ATOM     32  C   UNL     1      36.336 -23.344 -11.403  0.00  0.00    +0.101 C 
ENDBRANCH  28  32
ENDBRANCH  23  25
ENDBRANCH   4  23
TORSDOF 6
ENDMDL
MODEL 7
REMARK VINA RESULT:     -10.6      5.423     11.116
REMARK  Name = 16045418
REMARK  6 active torsions:
REMARK  status: ('A' for Active; 'I' for Inactive)
REMARK    1  A    between atoms: C_2  and  O_8
REMARK    2  A    between atoms: C_4  and  O_23
REMARK    3  A    between atoms: O_8  and  C_9
REMARK    4  A    between atoms: C_9  and  C_14
REMARK    5  A    between atoms: O_23  and  C_25
REMARK    6  A    between atoms: C_28  and  C_32
REMARK                            x       y       z     vdW  Elec       q    Type
REMARK                         _______ _______ _______ _____ _____    ______ ____
ROOT
ATOM      1 CL   UNL     1      36.590 -23.053 -16.548  0.00  0.00    -0.079 Cl
ATOM      2  C   UNL     1      35.095 -20.919 -20.227  0.00  0.00    +0.142 C 
ATOM      3  C   UNL     1      34.388 -22.013 -19.737  0.00  0.00    +0.075 C 
ATOM      4  C   UNL     1      34.843 -22.679 -18.599  0.00  0.00    +0.159 C 
ATOM      5  C   UNL     1      36.254 -20.486 -19.589  0.00  0.00    +0.038 C 
ATOM      6  C   UNL     1      36.003 -22.249 -17.956  0.00  0.00    +0.092 C 
ATOM      7  C   UNL     1      36.709 -21.152 -18.451  0.00  0.00    +0.018 C 
ENDROOT
BRANCH   2   8
ATOM      8  O   UNL     1      34.649 -20.267 -21.343  0.00  0.00    -0.469 OA
BRANCH   8   9
ATOM      9  C   UNL     1      35.410 -19.133 -21.766  0.00  0.00    +0.249 C 
BRANCH   9  14
ATOM     10  N   UNL     1      34.510 -19.418 -24.063  0.00  0.00    -0.227 N 
ATOM     11  N   UNL     1      34.029 -18.774 -25.147  0.00  0.00    -0.115 NA
ATOM     12  N   UNL     1      33.702 -16.401 -25.529  0.00  0.00    -0.335 NA
ATOM     13  N   UNL     1      33.536 -14.023 -25.511  0.00  0.00    -0.332 N 
ATOM     14  C   UNL     1      34.866 -18.600 -23.025  0.00  0.00    +0.097 C 
ATOM     15  C   UNL     1      34.595 -17.335 -23.470  0.00  0.00    +0.090 C 
ATOM     16  C   UNL     1      34.076 -17.485 -24.792  0.00  0.00    +0.105 C 
ATOM     17  C   UNL     1      34.794 -16.161 -22.760  0.00  0.00    +0.016 C 
ATOM     18  C   UNL     1      34.403 -15.063 -23.532  0.00  0.00    +0.049 C 
ATOM     19  C   UNL     1      33.891 -15.230 -24.842  0.00  0.00    +0.189 C 
ATOM     20  H   UNL     1      34.598 -20.398 -24.023  0.00  0.00    +0.175 HD
ATOM     21  H   UNL     1      33.172 -14.055 -26.425  0.00  0.00    +0.145 HD
ATOM     22  H   UNL     1      33.655 -13.156 -25.058  0.00  0.00    +0.145 HD
ENDBRANCH   9  14
ENDBRANCH   8   9
ENDBRANCH   2   8
BRANCH   4  23
ATOM     23  O   UNL     1      34.133 -23.747 -18.137  0.00  0.00    -0.452 OA
BRANCH  23  25
ATOM     24 CL   UNL     1      33.177 -23.527 -13.144  0.00  0.00    -0.082 Cl
ATOM     25  C   UNL     1      33.215 -23.519 -17.127  0.00  0.00    +0.147 C 
ATOM     26  C   UNL     1      31.913 -23.188 -17.460  0.00  0.00    +0.048 C 
ATOM     27  C   UNL     1      33.620 -23.627 -15.808  0.00  0.00    +0.049 C 
ATOM     28  C   UNL     1      30.987 -22.959 -16.443  0.00  0.00    +0.072 C 
ATOM     29  C   UNL     1      32.694 -23.398 -14.790  0.00  0.00    +0.061 C 
ATOM     30  C   UNL     1      31.378 -23.063 -15.108  0.00  0.00    +0.022 C 
BRANCH  28  32
ATOM     31  N   UNL     1      28.540 -22.336 -17.033  0.00  0.00    -0.191 NA
ATOM     32  C   UNL     1      29.639 -22.615 -16.768  0.00  0.00    +0.101 C 
ENDBRANCH  28  32
ENDBRANCH  23  25
ENDBRANCH   4  23
TORSDOF 6
ENDMDL
MODEL 8
REMARK VINA RESULT:     -10.5      2.913      4.589
REMARK  Name = 16045418
REMARK  6 active torsions:
REMARK  status: ('A' for Active; 'I' for Inactive)
REMARK    1  A    between atoms: C_2  and  O_8
REMARK    2  A    between atoms: C_4  and  O_23
REMARK    3  A    between atoms: O_8  and  C_9
REMARK    4  A    between atoms: C_9  and  C_14
REMARK    5  A    between atoms: O_23  and  C_25
REMARK    6  A    between atoms: C_28  and  C_32
REMARK                            x       y       z     vdW  Elec       q    Type
REMARK                         _______ _______ _______ _____ _____    ______ ____
ROOT
ATOM      1 CL   UNL     1      35.394  -9.066 -27.107  0.00  0.00    -0.079 Cl
ATOM      2  C   UNL     1      33.571 -12.930 -25.667  0.00  0.00    +0.142 C 
ATOM      3  C   UNL     1      33.810 -11.905 -24.755  0.00  0.00    +0.075 C 
ATOM      4  C   UNL     1      34.373 -10.706 -25.192  0.00  0.00    +0.159 C 
ATOM      5  C   UNL     1      33.891 -12.766 -27.011  0.00  0.00    +0.038 C 
ATOM      6  C   UNL     1      34.696 -10.537 -26.539  0.00  0.00    +0.092 C 
ATOM      7  C   UNL     1      34.455 -11.567 -27.448  0.00  0.00    +0.018 C 
ENDROOT
BRANCH   2   8
ATOM      8  O   UNL     1      33.019 -14.105 -25.237  0.00  0.00    -0.469 OA
BRANCH   8   9
ATOM      9  C   UNL     1      33.867 -15.255 -25.265  0.00  0.00    +0.249 C 
BRANCH   9  14
ATOM     10  N   UNL     1      34.236 -14.747 -22.863  0.00  0.00    -0.227 N 
ATOM     11  N   UNL     1      34.598 -15.263 -21.669  0.00  0.00    -0.115 NA
ATOM     12  N   UNL     1      35.244 -17.526 -21.083  0.00  0.00    -0.335 NA
ATOM     13  N   UNL     1      35.815 -19.835 -20.920  0.00  0.00    -0.332 N 
ATOM     14  C   UNL     1      34.236 -15.645 -23.895  0.00  0.00    +0.097 C 
ATOM     15  C   UNL     1      34.625 -16.828 -23.328  0.00  0.00    +0.090 C 
ATOM     16  C   UNL     1      34.841 -16.549 -21.944  0.00  0.00    +0.105 C 
ATOM     17  C   UNL     1      34.774 -18.038 -23.987  0.00  0.00    +0.016 C 
ATOM     18  C   UNL     1      35.186 -19.026 -23.087  0.00  0.00    +0.049 C 
ATOM     19  C   UNL     1      35.395 -18.732 -21.717  0.00  0.00    +0.189 C 
ATOM     20  H   UNL     1      33.992 -13.800 -22.981  0.00  0.00    +0.175 HD
ATOM     21  H   UNL     1      35.981 -19.711 -19.957  0.00  0.00    +0.145 HD
ATOM     22  H   UNL     1      35.939 -20.721 -21.331  0.00  0.00    +0.145 HD
ENDBRANCH   9  14
ENDBRANCH   8   9
ENDBRANCH   2   8
BRANCH   4  23
ATOM     23  O   UNL     1      34.597  -9.717 -24.282  0.00  0.00    -0.452 OA
BRANCH  23  25
ATOM     24 CL   UNL     1      30.775  -6.486 -25.204  0.00  0.00    -0.082 Cl
ATOM     25  C   UNL     1      33.497  -9.031 -23.796  0.00  0.00    +0.147 C 
ATOM     26  C   UNL     1      33.137  -9.185 -22.469  0.00  0.00    +0.048 C 
ATOM     27  C   UNL     1      32.784  -8.207 -24.649  0.00  0.00    +0.049 C 
ATOM     28  C   UNL     1      32.030  -8.494 -21.980  0.00  0.00    +0.072 C 
ATOM     29  C   UNL     1      31.677  -7.515 -24.160  0.00  0.00    +0.061 C 
ATOM     30  C   UNL     1      31.299  -7.659 -22.825  0.00  0.00    +0.022 C 
BRANCH  28  32
ATOM     31  N   UNL     1      31.326  -8.762 -19.498  0.00  0.00    -0.191 NA
ATOM     32  C   UNL     1      31.643  -8.642 -20.612  0.00  0.00    +0.101 C 
ENDBRANCH  28  32
ENDBRANCH  23  25
ENDBRANCH   4  23
TORSDOF 6
ENDMDL
MODEL 9
REMARK VINA RESULT:     -10.5      1.693      2.045
REMARK  Name = 16045418
REMARK  6 active torsions:
REMARK  status: ('A' for Active; 'I' for Inactive)
REMARK    1  A    between atoms: C_2  and  O_8
REMARK    2  A    between atoms: C_4  and  O_23
REMARK    3  A    between atoms: O_8  and  C_9
REMARK    4  A    between atoms: C_9  and  C_14
REMARK    5  A    between atoms: O_23  and  C_25
REMARK    6  A    between atoms: C_28  and  C_32
REMARK                            x       y       z     vdW  Elec       q    Type
REMARK                         _______ _______ _______ _____ _____    ______ ____
ROOT
ATOM      1 CL   UNL     1      31.844 -12.724 -20.362  0.00  0.00    -0.079 Cl
ATOM      2  C   UNL     1      34.573 -15.334 -22.825  0.00  0.00    +0.142 C 
ATOM      3  C   UNL     1      33.790 -14.373 -23.460  0.00  0.00    +0.075 C 
ATOM      4  C   UNL     1      32.943 -13.561 -22.705  0.00  0.00    +0.159 C 
ATOM      5  C   UNL     1      34.516 -15.490 -21.443  0.00  0.00    +0.038 C 
ATOM      6  C   UNL     1      32.883 -13.713 -21.320  0.00  0.00    +0.092 C 
ATOM      7  C   UNL     1      33.669 -14.678 -20.689  0.00  0.00    +0.018 C 
ENDROOT
BRANCH   2   8
ATOM      8  O   UNL     1      35.403 -16.130 -23.565  0.00  0.00    -0.469 OA
BRANCH   8   9
ATOM      9  C   UNL     1      35.025 -17.503 -23.690  0.00  0.00    +0.249 C 
BRANCH   9  14
ATOM     10  N   UNL     1      37.051 -18.191 -22.431  0.00  0.00    -0.227 N 
ATOM     11  N   UNL     1      37.526 -19.003 -21.462  0.00  0.00    -0.115 NA
ATOM     12  N   UNL     1      36.365 -20.631 -20.090  0.00  0.00    -0.335 NA
ATOM     13  N   UNL     1      34.877 -22.112 -18.959  0.00  0.00    -0.332 N 
ATOM     14  C   UNL     1      35.709 -18.311 -22.669  0.00  0.00    +0.097 C 
ATOM     15  C   UNL     1      35.284 -19.269 -21.790  0.00  0.00    +0.090 C 
ATOM     16  C   UNL     1      36.442 -19.675 -21.058  0.00  0.00    +0.105 C 
ATOM     17  C   UNL     1      33.985 -19.736 -21.658  0.00  0.00    +0.016 C 
ATOM     18  C   UNL     1      33.927 -20.714 -20.660  0.00  0.00    +0.049 C 
ATOM     19  C   UNL     1      35.086 -21.104 -19.944  0.00  0.00    +0.189 C 
ATOM     20  H   UNL     1      37.626 -17.563 -22.927  0.00  0.00    +0.175 HD
ATOM     21  H   UNL     1      35.633 -22.436 -18.419  0.00  0.00    +0.145 HD
ATOM     22  H   UNL     1      33.976 -22.483 -18.818  0.00  0.00    +0.145 HD
ENDBRANCH   9  14
ENDBRANCH   8   9
ENDBRANCH   2   8
BRANCH   4  23
ATOM     23  O   UNL     1      32.187 -12.627 -23.348  0.00  0.00    -0.452 OA
BRANCH  23  25
ATOM     24 CL   UNL     1      32.204  -7.653 -22.275  0.00  0.00    -0.082 Cl
ATOM     25  C   UNL     1      32.752 -11.382 -23.563  0.00  0.00    +0.147 C 
ATOM     26  C   UNL     1      33.808 -11.264 -24.450  0.00  0.00    +0.048 C 
ATOM     27  C   UNL     1      32.247 -10.285 -22.888  0.00  0.00    +0.049 C 
ATOM     28  C   UNL     1      34.376 -10.010 -24.668  0.00  0.00    +0.072 C 
ATOM     29  C   UNL     1      32.816  -9.030 -23.105  0.00  0.00    +0.061 C 
ATOM     30  C   UNL     1      33.881  -8.893 -23.996  0.00  0.00    +0.022 C 
BRANCH  28  32
ATOM     31  N   UNL     1      36.358  -9.756 -26.322  0.00  0.00    -0.191 NA
ATOM     32  C   UNL     1      35.468  -9.869 -25.580  0.00  0.00    +0.101 C 
ENDBRANCH  28  32
ENDBRANCH  23  25
ENDBRANCH   4  23
TORSDOF 6
ENDMDL
