MODEL 1
REMARK VINA RESULT:     -11.7      0.000      0.000
REMARK  Name = 24880024
REMARK  5 active torsions:
REMARK  status: ('A' for Active; 'I' for Inactive)
REMARK    1  A    between atoms: N_5  and  C_12
REMARK    2  A    between atoms: C_6  and  C_22
REMARK    3  A    between atoms: C_13  and  C_21
REMARK    4  A    between atoms: C_22  and  C_23
REMARK    5  A    between atoms: C_23  and  N_25
REMARK                            x       y       z     vdW  Elec       q    Type
REMARK                         _______ _______ _______ _____ _____    ______ ____
ROOT
ATOM      1  S   UNL     1      33.834 -15.566 -25.207  0.00  0.00    -0.056 S 
ATOM      2  O   UNL     1      35.117 -17.080 -20.980  0.00  0.00    -0.252 OA
ATOM      3  N   UNL     1      34.482 -14.801 -22.824  0.00  0.00    -0.223 NA
ATOM      4  N   UNL     1      34.477 -17.174 -23.239  0.00  0.00    -0.248 N 
ATOM      5  N   UNL     1      34.907 -19.143 -22.061  0.00  0.00    -0.268 N 
ATOM      6  C   UNL     1      33.843 -13.883 -24.879  0.00  0.00    +0.031 C 
ATOM      7  C   UNL     1      34.212 -13.669 -23.567  0.00  0.00    +0.103 C 
ATOM      8  C   UNL     1      34.315 -15.859 -23.586  0.00  0.00    +0.166 C 
ATOM      9  C   UNL     1      34.863 -17.742 -21.981  0.00  0.00    +0.310 C 
ATOM     10  H   UNL     1      34.303 -17.824 -23.958  0.00  0.00    +0.158 HD
ATOM     11  H   UNL     1      34.676 -19.534 -22.935  0.00  0.00    +0.156 HD
ENDROOT
BRANCH   5  12
ATOM     12  C   UNL     1      35.241 -20.063 -21.040  0.00  0.00    +0.052 C 
ATOM     13  C   UNL     1      34.577 -21.750 -19.443  0.00  0.00    +0.073 C 
ATOM     14  C   UNL     1      34.247 -20.843 -20.449  0.00  0.00    +0.019 C 
ATOM     15  C   UNL     1      36.566 -20.191 -20.623  0.00  0.00    +0.015 C 
ATOM     16  C   UNL     1      35.902 -21.878 -19.027  0.00  0.00    +0.004 C 
ATOM     17  C   UNL     1      36.897 -21.099 -19.617  0.00  0.00    +0.001 C 
BRANCH  13  21
ATOM     18  F   UNL     1      33.753 -22.875 -17.499  0.00  0.00    -0.166 F 
ATOM     19  F   UNL     1      32.279 -21.998 -18.826  0.00  0.00    -0.166 F 
ATOM     20  F   UNL     1      33.354 -23.789 -19.430  0.00  0.00    -0.166 F 
ATOM     21  C   UNL     1      33.514 -22.584 -18.811  0.00  0.00    +0.419 C 
ENDBRANCH  13  21
ENDBRANCH   5  12
BRANCH   6  22
ATOM     22  C   UNL     1      33.481 -12.889 -25.956  0.00  0.00    +0.056 C 
BRANCH  22  23
ATOM     23  C   UNL     1      34.102 -11.511 -25.733  0.00  0.00    +0.093 C 
BRANCH  23  25
ATOM     24  S   UNL     1      31.593  -9.289 -22.525  0.00  0.00    -0.101 S 
ATOM     25  N   UNL     1      33.375 -10.775 -24.743  0.00  0.00    -0.320 N 
ATOM     26  N   UNL     1      34.968  -9.008 -24.679  0.00  0.00    -0.233 NA
ATOM     27  N   UNL     1      34.712  -7.086 -23.232  0.00  0.00    -0.247 NA
ATOM     28  C   UNL     1      33.814  -9.540 -24.231  0.00  0.00    +0.118 C 
ATOM     29  C   UNL     1      33.078  -8.858 -23.270  0.00  0.00    +0.145 C 
ATOM     30  C   UNL     1      33.551  -7.637 -22.790  0.00  0.00    +0.073 C 
ATOM     31  C   UNL     1      32.677  -7.074 -21.812  0.00  0.00    +0.022 C 
ATOM     32  C   UNL     1      31.578  -7.868 -21.575  0.00  0.00    +0.033 C 
ATOM     33  C   UNL     1      35.343  -7.825 -24.158  0.00  0.00    +0.251 C 
ATOM     34  H   UNL     1      32.531 -11.151 -24.405  0.00  0.00    +0.148 HD
ENDBRANCH  23  25
ENDBRANCH  22  23
ENDBRANCH   6  22
TORSDOF 5
ENDMDL
MODEL 2
REMARK VINA RESULT:     -11.4      4.886      7.785
REMARK  Name = 24880024
REMARK  5 active torsions:
REMARK  status: ('A' for Active; 'I' for Inactive)
REMARK    1  A    between atoms: N_5  and  C_12
REMARK    2  A    between atoms: C_6  and  C_22
REMARK    3  A    between atoms: C_13  and  C_21
REMARK    4  A    between atoms: C_22  and  C_23
REMARK    5  A    between atoms: C_23  and  N_25
REMARK                            x       y       z     vdW  Elec       q    Type
REMARK                         _______ _______ _______ _____ _____    ______ ____
ROOT
ATOM      1  S   UNL     1      36.462 -20.612 -19.939  0.00  0.00    -0.056 S 
ATOM      2  O   UNL     1      35.070 -23.507 -16.551  0.00  0.00    -0.252 OA
ATOM      3  N   UNL     1      34.440 -21.943 -19.032  0.00  0.00    -0.223 NA
ATOM      4  N   UNL     1      36.502 -22.126 -17.800  0.00  0.00    -0.248 N 
ATOM      5  N   UNL     1      37.297 -23.221 -15.898  0.00  0.00    -0.268 N 
ATOM      6  C   UNL     1      34.981 -20.505 -20.797  0.00  0.00    +0.031 C 
ATOM      7  C   UNL     1      34.025 -21.275 -20.167  0.00  0.00    +0.103 C 
ATOM      8  C   UNL     1      35.707 -21.667 -18.816  0.00  0.00    +0.166 C 
ATOM      9  C   UNL     1      36.178 -23.010 -16.720  0.00  0.00    +0.310 C 
ATOM     10  H   UNL     1      37.432 -21.801 -17.813  0.00  0.00    +0.158 HD
ATOM     11  H   UNL     1      38.122 -22.753 -16.161  0.00  0.00    +0.156 HD
ENDROOT
BRANCH   5  12
ATOM     12  C   UNL     1      37.385 -24.025 -14.737  0.00  0.00    +0.052 C 
ATOM     13  C   UNL     1      36.637 -24.566 -12.504  0.00  0.00    +0.073 C 
ATOM     14  C   UNL     1      36.551 -23.773 -13.648  0.00  0.00    +0.019 C 
ATOM     15  C   UNL     1      38.305 -25.072 -14.682  0.00  0.00    +0.015 C 
ATOM     16  C   UNL     1      37.557 -25.612 -12.449  0.00  0.00    +0.004 C 
ATOM     17  C   UNL     1      38.391 -25.866 -13.538  0.00  0.00    +0.001 C 
BRANCH  13  21
ATOM     18  F   UNL     1      35.253 -25.426 -10.752  0.00  0.00    -0.166 F 
ATOM     19  F   UNL     1      36.359 -23.609 -10.330  0.00  0.00    -0.166 F 
ATOM     20  F   UNL     1      34.652 -23.552 -11.676  0.00  0.00    -0.166 F 
ATOM     21  C   UNL     1      35.745 -24.296 -11.339  0.00  0.00    +0.419 C 
ENDBRANCH  13  21
ENDBRANCH   5  12
BRANCH   6  22
ATOM     22  C   UNL     1      34.873 -19.658 -22.041  0.00  0.00    +0.056 C 
BRANCH  22  23
ATOM     23  C   UNL     1      35.960 -18.587 -22.133  0.00  0.00    +0.093 C 
BRANCH  23  25
ATOM     24  S   UNL     1      34.157 -14.313 -22.054  0.00  0.00    -0.101 S 
ATOM     25  N   UNL     1      35.386 -17.276 -22.174  0.00  0.00    -0.320 N 
ATOM     26  N   UNL     1      34.750 -17.471 -24.460  0.00  0.00    -0.233 NA
ATOM     27  N   UNL     1      33.617 -15.692 -25.645  0.00  0.00    -0.247 NA
ATOM     28  C   UNL     1      34.792 -16.737 -23.330  0.00  0.00    +0.118 C 
ATOM     29  C   UNL     1      34.245 -15.459 -23.329  0.00  0.00    +0.145 C 
ATOM     30  C   UNL     1      33.667 -14.964 -24.498  0.00  0.00    +0.073 C 
ATOM     31  C   UNL     1      33.157 -13.643 -24.322  0.00  0.00    +0.022 C 
ATOM     32  C   UNL     1      33.358 -13.172 -23.044  0.00  0.00    +0.033 C 
ATOM     33  C   UNL     1      34.171 -16.910 -25.537  0.00  0.00    +0.251 C 
ATOM     34  H   UNL     1      35.409 -16.727 -21.358  0.00  0.00    +0.148 HD
ENDBRANCH  23  25
ENDBRANCH  22  23
ENDBRANCH   6  22
TORSDOF 5
ENDMDL
MODEL 3
REMARK VINA RESULT:     -11.2      4.660      7.482
REMARK  Name = 24880024
REMARK  5 active torsions:
REMARK  status: ('A' for Active; 'I' for Inactive)
REMARK    1  A    between atoms: N_5  and  C_12
REMARK    2  A    between atoms: C_6  and  C_22
REMARK    3  A    between atoms: C_13  and  C_21
REMARK    4  A    between atoms: C_22  and  C_23
REMARK    5  A    between atoms: C_23  and  N_25
REMARK                            x       y       z     vdW  Elec       q    Type
REMARK                         _______ _______ _______ _____ _____    ______ ____
ROOT
ATOM      1  S   UNL     1      36.266 -20.621 -20.274  0.00  0.00    -0.056 S 
ATOM      2  O   UNL     1      35.033 -23.311 -16.662  0.00  0.00    -0.252 OA
ATOM      3  N   UNL     1      34.273 -21.834 -19.159  0.00  0.00    -0.223 NA
ATOM      4  N   UNL     1      36.414 -22.040 -18.076  0.00  0.00    -0.248 N 
ATOM      5  N   UNL     1      37.312 -23.080 -16.188  0.00  0.00    -0.268 N 
ATOM      6  C   UNL     1      34.729 -20.496 -21.025  0.00  0.00    +0.031 C 
ATOM      7  C   UNL     1      33.797 -21.201 -20.291  0.00  0.00    +0.103 C 
ATOM      8  C   UNL     1      35.561 -21.597 -19.051  0.00  0.00    +0.166 C 
ATOM      9  C   UNL     1      36.142 -22.864 -16.935  0.00  0.00    +0.310 C 
ATOM     10  H   UNL     1      37.351 -21.752 -18.172  0.00  0.00    +0.158 HD
ATOM     11  H   UNL     1      38.130 -22.656 -16.533  0.00  0.00    +0.156 HD
ENDROOT
BRANCH   5  12
ATOM     12  C   UNL     1      37.459 -23.836 -15.000  0.00  0.00    +0.052 C 
ATOM     13  C   UNL     1      36.768 -24.338 -12.741  0.00  0.00    +0.073 C 
ATOM     14  C   UNL     1      36.623 -23.593 -13.911  0.00  0.00    +0.019 C 
ATOM     15  C   UNL     1      38.439 -24.825 -14.920  0.00  0.00    +0.015 C 
ATOM     16  C   UNL     1      37.748 -25.327 -12.661  0.00  0.00    +0.004 C 
ATOM     17  C   UNL     1      38.584 -25.571 -13.751  0.00  0.00    +0.001 C 
BRANCH  13  21
ATOM     18  F   UNL     1      35.505 -25.208 -10.905  0.00  0.00    -0.166 F 
ATOM     19  F   UNL     1      36.436 -23.270 -10.626  0.00  0.00    -0.166 F 
ATOM     20  F   UNL     1      34.709 -23.466 -11.932  0.00  0.00    -0.166 F 
ATOM     21  C   UNL     1      35.875 -24.078 -11.574  0.00  0.00    +0.419 C 
ENDBRANCH  13  21
ENDBRANCH   5  12
BRANCH   6  22
ATOM     22  C   UNL     1      34.557 -19.700 -22.296  0.00  0.00    +0.056 C 
BRANCH  22  23
ATOM     23  C   UNL     1      35.571 -18.565 -22.433  0.00  0.00    +0.093 C 
BRANCH  23  25
ATOM     24  S   UNL     1      33.958 -15.332 -25.345  0.00  0.00    -0.101 S 
ATOM     25  N   UNL     1      35.064 -17.526 -23.278  0.00  0.00    -0.320 N 
ATOM     26  N   UNL     1      34.717 -16.024 -21.464  0.00  0.00    -0.233 NA
ATOM     27  N   UNL     1      33.821 -13.798 -21.779  0.00  0.00    -0.247 NA
ATOM     28  C   UNL     1      34.646 -16.275 -22.786  0.00  0.00    +0.118 C 
ATOM     29  C   UNL     1      34.159 -15.292 -23.640  0.00  0.00    +0.145 C 
ATOM     30  C   UNL     1      33.755 -14.068 -23.110  0.00  0.00    +0.073 C 
ATOM     31  C   UNL     1      33.285 -13.178 -24.121  0.00  0.00    +0.022 C 
ATOM     32  C   UNL     1      33.341 -13.739 -25.376  0.00  0.00    +0.033 C 
ATOM     33  C   UNL     1      34.305 -14.813 -21.045  0.00  0.00    +0.251 C 
ATOM     34  H   UNL     1      35.005 -17.694 -24.246  0.00  0.00    +0.148 HD
ENDBRANCH  23  25
ENDBRANCH  22  23
ENDBRANCH   6  22
TORSDOF 5
ENDMDL
MODEL 4
REMARK VINA RESULT:     -11.0      5.471     11.897
REMARK  Name = 24880024
REMARK  5 active torsions:
REMARK  status: ('A' for Active; 'I' for Inactive)
REMARK    1  A    between atoms: N_5  and  C_12
REMARK    2  A    between atoms: C_6  and  C_22
REMARK    3  A    between atoms: C_13  and  C_21
REMARK    4  A    between atoms: C_22  and  C_23
REMARK    5  A    between atoms: C_23  and  N_25
REMARK                            x       y       z     vdW  Elec       q    Type
REMARK                         _______ _______ _______ _____ _____    ______ ____
ROOT
ATOM      1  S   UNL     1      34.889 -16.547 -22.965  0.00  0.00    -0.056 S 
ATOM      2  O   UNL     1      33.496 -13.092 -25.781  0.00  0.00    -0.252 OA
ATOM      3  N   UNL     1      33.832 -16.028 -25.267  0.00  0.00    -0.223 NA
ATOM      4  N   UNL     1      34.395 -14.140 -23.880  0.00  0.00    -0.248 N 
ATOM      5  N   UNL     1      34.267 -11.811 -23.981  0.00  0.00    -0.268 N 
ATOM      6  C   UNL     1      34.473 -17.870 -23.974  0.00  0.00    +0.031 C 
ATOM      7  C   UNL     1      33.928 -17.400 -25.151  0.00  0.00    +0.103 C 
ATOM      8  C   UNL     1      34.309 -15.475 -24.174  0.00  0.00    +0.166 C 
ATOM      9  C   UNL     1      33.999 -13.009 -24.665  0.00  0.00    +0.310 C 
ATOM     10  H   UNL     1      34.786 -13.926 -23.001  0.00  0.00    +0.158 HD
ATOM     11  H   UNL     1      34.674 -11.904 -23.090  0.00  0.00    +0.156 HD
ENDROOT
BRANCH   5  12
ATOM     12  C   UNL     1      34.022 -10.487 -24.416  0.00  0.00    +0.052 C 
ATOM     13  C   UNL     1      32.669  -8.486 -24.371  0.00  0.00    +0.073 C 
ATOM     14  C   UNL     1      32.910  -9.791 -23.942  0.00  0.00    +0.019 C 
ATOM     15  C   UNL     1      34.893  -9.878 -25.318  0.00  0.00    +0.015 C 
ATOM     16  C   UNL     1      33.541  -7.877 -25.273  0.00  0.00    +0.004 C 
ATOM     17  C   UNL     1      34.653  -8.572 -25.747  0.00  0.00    +0.001 C 
BRANCH  13  21
ATOM     18  F   UNL     1      30.564  -8.534 -23.236  0.00  0.00    -0.166 F 
ATOM     19  F   UNL     1      31.791  -6.768 -22.958  0.00  0.00    -0.166 F 
ATOM     20  F   UNL     1      30.795  -7.108 -24.861  0.00  0.00    -0.166 F 
ATOM     21  C   UNL     1      31.480  -7.741 -23.865  0.00  0.00    +0.419 C 
ENDBRANCH  13  21
ENDBRANCH   5  12
BRANCH   6  22
ATOM     22  C   UNL     1      34.722 -19.288 -23.521  0.00  0.00    +0.056 C 
BRANCH  22  23
ATOM     23  C   UNL     1      35.331 -19.373 -22.122  0.00  0.00    +0.093 C 
BRANCH  23  25
ATOM     24  S   UNL     1      32.521 -21.910 -19.441  0.00  0.00    -0.101 S 
ATOM     25  N   UNL     1      34.519 -20.173 -21.257  0.00  0.00    -0.320 N 
ATOM     26  N   UNL     1      36.360 -20.829 -19.899  0.00  0.00    -0.233 NA
ATOM     27  N   UNL     1      36.104 -22.298 -17.993  0.00  0.00    -0.247 NA
ATOM     28  C   UNL     1      35.039 -20.888 -20.162  0.00  0.00    +0.118 C 
ATOM     29  C   UNL     1      34.216 -21.654 -19.346  0.00  0.00    +0.145 C 
ATOM     30  C   UNL     1      34.775 -22.346 -18.273  0.00  0.00    +0.073 C 
ATOM     31  C   UNL     1      33.792 -23.079 -17.541  0.00  0.00    +0.022 C 
ATOM     32  C   UNL     1      32.530 -22.929 -18.069  0.00  0.00    +0.033 C 
ATOM     33  C   UNL     1      36.808 -21.531 -18.841  0.00  0.00    +0.251 C 
ATOM     34  H   UNL     1      33.553 -20.226 -21.437  0.00  0.00    +0.148 HD
ENDBRANCH  23  25
ENDBRANCH  22  23
ENDBRANCH   6  22
TORSDOF 5
ENDMDL
MODEL 5
REMARK VINA RESULT:     -10.9      6.000     12.192
REMARK  Name = 24880024
REMARK  5 active torsions:
REMARK  status: ('A' for Active; 'I' for Inactive)
REMARK    1  A    between atoms: N_5  and  C_12
REMARK    2  A    between atoms: C_6  and  C_22
REMARK    3  A    between atoms: C_13  and  C_21
REMARK    4  A    between atoms: C_22  and  C_23
REMARK    5  A    between atoms: C_23  and  N_25
REMARK                            x       y       z     vdW  Elec       q    Type
REMARK                         _______ _______ _______ _____ _____    ______ ____
ROOT
ATOM      1  S   UNL     1      34.451 -14.480 -23.507  0.00  0.00    -0.056 S 
ATOM      2  O   UNL     1      33.360 -10.635 -25.921  0.00  0.00    -0.252 OA
ATOM      3  N   UNL     1      33.500 -13.627 -25.755  0.00  0.00    -0.223 NA
ATOM      4  N   UNL     1      34.133 -11.956 -24.138  0.00  0.00    -0.248 N 
ATOM      5  N   UNL     1      34.149  -9.628 -23.963  0.00  0.00    -0.268 N 
ATOM      6  C   UNL     1      33.988 -15.645 -24.676  0.00  0.00    +0.031 C 
ATOM      7  C   UNL     1      33.510 -15.007 -25.801  0.00  0.00    +0.103 C 
ATOM      8  C   UNL     1      33.975 -13.238 -24.592  0.00  0.00    +0.166 C 
ATOM      9  C   UNL     1      33.831 -10.717 -24.792  0.00  0.00    +0.310 C 
ATOM     10  H   UNL     1      34.508 -11.872 -23.232  0.00  0.00    +0.158 HD
ATOM     11  H   UNL     1      34.522  -9.851 -23.080  0.00  0.00    +0.156 HD
ENDROOT
BRANCH   5  12
ATOM     12  C   UNL     1      33.999  -8.249 -24.243  0.00  0.00    +0.052 C 
ATOM     13  C   UNL     1      32.615  -6.271 -24.332  0.00  0.00    +0.073 C 
ATOM     14  C   UNL     1      32.763  -7.630 -24.058  0.00  0.00    +0.019 C 
ATOM     15  C   UNL     1      35.087  -7.508 -24.702  0.00  0.00    +0.015 C 
ATOM     16  C   UNL     1      33.703  -5.530 -24.792  0.00  0.00    +0.004 C 
ATOM     17  C   UNL     1      34.940  -6.148 -24.977  0.00  0.00    +0.001 C 
BRANCH  13  21
ATOM     18  F   UNL     1      31.386  -4.324 -23.681  0.00  0.00    -0.166 F 
ATOM     19  F   UNL     1      30.546  -5.529 -25.276  0.00  0.00    -0.166 F 
ATOM     20  F   UNL     1      30.509  -6.261 -23.229  0.00  0.00    -0.166 F 
ATOM     21  C   UNL     1      31.293  -5.608 -24.135  0.00  0.00    +0.419 C 
ENDBRANCH  13  21
ENDBRANCH   5  12
BRANCH   6  22
ATOM     22  C   UNL     1      34.135 -17.120 -24.390  0.00  0.00    +0.056 C 
BRANCH  22  23
ATOM     23  C   UNL     1      34.947 -17.408 -23.128  0.00  0.00    +0.093 C 
BRANCH  23  25
ATOM     24  S   UNL     1      32.752 -20.681 -20.679  0.00  0.00    -0.101 S 
ATOM     25  N   UNL     1      34.330 -18.436 -22.345  0.00  0.00    -0.320 N 
ATOM     26  N   UNL     1      36.388 -19.125 -21.368  0.00  0.00    -0.233 NA
ATOM     27  N   UNL     1      36.519 -20.935 -19.768  0.00  0.00    -0.247 NA
ATOM     28  C   UNL     1      35.054 -19.277 -21.480  0.00  0.00    +0.118 C 
ATOM     29  C   UNL     1      34.416 -20.264 -20.737  0.00  0.00    +0.145 C 
ATOM     30  C   UNL     1      35.173 -21.076 -19.892  0.00  0.00    +0.073 C 
ATOM     31  C   UNL     1      34.364 -22.032 -19.207  0.00  0.00    +0.022 C 
ATOM     32  C   UNL     1      33.034 -21.926 -19.543  0.00  0.00    +0.033 C 
ATOM     33  C   UNL     1      37.033 -19.955 -20.527  0.00  0.00    +0.251 C 
ATOM     34  H   UNL     1      33.357 -18.560 -22.417  0.00  0.00    +0.148 HD
ENDBRANCH  23  25
ENDBRANCH  22  23
ENDBRANCH   6  22
TORSDOF 5
ENDMDL
MODEL 6
REMARK VINA RESULT:     -10.9      1.460      1.704
REMARK  Name = 24880024
REMARK  5 active torsions:
REMARK  status: ('A' for Active; 'I' for Inactive)
REMARK    1  A    between atoms: N_5  and  C_12
REMARK    2  A    between atoms: C_6  and  C_22
REMARK    3  A    between atoms: C_13  and  C_21
REMARK    4  A    between atoms: C_22  and  C_23
REMARK    5  A    between atoms: C_23  and  N_25
REMARK                            x       y       z     vdW  Elec       q    Type
REMARK                         _______ _______ _______ _____ _____    ______ ____
ROOT
ATOM      1  S   UNL     1      33.969 -14.985 -25.115  0.00  0.00    -0.056 S 
ATOM      2  O   UNL     1      34.982 -16.802 -20.935  0.00  0.00    -0.252 OA
ATOM      3  N   UNL     1      34.359 -14.404 -22.626  0.00  0.00    -0.223 NA
ATOM      4  N   UNL     1      34.546 -16.726 -23.242  0.00  0.00    -0.248 N 
ATOM      5  N   UNL     1      35.001 -18.767 -22.204  0.00  0.00    -0.268 N 
ATOM      6  C   UNL     1      33.839 -13.341 -24.645  0.00  0.00    +0.031 C 
ATOM      7  C   UNL     1      34.080 -13.227 -23.292  0.00  0.00    +0.103 C 
ATOM      8  C   UNL     1      34.328 -15.396 -23.488  0.00  0.00    +0.166 C 
ATOM      9  C   UNL     1      34.859 -17.383 -22.008  0.00  0.00    +0.310 C 
ATOM     10  H   UNL     1      34.476 -17.317 -24.027  0.00  0.00    +0.158 HD
ATOM     11  H   UNL     1      34.871 -19.088 -23.125  0.00  0.00    +0.156 HD
ENDROOT
BRANCH   5  12
ATOM     12  C   UNL     1      35.306 -19.755 -21.238  0.00  0.00    +0.052 C 
ATOM     13  C   UNL     1      34.586 -21.494 -19.724  0.00  0.00    +0.073 C 
ATOM     14  C   UNL     1      34.285 -20.519 -20.675  0.00  0.00    +0.019 C 
ATOM     15  C   UNL     1      36.629 -19.966 -20.852  0.00  0.00    +0.015 C 
ATOM     16  C   UNL     1      35.909 -21.705 -19.337  0.00  0.00    +0.004 C 
ATOM     17  C   UNL     1      36.931 -20.941 -19.901  0.00  0.00    +0.001 C 
BRANCH  13  21
ATOM     18  F   UNL     1      33.725 -22.659 -17.820  0.00  0.00    -0.166 F 
ATOM     19  F   UNL     1      32.281 -21.681 -19.110  0.00  0.00    -0.166 F 
ATOM     20  F   UNL     1      33.290 -23.486 -19.783  0.00  0.00    -0.166 F 
ATOM     21  C   UNL     1      33.494 -22.311 -19.120  0.00  0.00    +0.419 C 
ENDBRANCH  13  21
ENDBRANCH   5  12
BRANCH   6  22
ATOM     22  C   UNL     1      33.507 -12.276 -25.661  0.00  0.00    +0.056 C 
BRANCH  22  23
ATOM     23  C   UNL     1      34.407 -11.045 -25.557  0.00  0.00    +0.093 C 
BRANCH  23  25
ATOM     24  S   UNL     1      31.958  -7.108 -25.699  0.00  0.00    -0.101 S 
ATOM     25  N   UNL     1      33.631  -9.843 -25.536  0.00  0.00    -0.320 N 
ATOM     26  N   UNL     1      32.866 -10.204 -23.312  0.00  0.00    -0.233 NA
ATOM     27  N   UNL     1      31.378  -8.663 -22.187  0.00  0.00    -0.247 NA
ATOM     28  C   UNL     1      32.874  -9.439 -24.421  0.00  0.00    +0.118 C 
ATOM     29  C   UNL     1      32.133  -8.263 -24.441  0.00  0.00    +0.145 C 
ATOM     30  C   UNL     1      31.397  -7.902 -23.314  0.00  0.00    +0.073 C 
ATOM     31  C   UNL     1      30.698  -6.673 -23.505  0.00  0.00    +0.022 C 
ATOM     32  C   UNL     1      30.915  -6.138 -24.754  0.00  0.00    +0.033 C 
ATOM     33  C   UNL     1      32.127  -9.774 -22.272  0.00  0.00    +0.251 C 
ATOM     34  H   UNL     1      33.626  -9.273 -26.339  0.00  0.00    +0.148 HD
ENDBRANCH  23  25
ENDBRANCH  22  23
ENDBRANCH   6  22
TORSDOF 5
ENDMDL
MODEL 7
REMARK VINA RESULT:     -10.8      7.089     13.331
REMARK  Name = 24880024
REMARK  5 active torsions:
REMARK  status: ('A' for Active; 'I' for Inactive)
REMARK    1  A    between atoms: N_5  and  C_12
REMARK    2  A    between atoms: C_6  and  C_22
REMARK    3  A    between atoms: C_13  and  C_21
REMARK    4  A    between atoms: C_22  and  C_23
REMARK    5  A    between atoms: C_23  and  N_25
REMARK                            x       y       z     vdW  Elec       q    Type
REMARK                         _______ _______ _______ _____ _____    ______ ____
ROOT
ATOM      1  S   UNL     1      33.920 -23.303 -17.079  0.00  0.00    -0.056 S 
ATOM      2  O   UNL     1      32.275 -20.602 -20.514  0.00  0.00    -0.252 OA
ATOM      3  N   UNL     1      31.760 -22.348 -18.131  0.00  0.00    -0.223 NA
ATOM      4  N   UNL     1      33.841 -21.731 -19.175  0.00  0.00    -0.248 N 
ATOM      5  N   UNL     1      34.562 -20.435 -20.979  0.00  0.00    -0.268 N 
ATOM      6  C   UNL     1      32.423 -23.721 -16.356  0.00  0.00    +0.031 C 
ATOM      7  C   UNL     1      31.391 -23.125 -17.050  0.00  0.00    +0.103 C 
ATOM      8  C   UNL     1      33.070 -22.370 -18.242  0.00  0.00    +0.166 C 
ATOM      9  C   UNL     1      33.442 -20.885 -20.261  0.00  0.00    +0.310 C 
ATOM     10  H   UNL     1      34.812 -21.873 -19.089  0.00  0.00    +0.158 HD
ATOM     11  H   UNL     1      35.437 -20.747 -20.654  0.00  0.00    +0.156 HD
ENDROOT
BRANCH   5  12
ATOM     12  C   UNL     1      34.586 -19.587 -22.111  0.00  0.00    +0.052 C 
ATOM     13  C   UNL     1      34.638 -17.366 -23.061  0.00  0.00    +0.073 C 
ATOM     14  C   UNL     1      34.613 -18.202 -21.945  0.00  0.00    +0.019 C 
ATOM     15  C   UNL     1      34.585 -20.135 -23.393  0.00  0.00    +0.015 C 
ATOM     16  C   UNL     1      34.637 -17.915 -24.343  0.00  0.00    +0.004 C 
ATOM     17  C   UNL     1      34.611 -19.300 -24.510  0.00  0.00    +0.001 C 
BRANCH  13  21
ATOM     18  F   UNL     1      35.635 -15.264 -23.618  0.00  0.00    -0.166 F 
ATOM     19  F   UNL     1      33.499 -15.271 -23.243  0.00  0.00    -0.166 F 
ATOM     20  F   UNL     1      34.891 -15.515 -21.591  0.00  0.00    -0.166 F 
ATOM     21  C   UNL     1      34.665 -15.885 -22.885  0.00  0.00    +0.419 C 
ENDBRANCH  13  21
ENDBRANCH   5  12
BRANCH   6  22
ATOM     22  C   UNL     1      32.381 -24.619 -15.143  0.00  0.00    +0.056 C 
BRANCH  22  23
ATOM     23  C   UNL     1      33.375 -24.209 -14.058  0.00  0.00    +0.093 C 
BRANCH  23  25
ATOM     24  S   UNL     1      37.451 -26.223 -14.985  0.00  0.00    -0.101 S 
ATOM     25  N   UNL     1      34.661 -24.793 -14.294  0.00  0.00    -0.320 N 
ATOM     26  N   UNL     1      35.715 -23.512 -12.588  0.00  0.00    -0.233 NA
ATOM     27  N   UNL     1      38.074 -23.715 -12.086  0.00  0.00    -0.247 NA
ATOM     28  C   UNL     1      35.809 -24.439 -13.561  0.00  0.00    +0.118 C 
ATOM     29  C   UNL     1      37.040 -25.030 -13.822  0.00  0.00    +0.145 C 
ATOM     30  C   UNL     1      38.151 -24.649 -13.071  0.00  0.00    +0.073 C 
ATOM     31  C   UNL     1      39.329 -25.350 -13.468  0.00  0.00    +0.022 C 
ATOM     32  C   UNL     1      39.088 -26.234 -14.495  0.00  0.00    +0.033 C 
ATOM     33  C   UNL     1      36.842 -23.209 -11.916  0.00  0.00    +0.251 C 
ATOM     34  H   UNL     1      34.746 -25.471 -15.002  0.00  0.00    +0.148 HD
ENDBRANCH  23  25
ENDBRANCH  22  23
ENDBRANCH   6  22
TORSDOF 5
ENDMDL
MODEL 8
REMARK VINA RESULT:     -10.7      2.615      4.195
REMARK  Name = 24880024
REMARK  5 active torsions:
REMARK  status: ('A' for Active; 'I' for Inactive)
REMARK    1  A    between atoms: N_5  and  C_12
REMARK    2  A    between atoms: C_6  and  C_22
REMARK    3  A    between atoms: C_13  and  C_21
REMARK    4  A    between atoms: C_22  and  C_23
REMARK    5  A    between atoms: C_23  and  N_25
REMARK                            x       y       z     vdW  Elec       q    Type
REMARK                         _______ _______ _______ _____ _____    ______ ____
ROOT
ATOM      1  S   UNL     1      34.201 -10.752 -24.330  0.00  0.00    -0.056 S 
ATOM      2  O   UNL     1      33.709 -15.119 -25.907  0.00  0.00    -0.252 OA
ATOM      3  N   UNL     1      33.476 -12.164 -26.370  0.00  0.00    -0.223 NA
ATOM      4  N   UNL     1      34.218 -13.371 -24.421  0.00  0.00    -0.248 N 
ATOM      5  N   UNL     1      34.509 -15.591 -23.760  0.00  0.00    -0.268 N 
ATOM      6  C   UNL     1      33.672  -9.921 -25.734  0.00  0.00    +0.031 C 
ATOM      7  C   UNL     1      33.328 -10.834 -26.709  0.00  0.00    +0.103 C 
ATOM      8  C   UNL     1      33.931 -12.241 -25.139  0.00  0.00    +0.166 C 
ATOM      9  C   UNL     1      34.106 -14.747 -24.807  0.00  0.00    +0.310 C 
ATOM     10  H   UNL     1      34.551 -13.217 -23.507  0.00  0.00    +0.158 HD
ATOM     11  H   UNL     1      34.804 -15.145 -22.934  0.00  0.00    +0.156 HD
ENDROOT
BRANCH   5  12
ATOM     12  C   UNL     1      34.545 -17.006 -23.748  0.00  0.00    +0.052 C 
ATOM     13  C   UNL     1      34.941 -19.079 -22.573  0.00  0.00    +0.073 C 
ATOM     14  C   UNL     1      34.906 -17.685 -22.585  0.00  0.00    +0.019 C 
ATOM     15  C   UNL     1      34.218 -17.721 -24.900  0.00  0.00    +0.015 C 
ATOM     16  C   UNL     1      34.614 -19.794 -23.725  0.00  0.00    +0.004 C 
ATOM     17  C   UNL     1      34.252 -19.116 -24.888  0.00  0.00    +0.001 C 
BRANCH  13  21
ATOM     18  F   UNL     1      35.681 -21.107 -21.543  0.00  0.00    -0.166 F 
ATOM     19  F   UNL     1      36.394 -19.249 -20.681  0.00  0.00    -0.166 F 
ATOM     20  F   UNL     1      34.320 -19.846 -20.410  0.00  0.00    -0.166 F 
ATOM     21  C   UNL     1      35.328 -19.806 -21.329  0.00  0.00    +0.419 C 
ENDBRANCH  13  21
ENDBRANCH   5  12
BRANCH   6  22
ATOM     22  C   UNL     1      33.635  -8.413 -25.765  0.00  0.00    +0.056 C 
BRANCH  22  23
ATOM     23  C   UNL     1      32.386  -7.829 -25.105  0.00  0.00    +0.093 C 
BRANCH  23  25
ATOM     24  S   UNL     1      30.818 -10.692 -21.808  0.00  0.00    -0.101 S 
ATOM     25  N   UNL     1      31.929  -8.671 -24.040  0.00  0.00    -0.320 N 
ATOM     26  N   UNL     1      32.845  -7.270 -22.348  0.00  0.00    -0.233 NA
ATOM     27  N   UNL     1      32.643  -7.783 -19.992  0.00  0.00    -0.247 NA
ATOM     28  C   UNL     1      32.163  -8.383 -22.683  0.00  0.00    +0.118 C 
ATOM     29  C   UNL     1      31.702  -9.226 -21.679  0.00  0.00    +0.145 C 
ATOM     30  C   UNL     1      31.957  -8.902 -20.347  0.00  0.00    +0.073 C 
ATOM     31  C   UNL     1      31.416  -9.871 -19.450  0.00  0.00    +0.022 C 
ATOM     32  C   UNL     1      30.774 -10.893 -20.111  0.00  0.00    +0.033 C 
ATOM     33  C   UNL     1      33.041  -7.039 -21.036  0.00  0.00    +0.251 C 
ATOM     34  H   UNL     1      31.431  -9.488 -24.268  0.00  0.00    +0.148 HD
ENDBRANCH  23  25
ENDBRANCH  22  23
ENDBRANCH   6  22
TORSDOF 5
ENDMDL
MODEL 9
REMARK VINA RESULT:     -10.7      5.497     12.172
REMARK  Name = 24880024
REMARK  5 active torsions:
REMARK  status: ('A' for Active; 'I' for Inactive)
REMARK    1  A    between atoms: N_5  and  C_12
REMARK    2  A    between atoms: C_6  and  C_22
REMARK    3  A    between atoms: C_13  and  C_21
REMARK    4  A    between atoms: C_22  and  C_23
REMARK    5  A    between atoms: C_23  and  N_25
REMARK                            x       y       z     vdW  Elec       q    Type
REMARK                         _______ _______ _______ _____ _____    ______ ____
ROOT
ATOM      1  S   UNL     1      35.344 -17.244 -22.050  0.00  0.00    -0.056 S 
ATOM      2  O   UNL     1      33.537 -14.446 -25.322  0.00  0.00    -0.252 OA
ATOM      3  N   UNL     1      34.156 -17.214 -24.347  0.00  0.00    -0.223 NA
ATOM      4  N   UNL     1      34.599 -15.077 -23.324  0.00  0.00    -0.248 N 
ATOM      5  N   UNL     1      34.257 -12.819 -23.804  0.00  0.00    -0.268 N 
ATOM      6  C   UNL     1      35.011 -18.749 -22.802  0.00  0.00    +0.031 C 
ATOM      7  C   UNL     1      34.381 -18.534 -24.010  0.00  0.00    +0.103 C 
ATOM      8  C   UNL     1      34.623 -16.445 -23.387  0.00  0.00    +0.166 C 
ATOM      9  C   UNL     1      34.073 -14.133 -24.264  0.00  0.00    +0.310 C 
ATOM     10  H   UNL     1      35.003 -14.686 -22.515  0.00  0.00    +0.158 HD
ATOM     11  H   UNL     1      34.705 -12.725 -22.932  0.00  0.00    +0.156 HD
ENDROOT
BRANCH   5  12
ATOM     12  C   UNL     1      33.876 -11.613 -24.439  0.00  0.00    +0.052 C 
ATOM     13  C   UNL     1      32.765  -9.469 -24.366  0.00  0.00    +0.073 C 
ATOM     14  C   UNL     1      33.139 -10.658 -23.740  0.00  0.00    +0.019 C 
ATOM     15  C   UNL     1      34.239 -11.379 -25.765  0.00  0.00    +0.015 C 
ATOM     16  C   UNL     1      33.128  -9.235 -25.692  0.00  0.00    +0.004 C 
ATOM     17  C   UNL     1      33.866 -10.190 -26.392  0.00  0.00    +0.001 C 
BRANCH  13  21
ATOM     18  F   UNL     1      31.608  -7.375 -24.379  0.00  0.00    -0.166 F 
ATOM     19  F   UNL     1      30.810  -8.931 -23.097  0.00  0.00    -0.166 F 
ATOM     20  F   UNL     1      32.662  -7.926 -22.560  0.00  0.00    -0.166 F 
ATOM     21  C   UNL     1      31.976  -8.447 -23.618  0.00  0.00    +0.419 C 
ENDBRANCH  13  21
ENDBRANCH   5  12
BRANCH   6  22
ATOM     22  C   UNL     1      35.404 -20.044 -22.133  0.00  0.00    +0.056 C 
BRANCH  22  23
ATOM     23  C   UNL     1      34.481 -20.426 -20.977  0.00  0.00    +0.093 C 
BRANCH  23  25
ATOM     24  S   UNL     1      37.091 -21.635 -17.336  0.00  0.00    -0.101 S 
ATOM     25  N   UNL     1      35.237 -20.842 -19.834  0.00  0.00    -0.320 N 
ATOM     26  N   UNL     1      33.554 -22.354 -19.093  0.00  0.00    -0.233 NA
ATOM     27  N   UNL     1      33.806 -23.692 -17.093  0.00  0.00    -0.247 NA
ATOM     28  C   UNL     1      34.767 -21.795 -18.911  0.00  0.00    +0.118 C 
ATOM     29  C   UNL     1      35.532 -22.172 -17.814  0.00  0.00    +0.145 C 
ATOM     30  C   UNL     1      35.027 -23.119 -16.924  0.00  0.00    +0.073 C 
ATOM     31  C   UNL     1      35.938 -23.389 -15.859  0.00  0.00    +0.022 C 
ATOM     32  C   UNL     1      37.095 -22.652 -15.963  0.00  0.00    +0.033 C 
ATOM     33  C   UNL     1      33.151 -23.259 -18.182  0.00  0.00    +0.251 C 
ATOM     34  H   UNL     1      36.124 -20.443 -19.687  0.00  0.00    +0.148 HD
ENDBRANCH  23  25
ENDBRANCH  22  23
ENDBRANCH   6  22
TORSDOF 5
ENDMDL
