MODEL 1
REMARK VINA RESULT:     -11.5      0.000      0.000
REMARK  Name = 11610526
REMARK  3 active torsions:
REMARK  status: ('A' for Active; 'I' for Inactive)
REMARK    1  A    between atoms: C_2  and  C_21
REMARK    2  A    between atoms: C_9  and  C_14
REMARK    3  A    between atoms: C_21  and  C_23
REMARK                            x       y       z     vdW  Elec       q    Type
REMARK                         _______ _______ _______ _____ _____    ______ ____
ROOT
ATOM      1  N   UNL     1      34.865 -17.055 -22.565  0.00  0.00    -0.388 NA
ATOM      2  C   UNL     1      35.125 -18.351 -22.753  0.00  0.00    +0.167 C 
ATOM      3  C   UNL     1      34.905 -19.074 -23.893  0.00  0.00    +0.031 C 
ATOM      4  C   UNL     1      34.329 -16.420 -23.631  0.00  0.00    +0.167 C 
ATOM      5  C   UNL     1      34.353 -18.387 -24.968  0.00  0.00    -0.015 C 
ATOM      6  C   UNL     1      34.056 -17.034 -24.843  0.00  0.00    +0.101 C 
ATOM      7  O   UNL     1      33.146 -14.521 -25.627  0.00  0.00    -0.270 OA
ATOM      8  N   UNL     1      34.027 -15.058 -23.515  0.00  0.00    -0.259 N 
ATOM      9  C   UNL     1      33.473 -14.217 -24.484  0.00  0.00    +0.255 C 
ATOM     10  H   UNL     1      34.229 -14.643 -22.646  0.00  0.00    +0.157 HD
ENDROOT
BRANCH   9  14
ATOM     11  F   UNL     1      31.927 -13.499 -22.256  0.00  0.00    -0.204 F 
ATOM     12  F   UNL     1      34.662 -12.091 -25.876  0.00  0.00    -0.204 F 
ATOM     13  F   UNL     1      32.806  -8.898 -22.920  0.00  0.00    -0.204 F 
ATOM     14  C   UNL     1      33.295 -12.801 -24.068  0.00  0.00    +0.109 C 
ATOM     15  C   UNL     1      32.520 -12.525 -22.960  0.00  0.00    +0.149 C 
ATOM     16  C   UNL     1      33.911 -11.809 -24.802  0.00  0.00    +0.149 C 
ATOM     17  C   UNL     1      32.354 -11.196 -22.570  0.00  0.00    +0.060 C 
ATOM     18  C   UNL     1      33.744 -10.480 -24.411  0.00  0.00    +0.060 C 
ATOM     19  C   UNL     1      32.965 -10.174 -23.295  0.00  0.00    +0.145 C 
ENDBRANCH   9  14
BRANCH   2  21
ATOM     20  O   UNL     1      36.657 -18.526 -20.968  0.00  0.00    -0.289 OA
ATOM     21  C   UNL     1      35.714 -19.036 -21.568  0.00  0.00    +0.202 C 
BRANCH  21  23
ATOM     22  N   UNL     1      33.916 -21.905 -18.976  0.00  0.00    +0.386 N 
ATOM     23  C   UNL     1      35.141 -20.347 -21.126  0.00  0.00    +0.060 C 
ATOM     24  C   UNL     1      33.684 -20.153 -20.707  0.00  0.00    -0.015 C 
ATOM     25  C   UNL     1      35.956 -20.915 -19.965  0.00  0.00    -0.015 C 
ATOM     26  C   UNL     1      33.104 -21.436 -20.107  0.00  0.00    -0.077 C 
ATOM     27  C   UNL     1      35.300 -22.172 -19.391  0.00  0.00    -0.077 C 
ATOM     28  C   UNL     1      33.320 -23.101 -18.381  0.00  0.00    -0.101 C 
ATOM     29  H   UNL     1      33.936 -21.165 -18.274  0.00  0.00    -0.080 HD
ENDBRANCH  21  23
ENDBRANCH   2  21
TORSDOF 3
ENDMDL
MODEL 2
REMARK VINA RESULT:     -11.0      2.815      5.219
REMARK  Name = 11610526
REMARK  3 active torsions:
REMARK  status: ('A' for Active; 'I' for Inactive)
REMARK    1  A    between atoms: C_2  and  C_21
REMARK    2  A    between atoms: C_9  and  C_14
REMARK    3  A    between atoms: C_21  and  C_23
REMARK                            x       y       z     vdW  Elec       q    Type
REMARK                         _______ _______ _______ _____ _____    ______ ____
ROOT
ATOM      1  N   UNL     1      33.852 -20.693 -20.241  0.00  0.00    -0.388 NA
ATOM      2  C   UNL     1      34.230 -21.706 -19.457  0.00  0.00    +0.167 C 
ATOM      3  C   UNL     1      35.506 -22.153 -19.254  0.00  0.00    +0.031 C 
ATOM      4  C   UNL     1      34.860 -20.066 -20.887  0.00  0.00    +0.167 C 
ATOM      5  C   UNL     1      36.516 -21.483 -19.936  0.00  0.00    -0.015 C 
ATOM      6  C   UNL     1      36.194 -20.418 -20.770  0.00  0.00    +0.101 C 
ATOM      7  O   UNL     1      36.645 -18.325 -22.552  0.00  0.00    -0.270 OA
ATOM      8  N   UNL     1      34.547 -18.992 -21.729  0.00  0.00    -0.259 N 
ATOM      9  C   UNL     1      35.425 -18.211 -22.486  0.00  0.00    +0.255 C 
ATOM     10  H   UNL     1      33.593 -18.760 -21.797  0.00  0.00    +0.157 HD
ENDROOT
BRANCH   9  14
ATOM     11  F   UNL     1      34.574 -18.565 -25.135  0.00  0.00    -0.204 F 
ATOM     12  F   UNL     1      34.999 -15.660 -21.402  0.00  0.00    -0.204 F 
ATOM     13  F   UNL     1      33.037 -14.100 -25.414  0.00  0.00    -0.204 F 
ATOM     14  C   UNL     1      34.789 -17.117 -23.266  0.00  0.00    +0.109 C 
ATOM     15  C   UNL     1      34.396 -17.366 -24.565  0.00  0.00    +0.149 C 
ATOM     16  C   UNL     1      34.612 -15.888 -22.665  0.00  0.00    +0.149 C 
ATOM     17  C   UNL     1      33.800 -16.338 -25.295  0.00  0.00    +0.060 C 
ATOM     18  C   UNL     1      34.016 -14.861 -23.397  0.00  0.00    +0.060 C 
ATOM     19  C   UNL     1      33.610 -15.086 -24.712  0.00  0.00    +0.145 C 
ENDBRANCH   9  14
BRANCH   2  21
ATOM     20  O   UNL     1      31.951 -22.219 -19.130  0.00  0.00    -0.289 OA
ATOM     21  C   UNL     1      33.108 -22.387 -18.752  0.00  0.00    +0.202 C 
BRANCH  21  23
ATOM     22  N   UNL     1      33.712 -23.523 -14.687  0.00  0.00    +0.386 N 
ATOM     23  C   UNL     1      33.413 -23.274 -17.585  0.00  0.00    +0.060 C 
ATOM     24  C   UNL     1      32.211 -23.310 -16.641  0.00  0.00    -0.015 C 
ATOM     25  C   UNL     1      34.652 -22.769 -16.847  0.00  0.00    -0.015 C 
ATOM     26  C   UNL     1      32.534 -24.084 -15.361  0.00  0.00    -0.077 C 
ATOM     27  C   UNL     1      34.892 -23.561 -15.561  0.00  0.00    -0.077 C 
ATOM     28  C   UNL     1      33.976 -24.240 -13.439  0.00  0.00    -0.101 C 
ATOM     29  H   UNL     1      33.514 -22.546 -14.467  0.00  0.00    -0.080 HD
ENDBRANCH  21  23
ENDBRANCH   2  21
TORSDOF 3
ENDMDL
MODEL 3
REMARK VINA RESULT:     -10.9      3.551      6.334
REMARK  Name = 11610526
REMARK  3 active torsions:
REMARK  status: ('A' for Active; 'I' for Inactive)
REMARK    1  A    between atoms: C_2  and  C_21
REMARK    2  A    between atoms: C_9  and  C_14
REMARK    3  A    between atoms: C_21  and  C_23
REMARK                            x       y       z     vdW  Elec       q    Type
REMARK                         _______ _______ _______ _____ _____    ______ ____
ROOT
ATOM      1  N   UNL     1      34.212 -21.573 -19.620  0.00  0.00    -0.388 NA
ATOM      2  C   UNL     1      34.560 -22.388 -18.620  0.00  0.00    +0.167 C 
ATOM      3  C   UNL     1      35.782 -22.460 -18.010  0.00  0.00    +0.031 C 
ATOM      4  C   UNL     1      35.191 -20.748 -20.051  0.00  0.00    +0.167 C 
ATOM      5  C   UNL     1      36.764 -21.595 -18.481  0.00  0.00    -0.015 C 
ATOM      6  C   UNL     1      36.471 -20.719 -19.520  0.00  0.00    +0.101 C 
ATOM      7  O   UNL     1      36.937 -18.717 -21.401  0.00  0.00    -0.270 OA
ATOM      8  N   UNL     1      34.906 -19.861 -21.096  0.00  0.00    -0.259 N 
ATOM      9  C   UNL     1      35.764 -18.931 -21.691  0.00  0.00    +0.255 C 
ATOM     10  H   UNL     1      33.992 -19.899 -21.458  0.00  0.00    +0.157 HD
ENDROOT
BRANCH   9  14
ATOM     11  F   UNL     1      35.050 -20.017 -24.176  0.00  0.00    -0.204 F 
ATOM     12  F   UNL     1      35.258 -16.191 -21.369  0.00  0.00    -0.204 F 
ATOM     13  F   UNL     1      33.483 -15.837 -25.740  0.00  0.00    -0.204 F 
ATOM     14  C   UNL     1      35.156 -18.108 -22.768  0.00  0.00    +0.109 C 
ATOM     15  C   UNL     1      34.832 -18.712 -23.965  0.00  0.00    +0.149 C 
ATOM     16  C   UNL     1      34.937 -16.766 -22.537  0.00  0.00    +0.149 C 
ATOM     17  C   UNL     1      34.262 -17.938 -24.977  0.00  0.00    +0.060 C 
ATOM     18  C   UNL     1      34.368 -15.993 -23.550  0.00  0.00    +0.060 C 
ATOM     19  C   UNL     1      34.030 -16.579 -24.769  0.00  0.00    +0.145 C 
ENDBRANCH   9  14
BRANCH   2  21
ATOM     20  O   UNL     1      33.104 -24.227 -18.866  0.00  0.00    -0.289 OA
ATOM     21  C   UNL     1      33.470 -23.292 -18.158  0.00  0.00    +0.202 C 
BRANCH  21  23
ATOM     22  N   UNL     1      31.230 -24.096 -14.620  0.00  0.00    +0.386 N 
ATOM     23  C   UNL     1      32.834 -23.042 -16.826  0.00  0.00    +0.060 C 
ATOM     24  C   UNL     1      33.405 -24.015 -15.795  0.00  0.00    -0.015 C 
ATOM     25  C   UNL     1      31.318 -23.203 -16.925  0.00  0.00    -0.015 C 
ATOM     26  C   UNL     1      32.675 -23.895 -14.455  0.00  0.00    -0.077 C 
ATOM     27  C   UNL     1      30.659 -23.110 -15.548  0.00  0.00    -0.077 C 
ATOM     28  C   UNL     1      30.554 -24.031 -13.325  0.00  0.00    -0.101 C 
ATOM     29  H   UNL     1      31.084 -25.024 -15.019  0.00  0.00    -0.080 HD
ENDBRANCH  21  23
ENDBRANCH   2  21
TORSDOF 3
ENDMDL
MODEL 4
REMARK VINA RESULT:     -10.8      0.637      1.710
REMARK  Name = 11610526
REMARK  3 active torsions:
REMARK  status: ('A' for Active; 'I' for Inactive)
REMARK    1  A    between atoms: C_2  and  C_21
REMARK    2  A    between atoms: C_9  and  C_14
REMARK    3  A    between atoms: C_21  and  C_23
REMARK                            x       y       z     vdW  Elec       q    Type
REMARK                         _______ _______ _______ _____ _____    ______ ____
ROOT
ATOM      1  N   UNL     1      34.700 -16.548 -22.694  0.00  0.00    -0.388 NA
ATOM      2  C   UNL     1      34.994 -17.819 -22.979  0.00  0.00    +0.167 C 
ATOM      3  C   UNL     1      34.837 -18.445 -24.185  0.00  0.00    +0.031 C 
ATOM      4  C   UNL     1      34.196 -15.834 -23.725  0.00  0.00    +0.167 C 
ATOM      5  C   UNL     1      34.316 -17.678 -25.221  0.00  0.00    -0.015 C 
ATOM      6  C   UNL     1      33.987 -16.346 -24.995  0.00  0.00    +0.101 C 
ATOM      7  O   UNL     1      33.059 -13.791 -25.602  0.00  0.00    -0.270 OA
ATOM      8  N   UNL     1      33.863 -14.491 -23.507  0.00  0.00    -0.259 N 
ATOM      9  C   UNL     1      33.332 -13.580 -24.424  0.00  0.00    +0.255 C 
ATOM     10  H   UNL     1      34.019 -14.149 -22.598  0.00  0.00    +0.157 HD
ENDROOT
BRANCH   9  14
ATOM     11  F   UNL     1      34.639 -11.340 -25.493  0.00  0.00    -0.204 F 
ATOM     12  F   UNL     1      31.577 -13.065 -22.298  0.00  0.00    -0.204 F 
ATOM     13  F   UNL     1      32.494  -8.427 -22.445  0.00  0.00    -0.204 F 
ATOM     14  C   UNL     1      33.109 -12.208 -23.898  0.00  0.00    +0.109 C 
ATOM     15  C   UNL     1      33.788 -11.155 -24.474  0.00  0.00    +0.149 C 
ATOM     16  C   UNL     1      32.230 -12.032 -22.849  0.00  0.00    +0.149 C 
ATOM     17  C   UNL     1      33.579  -9.867 -23.979  0.00  0.00    +0.060 C 
ATOM     18  C   UNL     1      32.022 -10.745 -22.354  0.00  0.00    +0.060 C 
ATOM     19  C   UNL     1      32.696  -9.662 -22.919  0.00  0.00    +0.145 C 
ENDBRANCH   9  14
BRANCH   2  21
ATOM     20  O   UNL     1      36.492 -18.146 -21.188  0.00  0.00    -0.289 OA
ATOM     21  C   UNL     1      35.547 -18.593 -21.833  0.00  0.00    +0.202 C 
BRANCH  21  23
ATOM     22  N   UNL     1      33.802 -21.639 -19.411  0.00  0.00    +0.386 N 
ATOM     23  C   UNL     1      34.934 -19.914 -21.483  0.00  0.00    +0.060 C 
ATOM     24  C   UNL     1      33.532 -19.694 -20.916  0.00  0.00    -0.015 C 
ATOM     25  C   UNL     1      35.808 -20.650 -20.469  0.00  0.00    -0.015 C 
ATOM     26  C   UNL     1      32.928 -21.004 -20.406  0.00  0.00    -0.077 C 
ATOM     27  C   UNL     1      35.127 -21.928 -19.976  0.00  0.00    -0.077 C 
ATOM     28  C   UNL     1      33.187 -22.862 -18.896  0.00  0.00    -0.101 C 
ATOM     29  H   UNL     1      33.927 -20.984 -18.638  0.00  0.00    -0.080 HD
ENDBRANCH  21  23
ENDBRANCH   2  21
TORSDOF 3
ENDMDL
MODEL 5
REMARK VINA RESULT:     -10.7      6.102     11.603
REMARK  Name = 11610526
REMARK  3 active torsions:
REMARK  status: ('A' for Active; 'I' for Inactive)
REMARK    1  A    between atoms: C_2  and  C_21
REMARK    2  A    between atoms: C_9  and  C_14
REMARK    3  A    between atoms: C_21  and  C_23
REMARK                            x       y       z     vdW  Elec       q    Type
REMARK                         _______ _______ _______ _____ _____    ______ ____
ROOT
ATOM      1  N   UNL     1      35.472 -21.755 -18.894  0.00  0.00    -0.388 NA
ATOM      2  C   UNL     1      34.778 -21.145 -19.859  0.00  0.00    +0.167 C 
ATOM      3  C   UNL     1      33.430 -21.225 -20.073  0.00  0.00    +0.031 C 
ATOM      4  C   UNL     1      34.737 -22.524 -18.062  0.00  0.00    +0.167 C 
ATOM      5  C   UNL     1      32.707 -22.025 -19.196  0.00  0.00    -0.015 C 
ATOM      6  C   UNL     1      33.366 -22.691 -18.168  0.00  0.00    +0.101 C 
ATOM      7  O   UNL     1      33.645 -24.341 -15.941  0.00  0.00    -0.270 OA
ATOM      8  N   UNL     1      35.391 -23.198 -17.023  0.00  0.00    -0.259 N 
ATOM      9  C   UNL     1      34.829 -24.038 -16.057  0.00  0.00    +0.255 C 
ATOM     10  H   UNL     1      36.364 -23.065 -16.967  0.00  0.00    +0.157 HD
ENDROOT
BRANCH   9  14
ATOM     11  F   UNL     1      35.738 -26.689 -16.167  0.00  0.00    -0.204 F 
ATOM     12  F   UNL     1      35.839 -22.491 -13.947  0.00  0.00    -0.204 F 
ATOM     13  F   UNL     1      38.421 -26.103 -12.315  0.00  0.00    -0.204 F 
ATOM     14  C   UNL     1      35.785 -24.588 -15.061  0.00  0.00    +0.109 C 
ATOM     15  C   UNL     1      36.187 -25.902 -15.180  0.00  0.00    +0.149 C 
ATOM     16  C   UNL     1      36.239 -23.766 -14.051  0.00  0.00    +0.149 C 
ATOM     17  C   UNL     1      37.085 -26.417 -14.244  0.00  0.00    +0.060 C 
ATOM     18  C   UNL     1      37.136 -24.283 -13.115  0.00  0.00    +0.060 C 
ATOM     19  C   UNL     1      37.559 -25.608 -13.212  0.00  0.00    +0.145 C 
ENDBRANCH   9  14
BRANCH   2  21
ATOM     20  O   UNL     1      36.824 -20.439 -20.796  0.00  0.00    -0.289 OA
ATOM     21  C   UNL     1      35.603 -20.302 -20.769  0.00  0.00    +0.202 C 
BRANCH  21  23
ATOM     22  N   UNL     1      35.138 -17.419 -23.876  0.00  0.00    +0.386 N 
ATOM     23  C   UNL     1      34.923 -19.294 -21.643  0.00  0.00    +0.060 C 
ATOM     24  C   UNL     1      34.973 -19.761 -23.097  0.00  0.00    -0.015 C 
ATOM     25  C   UNL     1      35.597 -17.931 -21.500  0.00  0.00    -0.015 C 
ATOM     26  C   UNL     1      34.423 -18.691 -24.042  0.00  0.00    -0.077 C 
ATOM     27  C   UNL     1      35.025 -16.923 -22.498  0.00  0.00    -0.077 C 
ATOM     28  C   UNL     1      34.637 -16.423 -24.822  0.00  0.00    -0.101 C 
ATOM     29  H   UNL     1      36.126 -17.586 -24.070  0.00  0.00    -0.080 HD
ENDBRANCH  21  23
ENDBRANCH   2  21
TORSDOF 3
ENDMDL
MODEL 6
REMARK VINA RESULT:     -10.7      6.095     11.585
REMARK  Name = 11610526
REMARK  3 active torsions:
REMARK  status: ('A' for Active; 'I' for Inactive)
REMARK    1  A    between atoms: C_2  and  C_21
REMARK    2  A    between atoms: C_9  and  C_14
REMARK    3  A    between atoms: C_21  and  C_23
REMARK                            x       y       z     vdW  Elec       q    Type
REMARK                         _______ _______ _______ _____ _____    ______ ____
ROOT
ATOM      1  N   UNL     1      35.470 -21.747 -18.906  0.00  0.00    -0.388 NA
ATOM      2  C   UNL     1      34.776 -21.138 -19.870  0.00  0.00    +0.167 C 
ATOM      3  C   UNL     1      33.428 -21.221 -20.086  0.00  0.00    +0.031 C 
ATOM      4  C   UNL     1      34.736 -22.519 -18.074  0.00  0.00    +0.167 C 
ATOM      5  C   UNL     1      32.706 -22.025 -19.210  0.00  0.00    -0.015 C 
ATOM      6  C   UNL     1      33.366 -22.689 -18.182  0.00  0.00    +0.101 C 
ATOM      7  O   UNL     1      33.647 -24.341 -15.957  0.00  0.00    -0.270 OA
ATOM      8  N   UNL     1      35.391 -23.191 -17.035  0.00  0.00    -0.259 N 
ATOM      9  C   UNL     1      34.830 -24.034 -16.071  0.00  0.00    +0.255 C 
ATOM     10  H   UNL     1      36.364 -23.056 -16.978  0.00  0.00    +0.157 HD
ENDROOT
BRANCH   9  14
ATOM     11  F   UNL     1      35.838 -22.484 -13.963  0.00  0.00    -0.204 F 
ATOM     12  F   UNL     1      35.743 -26.684 -16.179  0.00  0.00    -0.204 F 
ATOM     13  F   UNL     1      38.424 -26.092 -12.327  0.00  0.00    -0.204 F 
ATOM     14  C   UNL     1      35.786 -24.582 -15.075  0.00  0.00    +0.109 C 
ATOM     15  C   UNL     1      36.239 -23.759 -14.064  0.00  0.00    +0.149 C 
ATOM     16  C   UNL     1      36.190 -25.895 -15.192  0.00  0.00    +0.149 C 
ATOM     17  C   UNL     1      37.138 -24.273 -13.129  0.00  0.00    +0.060 C 
ATOM     18  C   UNL     1      37.089 -26.409 -14.257  0.00  0.00    +0.060 C 
ATOM     19  C   UNL     1      37.563 -25.598 -13.225  0.00  0.00    +0.145 C 
ENDBRANCH   9  14
BRANCH   2  21
ATOM     20  O   UNL     1      36.820 -20.424 -20.803  0.00  0.00    -0.289 OA
ATOM     21  C   UNL     1      35.599 -20.292 -20.778  0.00  0.00    +0.202 C 
BRANCH  21  23
ATOM     22  N   UNL     1      35.130 -17.408 -23.885  0.00  0.00    +0.386 N 
ATOM     23  C   UNL     1      34.917 -19.286 -21.653  0.00  0.00    +0.060 C 
ATOM     24  C   UNL     1      34.973 -19.752 -23.108  0.00  0.00    -0.015 C 
ATOM     25  C   UNL     1      35.585 -17.920 -21.507  0.00  0.00    -0.015 C 
ATOM     26  C   UNL     1      34.421 -18.683 -24.054  0.00  0.00    -0.077 C 
ATOM     27  C   UNL     1      35.011 -16.913 -22.507  0.00  0.00    -0.077 C 
ATOM     28  C   UNL     1      34.627 -16.413 -24.831  0.00  0.00    -0.101 C 
ATOM     29  H   UNL     1      36.120 -17.571 -24.076  0.00  0.00    -0.080 HD
ENDBRANCH  21  23
ENDBRANCH   2  21
TORSDOF 3
ENDMDL
MODEL 7
REMARK VINA RESULT:     -10.6      1.235      2.307
REMARK  Name = 11610526
REMARK  3 active torsions:
REMARK  status: ('A' for Active; 'I' for Inactive)
REMARK    1  A    between atoms: C_2  and  C_21
REMARK    2  A    between atoms: C_9  and  C_14
REMARK    3  A    between atoms: C_21  and  C_23
REMARK                            x       y       z     vdW  Elec       q    Type
REMARK                         _______ _______ _______ _____ _____    ______ ____
ROOT
ATOM      1  N   UNL     1      35.027 -16.690 -22.260  0.00  0.00    -0.388 NA
ATOM      2  C   UNL     1      35.544 -17.812 -22.769  0.00  0.00    +0.167 C 
ATOM      3  C   UNL     1      35.434 -18.252 -24.059  0.00  0.00    +0.031 C 
ATOM      4  C   UNL     1      34.328 -15.935 -23.136  0.00  0.00    +0.167 C 
ATOM      5  C   UNL     1      34.707 -17.448 -24.931  0.00  0.00    -0.015 C 
ATOM      6  C   UNL     1      34.140 -16.266 -24.468  0.00  0.00    +0.101 C 
ATOM      7  O   UNL     1      32.695 -13.888 -24.596  0.00  0.00    -0.270 OA
ATOM      8  N   UNL     1      33.754 -14.742 -22.679  0.00  0.00    -0.259 N 
ATOM      9  C   UNL     1      32.997 -13.821 -23.409  0.00  0.00    +0.255 C 
ATOM     10  H   UNL     1      33.900 -14.528 -21.730  0.00  0.00    +0.157 HD
ENDROOT
BRANCH   9  14
ATOM     11  F   UNL     1      33.341 -11.212 -24.380  0.00  0.00    -0.204 F 
ATOM     12  F   UNL     1      31.747 -14.033 -20.906  0.00  0.00    -0.204 F 
ATOM     13  F   UNL     1      31.302  -9.338 -20.544  0.00  0.00    -0.204 F 
ATOM     14  C   UNL     1      32.546 -12.627 -22.646  0.00  0.00    +0.109 C 
ATOM     15  C   UNL     1      32.749 -11.375 -23.188  0.00  0.00    +0.149 C 
ATOM     16  C   UNL     1      31.938 -12.811 -21.422  0.00  0.00    +0.149 C 
ATOM     17  C   UNL     1      32.325 -10.255 -22.472  0.00  0.00    +0.060 C 
ATOM     18  C   UNL     1      31.516 -11.690 -20.706  0.00  0.00    +0.060 C 
ATOM     19  C   UNL     1      31.709 -10.412 -21.231  0.00  0.00    +0.145 C 
ENDBRANCH   9  14
BRANCH   2  21
ATOM     20  O   UNL     1      37.537 -18.669 -21.846  0.00  0.00    -0.289 OA
ATOM     21  C   UNL     1      36.310 -18.633 -21.791  0.00  0.00    +0.202 C 
BRANCH  21  23
ATOM     22  N   UNL     1      34.336 -21.944 -19.969  0.00  0.00    +0.386 N 
ATOM     23  C   UNL     1      35.565 -19.408 -20.750  0.00  0.00    +0.060 C 
ATOM     24  C   UNL     1      36.395 -20.618 -20.321  0.00  0.00    -0.015 C 
ATOM     25  C   UNL     1      34.211 -19.859 -21.295  0.00  0.00    -0.015 C 
ATOM     26  C   UNL     1      35.607 -21.521 -19.368  0.00  0.00    -0.077 C 
ATOM     27  C   UNL     1      33.498 -20.787 -20.309  0.00  0.00    -0.077 C 
ATOM     28  C   UNL     1      33.621 -22.848 -19.068  0.00  0.00    -0.101 C 
ATOM     29  H   UNL     1      34.547 -22.444 -20.834  0.00  0.00    -0.080 HD
ENDBRANCH  21  23
ENDBRANCH   2  21
TORSDOF 3
ENDMDL
MODEL 8
REMARK VINA RESULT:     -10.4      6.367      9.757
REMARK  Name = 11610526
REMARK  3 active torsions:
REMARK  status: ('A' for Active; 'I' for Inactive)
REMARK    1  A    between atoms: C_2  and  C_21
REMARK    2  A    between atoms: C_9  and  C_14
REMARK    3  A    between atoms: C_21  and  C_23
REMARK                            x       y       z     vdW  Elec       q    Type
REMARK                         _______ _______ _______ _____ _____    ______ ____
ROOT
ATOM      1  N   UNL     1      34.326 -23.436 -15.373  0.00  0.00    -0.388 NA
ATOM      2  C   UNL     1      33.800 -24.184 -14.400  0.00  0.00    +0.167 C 
ATOM      3  C   UNL     1      32.572 -24.786 -14.400  0.00  0.00    +0.031 C 
ATOM      4  C   UNL     1      33.536 -23.275 -16.458  0.00  0.00    +0.167 C 
ATOM      5  C   UNL     1      31.789 -24.598 -15.534  0.00  0.00    -0.015 C 
ATOM      6  C   UNL     1      32.273 -23.829 -16.587  0.00  0.00    +0.101 C 
ATOM      7  O   UNL     1      32.252 -22.581 -19.077  0.00  0.00    -0.270 OA
ATOM      8  N   UNL     1      34.014 -22.503 -17.524  0.00  0.00    -0.259 N 
ATOM      9  C   UNL     1      33.369 -22.210 -18.728  0.00  0.00    +0.255 C 
ATOM     10  H   UNL     1      34.913 -22.119 -17.410  0.00  0.00    +0.157 HD
ENDROOT
BRANCH   9  14
ATOM     11  F   UNL     1      36.171 -22.284 -18.817  0.00  0.00    -0.204 F 
ATOM     12  F   UNL     1      32.138 -20.471 -20.554  0.00  0.00    -0.204 F 
ATOM     13  F   UNL     1      36.310 -19.096 -22.310  0.00  0.00    -0.204 F 
ATOM     14  C   UNL     1      34.152 -21.382 -19.682  0.00  0.00    +0.109 C 
ATOM     15  C   UNL     1      35.528 -21.471 -19.667  0.00  0.00    +0.149 C 
ATOM     16  C   UNL     1      33.477 -20.549 -20.550  0.00  0.00    +0.149 C 
ATOM     17  C   UNL     1      36.262 -20.693 -20.562  0.00  0.00    +0.060 C 
ATOM     18  C   UNL     1      34.212 -19.771 -21.444  0.00  0.00    +0.060 C 
ATOM     19  C   UNL     1      35.605 -19.842 -21.450  0.00  0.00    +0.145 C 
ENDBRANCH   9  14
BRANCH   2  21
ATOM     20  O   UNL     1      34.349 -23.881 -12.126  0.00  0.00    -0.289 OA
ATOM     21  C   UNL     1      34.683 -24.351 -13.211  0.00  0.00    +0.202 C 
BRANCH  21  23
ATOM     22  N   UNL     1      38.542 -25.327 -14.739  0.00  0.00    +0.386 N 
ATOM     23  C   UNL     1      35.974 -25.095 -13.361  0.00  0.00    +0.060 C 
ATOM     24  C   UNL     1      37.143 -24.154 -13.070  0.00  0.00    -0.015 C 
ATOM     25  C   UNL     1      36.092 -25.668 -14.772  0.00  0.00    -0.015 C 
ATOM     26  C   UNL     1      38.484 -24.832 -13.358  0.00  0.00    -0.077 C 
ATOM     27  C   UNL     1      37.468 -26.295 -15.002  0.00  0.00    -0.077 C 
ATOM     28  C   UNL     1      39.848 -25.925 -15.014  0.00  0.00    -0.101 C 
ATOM     29  H   UNL     1      38.408 -24.532 -15.365  0.00  0.00    -0.080 HD
ENDBRANCH  21  23
ENDBRANCH   2  21
TORSDOF 3
ENDMDL
MODEL 9
REMARK VINA RESULT:     -10.3      3.700      9.994
REMARK  Name = 11610526
REMARK  3 active torsions:
REMARK  status: ('A' for Active; 'I' for Inactive)
REMARK    1  A    between atoms: C_2  and  C_21
REMARK    2  A    between atoms: C_9  and  C_14
REMARK    3  A    between atoms: C_21  and  C_23
REMARK                            x       y       z     vdW  Elec       q    Type
REMARK                         _______ _______ _______ _____ _____    ______ ____
ROOT
ATOM      1  N   UNL     1      34.315 -11.525 -24.643  0.00  0.00    -0.388 NA
ATOM      2  C   UNL     1      34.022 -10.470 -25.408  0.00  0.00    +0.167 C 
ATOM      3  C   UNL     1      33.463 -10.493 -26.656  0.00  0.00    +0.031 C 
ATOM      4  C   UNL     1      34.017 -12.725 -25.188  0.00  0.00    +0.167 C 
ATOM      5  C   UNL     1      33.170 -11.746 -27.183  0.00  0.00    -0.015 C 
ATOM      6  C   UNL     1      33.449 -12.889 -26.441  0.00  0.00    +0.101 C 
ATOM      7  O   UNL     1      33.581 -15.612 -25.871  0.00  0.00    -0.270 OA
ATOM      8  N   UNL     1      34.294 -13.882 -24.449  0.00  0.00    -0.259 N 
ATOM      9  C   UNL     1      34.069 -15.211 -24.819  0.00  0.00    +0.255 C 
ATOM     10  H   UNL     1      34.697 -13.742 -23.562  0.00  0.00    +0.157 HD
ENDROOT
BRANCH   9  14
ATOM     11  F   UNL     1      34.440 -14.547 -22.120  0.00  0.00    -0.204 F 
ATOM     12  F   UNL     1      34.455 -17.911 -25.472  0.00  0.00    -0.204 F 
ATOM     13  F   UNL     1      35.486 -19.020 -20.991  0.00  0.00    -0.204 F 
ATOM     14  C   UNL     1      34.446 -16.225 -23.800  0.00  0.00    +0.109 C 
ATOM     15  C   UNL     1      34.611 -15.823 -22.490  0.00  0.00    +0.149 C 
ATOM     16  C   UNL     1      34.619 -17.534 -24.196  0.00  0.00    +0.149 C 
ATOM     17  C   UNL     1      34.965 -16.775 -21.534  0.00  0.00    +0.060 C 
ATOM     18  C   UNL     1      34.973 -18.486 -23.239  0.00  0.00    +0.060 C 
ATOM     19  C   UNL     1      35.147 -18.106 -21.909  0.00  0.00    +0.145 C 
ENDBRANCH   9  14
BRANCH   2  21
ATOM     20  O   UNL     1      35.317  -9.058 -24.033  0.00  0.00    -0.289 OA
ATOM     21  C   UNL     1      34.358  -9.155 -24.793  0.00  0.00    +0.202 C 
BRANCH  21  23
ATOM     22  N   UNL     1      32.111  -5.590 -24.137  0.00  0.00    +0.386 N 
ATOM     23  C   UNL     1      33.511  -7.964 -25.117  0.00  0.00    +0.060 C 
ATOM     24  C   UNL     1      34.251  -6.686 -24.720  0.00  0.00    -0.015 C 
ATOM     25  C   UNL     1      32.173  -8.051 -24.385  0.00  0.00    -0.015 C 
ATOM     26  C   UNL     1      33.362  -5.453 -24.895  0.00  0.00    -0.077 C 
ATOM     27  C   UNL     1      31.354  -6.772 -24.571  0.00  0.00    -0.077 C 
ATOM     28  C   UNL     1      31.297  -4.383 -24.271  0.00  0.00    -0.101 C 
ATOM     29  H   UNL     1      32.351  -5.715 -23.153  0.00  0.00    -0.080 HD
ENDBRANCH  21  23
ENDBRANCH   2  21
TORSDOF 3
ENDMDL
