MODEL 1
REMARK VINA RESULT:     -11.4      0.000      0.000
REMARK  Name = 44177328
REMARK  2 active torsions:
REMARK  status: ('A' for Active; 'I' for Inactive)
REMARK    1  A    between atoms: N_1  and  C_15
REMARK    2  A    between atoms: C_6  and  C_23
REMARK                            x       y       z     vdW  Elec       q    Type
REMARK                         _______ _______ _______ _____ _____    ______ ____
ROOT
ATOM      1  N   UNL     1      32.666 -22.626 -18.602  0.00  0.00    -0.286 N 
ATOM      2  N   UNL     1      33.929 -23.562 -16.832  0.00  0.00    -0.386 NA
ATOM      3  N   UNL     1      31.576 -23.848 -15.332  0.00  0.00    -0.246 NA
ATOM      4  N   UNL     1      30.337 -22.907 -17.123  0.00  0.00    -0.340 N 
ATOM      5  C   UNL     1      32.728 -23.181 -17.310  0.00  0.00    +0.214 C 
ATOM      6  C   UNL     1      33.934 -24.088 -15.591  0.00  0.00    +0.135 C 
ATOM      7  C   UNL     1      31.572 -23.322 -16.574  0.00  0.00    +0.166 C 
ATOM      8  C   UNL     1      32.778 -24.228 -14.855  0.00  0.00    +0.185 C 
ATOM      9  H   UNL     1      31.815 -22.798 -19.066  0.00  0.00    +0.155 HD
ATOM     10  H   UNL     1      29.508 -23.005 -16.601  0.00  0.00    +0.144 HD
ATOM     11  H   UNL     1      30.307 -22.520 -18.028  0.00  0.00    +0.144 HD
ENDROOT
BRANCH   1  15
ATOM     12  N   UNL     1      36.074 -19.551 -21.689  0.00  0.00    -0.312 N 
ATOM     13  C   UNL     1      34.035 -20.183 -21.041  0.00  0.00    +0.016 C 
ATOM     14  C   UNL     1      35.400 -20.400 -20.840  0.00  0.00    +0.048 C 
ATOM     15  C   UNL     1      33.586 -21.871 -19.362  0.00  0.00    +0.050 C 
ATOM     16  C   UNL     1      33.111 -20.934 -20.286  0.00  0.00    +0.016 C 
ATOM     17  C   UNL     1      35.889 -21.332 -19.919  0.00  0.00    +0.016 C 
ATOM     18  C   UNL     1      34.954 -22.066 -19.182  0.00  0.00    +0.016 C 
ATOM     19  C   UNL     1      33.914 -19.176 -22.039  0.00  0.00    +0.017 C 
ATOM     20  C   UNL     1      35.184 -18.808 -22.418  0.00  0.00    +0.062 C 
ATOM     21  H   UNL     1      37.053 -19.489 -21.762  0.00  0.00    +0.152 HD
ENDBRANCH   1  15
BRANCH   6  23
ATOM     22  N   UNL     1      37.715 -25.269 -14.091  0.00  0.00    -0.242 NA
ATOM     23  C   UNL     1      35.220 -24.490 -15.081  0.00  0.00    +0.031 C 
ATOM     24  C   UNL     1      35.695 -25.775 -15.319  0.00  0.00    +0.023 C 
ATOM     25  C   UNL     1      35.992 -23.594 -14.350  0.00  0.00    +0.023 C 
ATOM     26  C   UNL     1      36.937 -26.112 -14.808  0.00  0.00    +0.099 C 
ATOM     27  C   UNL     1      37.221 -24.029 -13.881  0.00  0.00    +0.099 C 
ENDBRANCH   6  23
TORSDOF 2
ENDMDL
MODEL 2
REMARK VINA RESULT:     -11.1      0.932      1.549
REMARK  Name = 44177328
REMARK  2 active torsions:
REMARK  status: ('A' for Active; 'I' for Inactive)
REMARK    1  A    between atoms: N_1  and  C_15
REMARK    2  A    between atoms: C_6  and  C_23
REMARK                            x       y       z     vdW  Elec       q    Type
REMARK                         _______ _______ _______ _____ _____    ______ ____
ROOT
ATOM      1  N   UNL     1      32.470 -22.434 -18.815  0.00  0.00    -0.286 N 
ATOM      2  N   UNL     1      33.982 -23.239 -17.180  0.00  0.00    -0.386 NA
ATOM      3  N   UNL     1      31.815 -23.839 -15.503  0.00  0.00    -0.246 NA
ATOM      4  N   UNL     1      30.325 -23.027 -17.161  0.00  0.00    -0.340 N 
ATOM      5  C   UNL     1      32.707 -23.001 -17.548  0.00  0.00    +0.214 C 
ATOM      6  C   UNL     1      34.155 -23.782 -15.959  0.00  0.00    +0.135 C 
ATOM      7  C   UNL     1      31.643 -23.296 -16.725  0.00  0.00    +0.166 C 
ATOM      8  C   UNL     1      33.090 -24.076 -15.135  0.00  0.00    +0.185 C 
ATOM      9  H   UNL     1      31.610 -22.701 -19.213  0.00  0.00    +0.155 HD
ATOM     10  H   UNL     1      29.561 -23.235 -16.576  0.00  0.00    +0.144 HD
ATOM     11  H   UNL     1      30.172 -22.630 -18.049  0.00  0.00    +0.144 HD
ENDROOT
BRANCH   1  15
ATOM     12  N   UNL     1      35.638 -19.095 -21.884  0.00  0.00    -0.312 N 
ATOM     13  C   UNL     1      35.367 -20.670 -20.327  0.00  0.00    +0.016 C 
ATOM     14  C   UNL     1      34.687 -19.839 -21.221  0.00  0.00    +0.048 C 
ATOM     15  C   UNL     1      33.225 -21.558 -19.626  0.00  0.00    +0.050 C 
ATOM     16  C   UNL     1      34.620 -21.546 -19.515  0.00  0.00    +0.016 C 
ATOM     17  C   UNL     1      33.294 -19.841 -21.343  0.00  0.00    +0.016 C 
ATOM     18  C   UNL     1      32.574 -20.718 -20.526  0.00  0.00    +0.016 C 
ATOM     19  C   UNL     1      36.756 -20.398 -20.477  0.00  0.00    +0.017 C 
ATOM     20  C   UNL     1      36.890 -19.425 -21.441  0.00  0.00    +0.062 C 
ATOM     21  H   UNL     1      35.443 -18.421 -22.575  0.00  0.00    +0.152 HD
ENDBRANCH   1  15
BRANCH   6  23
ATOM     22  N   UNL     1      38.164 -24.514 -14.806  0.00  0.00    -0.242 NA
ATOM     23  C   UNL     1      35.518 -24.031 -15.567  0.00  0.00    +0.031 C 
ATOM     24  C   UNL     1      35.824 -25.122 -14.761  0.00  0.00    +0.023 C 
ATOM     25  C   UNL     1      36.533 -23.182 -15.994  0.00  0.00    +0.023 C 
ATOM     26  C   UNL     1      37.150 -25.318 -14.412  0.00  0.00    +0.099 C 
ATOM     27  C   UNL     1      37.828 -23.465 -15.589  0.00  0.00    +0.099 C 
ENDBRANCH   6  23
TORSDOF 2
ENDMDL
MODEL 3
REMARK VINA RESULT:     -10.1      8.019     13.657
REMARK  Name = 44177328
REMARK  2 active torsions:
REMARK  status: ('A' for Active; 'I' for Inactive)
REMARK    1  A    between atoms: N_1  and  C_15
REMARK    2  A    between atoms: C_6  and  C_23
REMARK                            x       y       z     vdW  Elec       q    Type
REMARK                         _______ _______ _______ _____ _____    ______ ____
ROOT
ATOM      1  N   UNL     1      33.738 -13.414 -25.108  0.00  0.00    -0.286 N 
ATOM      2  N   UNL     1      33.285 -11.326 -24.090  0.00  0.00    -0.386 NA
ATOM      3  N   UNL     1      33.844 -10.043 -26.520  0.00  0.00    -0.246 NA
ATOM      4  N   UNL     1      34.291 -12.150 -27.513  0.00  0.00    -0.340 N 
ATOM      5  C   UNL     1      33.644 -12.012 -25.192  0.00  0.00    +0.214 C 
ATOM      6  C   UNL     1      33.209  -9.987 -24.223  0.00  0.00    +0.135 C 
ATOM      7  C   UNL     1      33.919 -11.383 -26.386  0.00  0.00    +0.166 C 
ATOM      8  C   UNL     1      33.485  -9.357 -25.417  0.00  0.00    +0.185 C 
ATOM      9  H   UNL     1      33.539 -13.875 -25.955  0.00  0.00    +0.155 HD
ATOM     10  H   UNL     1      34.489 -11.706 -28.369  0.00  0.00    +0.144 HD
ATOM     11  H   UNL     1      34.353 -13.130 -27.442  0.00  0.00    +0.144 HD
ENDROOT
BRANCH   1  15
ATOM     12  N   UNL     1      35.064 -17.013 -21.121  0.00  0.00    -0.312 N 
ATOM     13  C   UNL     1      34.831 -16.449 -23.267  0.00  0.00    +0.016 C 
ATOM     14  C   UNL     1      34.690 -15.985 -21.957  0.00  0.00    +0.048 C 
ATOM     15  C   UNL     1      34.061 -14.288 -24.046  0.00  0.00    +0.050 C 
ATOM     16  C   UNL     1      34.510 -15.582 -24.332  0.00  0.00    +0.016 C 
ATOM     17  C   UNL     1      34.244 -14.694 -21.658  0.00  0.00    +0.016 C 
ATOM     18  C   UNL     1      33.930 -13.852 -22.730  0.00  0.00    +0.016 C 
ATOM     19  C   UNL     1      35.302 -17.789 -23.188  0.00  0.00    +0.017 C 
ATOM     20  C   UNL     1      35.435 -18.108 -21.856  0.00  0.00    +0.062 C 
ATOM     21  H   UNL     1      35.064 -16.968 -20.138  0.00  0.00    +0.152 HD
ENDBRANCH   1  15
BRANCH   6  23
ATOM     22  N   UNL     1      32.089  -7.839 -20.749  0.00  0.00    -0.242 NA
ATOM     23  C   UNL     1      32.828  -9.256 -23.042  0.00  0.00    +0.031 C 
ATOM     24  C   UNL     1      33.383  -8.008 -22.784  0.00  0.00    +0.023 C 
ATOM     25  C   UNL     1      31.903  -9.796 -22.155  0.00  0.00    +0.023 C 
ATOM     26  C   UNL     1      32.984  -7.346 -21.634  0.00  0.00    +0.099 C 
ATOM     27  C   UNL     1      31.570  -9.054 -21.033  0.00  0.00    +0.099 C 
ENDBRANCH   6  23
TORSDOF 2
ENDMDL
MODEL 4
REMARK VINA RESULT:     -10.1      1.915      6.701
REMARK  Name = 44177328
REMARK  2 active torsions:
REMARK  status: ('A' for Active; 'I' for Inactive)
REMARK    1  A    between atoms: N_1  and  C_15
REMARK    2  A    between atoms: C_6  and  C_23
REMARK                            x       y       z     vdW  Elec       q    Type
REMARK                         _______ _______ _______ _____ _____    ______ ____
ROOT
ATOM      1  N   UNL     1      33.907 -24.656 -14.536  0.00  0.00    -0.286 N 
ATOM      2  N   UNL     1      34.792 -23.367 -16.315  0.00  0.00    -0.386 NA
ATOM      3  N   UNL     1      37.176 -23.052 -14.872  0.00  0.00    -0.246 NA
ATOM      4  N   UNL     1      36.263 -24.347 -13.107  0.00  0.00    -0.340 N 
ATOM      5  C   UNL     1      34.964 -23.910 -15.093  0.00  0.00    +0.214 C 
ATOM      6  C   UNL     1      35.833 -22.664 -16.802  0.00  0.00    +0.135 C 
ATOM      7  C   UNL     1      36.135 -23.756 -14.384  0.00  0.00    +0.166 C 
ATOM      8  C   UNL     1      37.003 -22.509 -16.093  0.00  0.00    +0.185 C 
ATOM      9  H   UNL     1      34.205 -25.374 -13.932  0.00  0.00    +0.155 HD
ATOM     10  H   UNL     1      37.097 -24.240 -12.596  0.00  0.00    +0.144 HD
ATOM     11  H   UNL     1      35.517 -24.866 -12.728  0.00  0.00    +0.144 HD
ENDROOT
BRANCH   1  15
ATOM     12  N   UNL     1      28.445 -24.174 -15.271  0.00  0.00    -0.312 N 
ATOM     13  C   UNL     1      30.554 -23.656 -15.782  0.00  0.00    +0.016 C 
ATOM     14  C   UNL     1      29.756 -24.430 -14.936  0.00  0.00    +0.048 C 
ATOM     15  C   UNL     1      32.504 -24.575 -14.676  0.00  0.00    +0.050 C 
ATOM     16  C   UNL     1      31.955 -23.731 -15.647  0.00  0.00    +0.016 C 
ATOM     17  C   UNL     1      30.291 -25.279 -13.961  0.00  0.00    +0.016 C 
ATOM     18  C   UNL     1      31.683 -25.336 -13.846  0.00  0.00    +0.016 C 
ATOM     19  C   UNL     1      29.677 -22.928 -16.633  0.00  0.00    +0.017 C 
ATOM     20  C   UNL     1      28.388 -23.267 -16.295  0.00  0.00    +0.062 C 
ATOM     21  H   UNL     1      27.663 -24.583 -14.835  0.00  0.00    +0.152 HD
ENDBRANCH   1  15
BRANCH   6  23
ATOM     22  N   UNL     1      35.278 -20.952 -20.637  0.00  0.00    -0.242 NA
ATOM     23  C   UNL     1      35.644 -22.082 -18.106  0.00  0.00    +0.031 C 
ATOM     24  C   UNL     1      36.689 -21.404 -18.726  0.00  0.00    +0.023 C 
ATOM     25  C   UNL     1      34.418 -22.197 -18.751  0.00  0.00    +0.023 C 
ATOM     26  C   UNL     1      36.456 -20.862 -19.979  0.00  0.00    +0.099 C 
ATOM     27  C   UNL     1      34.287 -21.619 -20.004  0.00  0.00    +0.099 C 
ENDBRANCH   6  23
TORSDOF 2
ENDMDL
MODEL 5
REMARK VINA RESULT:      -9.9      1.800      6.748
REMARK  Name = 44177328
REMARK  2 active torsions:
REMARK  status: ('A' for Active; 'I' for Inactive)
REMARK    1  A    between atoms: N_1  and  C_15
REMARK    2  A    between atoms: C_6  and  C_23
REMARK                            x       y       z     vdW  Elec       q    Type
REMARK                         _______ _______ _______ _____ _____    ______ ____
ROOT
ATOM      1  N   UNL     1      34.481 -24.649 -13.804  0.00  0.00    -0.286 N 
ATOM      2  N   UNL     1      34.198 -23.613 -15.913  0.00  0.00    -0.386 NA
ATOM      3  N   UNL     1      31.454 -24.186 -15.802  0.00  0.00    -0.246 NA
ATOM      4  N   UNL     1      31.770 -25.217 -13.689  0.00  0.00    -0.340 N 
ATOM      5  C   UNL     1      33.645 -24.258 -14.866  0.00  0.00    +0.214 C 
ATOM      6  C   UNL     1      33.355 -23.260 -16.904  0.00  0.00    +0.135 C 
ATOM      7  C   UNL     1      32.298 -24.539 -14.811  0.00  0.00    +0.166 C 
ATOM      8  C   UNL     1      32.007 -23.542 -16.849  0.00  0.00    +0.185 C 
ATOM      9  H   UNL     1      34.027 -24.671 -12.931  0.00  0.00    +0.155 HD
ATOM     10  H   UNL     1      30.808 -25.421 -13.644  0.00  0.00    +0.144 HD
ATOM     11  H   UNL     1      32.365 -25.486 -12.952  0.00  0.00    +0.144 HD
ENDROOT
BRANCH   1  15
ATOM     12  N   UNL     1      39.849 -25.990 -13.809  0.00  0.00    -0.312 N 
ATOM     13  C   UNL     1      38.037 -25.112 -14.771  0.00  0.00    +0.016 C 
ATOM     14  C   UNL     1      38.508 -25.741 -13.616  0.00  0.00    +0.048 C 
ATOM     15  C   UNL     1      35.844 -25.017 -13.746  0.00  0.00    +0.050 C 
ATOM     16  C   UNL     1      36.678 -24.743 -14.836  0.00  0.00    +0.016 C 
ATOM     17  C   UNL     1      37.686 -26.018 -12.519  0.00  0.00    +0.016 C 
ATOM     18  C   UNL     1      36.342 -25.645 -12.606  0.00  0.00    +0.016 C 
ATOM     19  C   UNL     1      39.140 -24.994 -15.662  0.00  0.00    +0.017 C 
ATOM     20  C   UNL     1      40.239 -25.543 -15.043  0.00  0.00    +0.062 C 
ATOM     21  H   UNL     1      40.439 -26.428 -13.155  0.00  0.00    +0.152 HD
ENDBRANCH   1  15
BRANCH   6  23
ATOM     22  N   UNL     1      35.102 -21.244 -20.194  0.00  0.00    -0.242 NA
ATOM     23  C   UNL     1      33.949 -22.574 -18.023  0.00  0.00    +0.031 C 
ATOM     24  C   UNL     1      33.147 -22.087 -19.049  0.00  0.00    +0.023 C 
ATOM     25  C   UNL     1      35.327 -22.396 -18.081  0.00  0.00    +0.023 C 
ATOM     26  C   UNL     1      33.767 -21.435 -20.102  0.00  0.00    +0.099 C 
ATOM     27  C   UNL     1      35.850 -21.731 -19.178  0.00  0.00    +0.099 C 
ENDBRANCH   6  23
TORSDOF 2
ENDMDL
MODEL 6
REMARK VINA RESULT:      -9.9      1.585      4.094
REMARK  Name = 44177328
REMARK  2 active torsions:
REMARK  status: ('A' for Active; 'I' for Inactive)
REMARK    1  A    between atoms: N_1  and  C_15
REMARK    2  A    between atoms: C_6  and  C_23
REMARK                            x       y       z     vdW  Elec       q    Type
REMARK                         _______ _______ _______ _____ _____    ______ ____
ROOT
ATOM      1  N   UNL     1      36.562 -22.388 -17.102  0.00  0.00    -0.286 N 
ATOM      2  N   UNL     1      34.688 -23.243 -15.936  0.00  0.00    -0.386 NA
ATOM      3  N   UNL     1      36.376 -25.009 -14.559  0.00  0.00    -0.246 NA
ATOM      4  N   UNL     1      38.235 -24.132 -15.743  0.00  0.00    -0.340 N 
ATOM      5  C   UNL     1      36.017 -23.274 -16.153  0.00  0.00    +0.214 C 
ATOM      6  C   UNL     1      34.217 -24.110 -15.018  0.00  0.00    +0.135 C 
ATOM      7  C   UNL     1      36.847 -24.141 -15.477  0.00  0.00    +0.166 C 
ATOM      8  C   UNL     1      35.047 -24.978 -14.342  0.00  0.00    +0.185 C 
ATOM      9  H   UNL     1      37.487 -22.117 -16.904  0.00  0.00    +0.155 HD
ATOM     10  H   UNL     1      38.833 -24.750 -15.263  0.00  0.00    +0.144 HD
ATOM     11  H   UNL     1      38.604 -23.508 -16.409  0.00  0.00    +0.144 HD
ENDROOT
BRANCH   1  15
ATOM     12  N   UNL     1      34.733 -20.004 -21.747  0.00  0.00    -0.312 N 
ATOM     13  C   UNL     1      36.277 -20.308 -20.165  0.00  0.00    +0.016 C 
ATOM     14  C   UNL     1      35.005 -20.699 -20.590  0.00  0.00    +0.048 C 
ATOM     15  C   UNL     1      36.040 -21.813 -18.282  0.00  0.00    +0.050 C 
ATOM     16  C   UNL     1      36.803 -20.877 -18.988  0.00  0.00    +0.016 C 
ATOM     17  C   UNL     1      34.231 -21.634 -19.894  0.00  0.00    +0.016 C 
ATOM     18  C   UNL     1      34.774 -22.184 -18.729  0.00  0.00    +0.016 C 
ATOM     19  C   UNL     1      36.758 -19.356 -21.107  0.00  0.00    +0.017 C 
ATOM     20  C   UNL     1      35.786 -19.189 -22.067  0.00  0.00    +0.062 C 
ATOM     21  H   UNL     1      33.901 -20.081 -22.268  0.00  0.00    +0.152 HD
ENDBRANCH   1  15
BRANCH   6  23
ATOM     22  N   UNL     1      30.035 -24.013 -14.349  0.00  0.00    -0.242 NA
ATOM     23  C   UNL     1      32.795 -24.077 -14.790  0.00  0.00    +0.031 C 
ATOM     24  C   UNL     1      32.202 -25.005 -13.941  0.00  0.00    +0.023 C 
ATOM     25  C   UNL     1      32.010 -23.116 -15.418  0.00  0.00    +0.023 C 
ATOM     26  C   UNL     1      30.831 -24.931 -13.756  0.00  0.00    +0.099 C 
ATOM     27  C   UNL     1      30.647 -23.127 -15.167  0.00  0.00    +0.099 C 
ENDBRANCH   6  23
TORSDOF 2
ENDMDL
MODEL 7
REMARK VINA RESULT:      -9.8      8.385     13.042
REMARK  Name = 44177328
REMARK  2 active torsions:
REMARK  status: ('A' for Active; 'I' for Inactive)
REMARK    1  A    between atoms: N_1  and  C_15
REMARK    2  A    between atoms: C_6  and  C_23
REMARK                            x       y       z     vdW  Elec       q    Type
REMARK                         _______ _______ _______ _____ _____    ______ ____
ROOT
ATOM      1  N   UNL     1      33.928 -10.630 -25.281  0.00  0.00    -0.286 N 
ATOM      2  N   UNL     1      34.088 -12.748 -24.234  0.00  0.00    -0.386 NA
ATOM      3  N   UNL     1      33.419 -13.977 -26.665  0.00  0.00    -0.246 NA
ATOM      4  N   UNL     1      33.267 -11.841 -27.687  0.00  0.00    -0.340 N 
ATOM      5  C   UNL     1      33.842 -12.034 -25.351  0.00  0.00    +0.214 C 
ATOM      6  C   UNL     1      33.994 -14.087 -24.354  0.00  0.00    +0.135 C 
ATOM      7  C   UNL     1      33.514 -12.637 -26.545  0.00  0.00    +0.166 C 
ATOM      8  C   UNL     1      33.665 -14.690 -25.548  0.00  0.00    +0.185 C 
ATOM      9  H   UNL     1      34.201 -10.208 -26.127  0.00  0.00    +0.155 HD
ATOM     10  H   UNL     1      33.031 -12.267 -28.542  0.00  0.00    +0.144 HD
ATOM     11  H   UNL     1      33.329 -10.860 -27.625  0.00  0.00    +0.144 HD
ENDROOT
BRANCH   1  15
ATOM     12  N   UNL     1      32.839  -7.175 -21.100  0.00  0.00    -0.312 N 
ATOM     13  C   UNL     1      32.444  -9.029 -22.276  0.00  0.00    +0.016 C 
ATOM     14  C   UNL     1      33.262  -7.900 -22.192  0.00  0.00    +0.048 C 
ATOM     15  C   UNL     1      33.698  -9.710 -24.234  0.00  0.00    +0.050 C 
ATOM     16  C   UNL     1      32.667  -9.951 -23.319  0.00  0.00    +0.016 C 
ATOM     17  C   UNL     1      34.296  -7.648 -23.099  0.00  0.00    +0.016 C 
ATOM     18  C   UNL     1      34.498  -8.576 -24.125  0.00  0.00    +0.016 C 
ATOM     19  C   UNL     1      31.516  -8.955 -21.200  0.00  0.00    +0.017 C 
ATOM     20  C   UNL     1      31.784  -7.804 -20.495  0.00  0.00    +0.062 C 
ATOM     21  H   UNL     1      33.236  -6.326 -20.800  0.00  0.00    +0.152 HD
ENDBRANCH   1  15
BRANCH   6  23
ATOM     22  N   UNL     1      34.757 -16.321 -20.837  0.00  0.00    -0.242 NA
ATOM     23  C   UNL     1      34.254 -14.847 -23.158  0.00  0.00    +0.031 C 
ATOM     24  C   UNL     1      34.807 -16.119 -23.246  0.00  0.00    +0.023 C 
ATOM     25  C   UNL     1      33.953 -14.309 -21.911  0.00  0.00    +0.023 C 
ATOM     26  C   UNL     1      35.037 -16.809 -22.067  0.00  0.00    +0.099 C 
ATOM     27  C   UNL     1      34.221 -15.080 -20.791  0.00  0.00    +0.099 C 
ENDBRANCH   6  23
TORSDOF 2
ENDMDL
MODEL 8
REMARK VINA RESULT:      -9.6      8.009     13.410
REMARK  Name = 44177328
REMARK  2 active torsions:
REMARK  status: ('A' for Active; 'I' for Inactive)
REMARK    1  A    between atoms: N_1  and  C_15
REMARK    2  A    between atoms: C_6  and  C_23
REMARK                            x       y       z     vdW  Elec       q    Type
REMARK                         _______ _______ _______ _____ _____    ______ ____
ROOT
ATOM      1  N   UNL     1      33.620 -13.122 -25.043  0.00  0.00    -0.286 N 
ATOM      2  N   UNL     1      33.023 -11.282 -23.678  0.00  0.00    -0.386 NA
ATOM      3  N   UNL     1      33.480  -9.557 -25.842  0.00  0.00    -0.246 NA
ATOM      4  N   UNL     1      34.071 -11.420 -27.185  0.00  0.00    -0.340 N 
ATOM      5  C   UNL     1      33.427 -11.738 -24.881  0.00  0.00    +0.214 C 
ATOM      6  C   UNL     1      32.853  -9.950 -23.576  0.00  0.00    +0.135 C 
ATOM      7  C   UNL     1      33.650 -10.891 -25.944  0.00  0.00    +0.166 C 
ATOM      8  C   UNL     1      33.077  -9.102 -24.639  0.00  0.00    +0.185 C 
ATOM      9  H   UNL     1      33.452 -13.441 -25.959  0.00  0.00    +0.155 HD
ATOM     10  H   UNL     1      34.233 -10.820 -27.948  0.00  0.00    +0.144 HD
ATOM     11  H   UNL     1      34.204 -12.391 -27.286  0.00  0.00    +0.144 HD
ENDROOT
BRANCH   1  15
ATOM     12  N   UNL     1      35.160 -17.281 -21.735  0.00  0.00    -0.312 N 
ATOM     13  C   UNL     1      34.664 -16.440 -23.742  0.00  0.00    +0.016 C 
ATOM     14  C   UNL     1      34.770 -16.130 -22.384  0.00  0.00    +0.048 C 
ATOM     15  C   UNL     1      34.009 -14.144 -24.148  0.00  0.00    +0.050 C 
ATOM     16  C   UNL     1      34.276 -15.426 -24.640  0.00  0.00    +0.016 C 
ATOM     17  C   UNL     1      34.508 -14.853 -21.879  0.00  0.00    +0.016 C 
ATOM     18  C   UNL     1      34.123 -13.863 -22.788  0.00  0.00    +0.016 C 
ATOM     19  C   UNL     1      35.003 -17.815 -23.884  0.00  0.00    +0.017 C 
ATOM     20  C   UNL     1      35.302 -18.304 -22.634  0.00  0.00    +0.062 C 
ATOM     21  H   UNL     1      35.312 -17.356 -20.766  0.00  0.00    +0.152 HD
ENDBRANCH   1  15
BRANCH   6  23
ATOM     22  N   UNL     1      31.597  -8.525 -19.790  0.00  0.00    -0.242 NA
ATOM     23  C   UNL     1      32.425  -9.466 -22.288  0.00  0.00    +0.031 C 
ATOM     24  C   UNL     1      31.588 -10.240 -21.494  0.00  0.00    +0.023 C 
ATOM     25  C   UNL     1      32.850  -8.221 -21.834  0.00  0.00    +0.023 C 
ATOM     26  C   UNL     1      31.205  -9.730 -20.264  0.00  0.00    +0.099 C 
ATOM     27  C   UNL     1      32.411  -7.801 -20.589  0.00  0.00    +0.099 C 
ENDBRANCH   6  23
TORSDOF 2
ENDMDL
MODEL 9
REMARK VINA RESULT:      -9.5     10.032     13.541
REMARK  Name = 44177328
REMARK  2 active torsions:
REMARK  status: ('A' for Active; 'I' for Inactive)
REMARK    1  A    between atoms: N_1  and  C_15
REMARK    2  A    between atoms: C_6  and  C_23
REMARK                            x       y       z     vdW  Elec       q    Type
REMARK                         _______ _______ _______ _____ _____    ______ ____
ROOT
ATOM      1  N   UNL     1      31.882  -9.734 -22.620  0.00  0.00    -0.286 N 
ATOM      2  N   UNL     1      32.615 -11.957 -22.972  0.00  0.00    -0.386 NA
ATOM      3  N   UNL     1      31.547 -12.681 -20.482  0.00  0.00    -0.246 NA
ATOM      4  N   UNL     1      30.822 -10.445 -20.159  0.00  0.00    -0.340 N 
ATOM      5  C   UNL     1      31.993 -11.065 -22.176  0.00  0.00    +0.214 C 
ATOM      6  C   UNL     1      32.695 -13.218 -22.501  0.00  0.00    +0.135 C 
ATOM      7  C   UNL     1      31.467 -11.420 -20.953  0.00  0.00    +0.166 C 
ATOM      8  C   UNL     1      32.170 -13.573 -21.277  0.00  0.00    +0.185 C 
ATOM      9  H   UNL     1      31.081  -9.271 -22.285  0.00  0.00    +0.155 HD
ATOM     10  H   UNL     1      30.445 -10.694 -19.284  0.00  0.00    +0.144 HD
ATOM     11  H   UNL     1      30.751  -9.518 -20.480  0.00  0.00    +0.144 HD
ENDROOT
BRANCH   1  15
ATOM     12  N   UNL     1      34.952  -6.394 -25.787  0.00  0.00    -0.312 N 
ATOM     13  C   UNL     1      33.352  -6.751 -24.273  0.00  0.00    +0.016 C 
ATOM     14  C   UNL     1      34.297  -7.382 -25.085  0.00  0.00    +0.048 C 
ATOM     15  C   UNL     1      32.696  -8.934 -23.452  0.00  0.00    +0.050 C 
ATOM     16  C   UNL     1      32.536  -7.544 -23.441  0.00  0.00    +0.016 C 
ATOM     17  C   UNL     1      34.469  -8.770 -25.105  0.00  0.00    +0.016 C 
ATOM     18  C   UNL     1      33.647  -9.536 -24.272  0.00  0.00    +0.016 C 
ATOM     19  C   UNL     1      33.462  -5.353 -24.513  0.00  0.00    +0.017 C 
ATOM     20  C   UNL     1      34.454  -5.165 -25.448  0.00  0.00    +0.062 C 
ATOM     21  H   UNL     1      35.672  -6.551 -26.439  0.00  0.00    +0.152 HD
ENDBRANCH   1  15
BRANCH   6  23
ATOM     22  N   UNL     1      34.664 -16.013 -25.001  0.00  0.00    -0.242 NA
ATOM     23  C   UNL     1      33.364 -14.168 -23.352  0.00  0.00    +0.031 C 
ATOM     24  C   UNL     1      33.041 -14.246 -24.702  0.00  0.00    +0.023 C 
ATOM     25  C   UNL     1      34.337 -15.011 -22.825  0.00  0.00    +0.023 C 
ATOM     26  C   UNL     1      33.714 -15.176 -25.477  0.00  0.00    +0.099 C 
ATOM     27  C   UNL     1      34.952 -15.908 -23.684  0.00  0.00    +0.099 C 
ENDBRANCH   6  23
TORSDOF 2
ENDMDL
