MODEL 1
REMARK VINA RESULT:     -11.5      0.000      0.000
REMARK  Name = 6420159
REMARK  9 active torsions:
REMARK  status: ('A' for Active; 'I' for Inactive)
REMARK    1  A    between atoms: C_1  and  N_3
REMARK    2  A    between atoms: C_1  and  C_15
REMARK    3  A    between atoms: C_1  and  C_29
REMARK    4  A    between atoms: N_14  and  C_17
REMARK    5  A    between atoms: C_17  and  C_18
REMARK    6  A    between atoms: C_18  and  N_19
REMARK    7  A    between atoms: N_19  and  C_21
REMARK    8  A    between atoms: C_26  and  O_27
REMARK    9  A    between atoms: C_29  and  C_30
REMARK                            x       y       z     vdW  Elec       q    Type
REMARK                         _______ _______ _______ _____ _____    ______ ____
ROOT
ATOM      1  C   UNL     1      33.102 -23.471 -17.291  0.00  0.00    +0.151 C 
ENDROOT
BRANCH   1   3
ATOM      2  O   UNL     1      35.523 -23.024 -14.574  0.00  0.00    -0.414 OA
ATOM      3  N   UNL     1      33.930 -22.944 -16.227  0.00  0.00    -0.271 N 
ATOM      4  N   UNL     1      35.128 -24.959 -15.686  0.00  0.00    -0.356 NA
ATOM      5  C   UNL     1      34.852 -23.703 -15.528  0.00  0.00    +0.345 C 
ATOM      6  C   UNL     1      36.343 -23.983 -14.053  0.00  0.00    +0.175 C 
ATOM      7  C   UNL     1      36.099 -25.166 -14.736  0.00  0.00    +0.152 C 
ATOM      8  C   UNL     1      37.267 -23.839 -13.026  0.00  0.00    +0.040 C 
ATOM      9  C   UNL     1      36.823 -26.313 -14.384  0.00  0.00    +0.088 C 
ATOM     10  C   UNL     1      37.982 -24.993 -12.687  0.00  0.00    -0.001 C 
ATOM     11  C   UNL     1      37.766 -26.207 -13.351  0.00  0.00    -0.018 C 
ATOM     12  H   UNL     1      33.833 -21.994 -15.989  0.00  0.00    +0.153 HD
ENDBRANCH   1   3
BRANCH   1  15
ATOM     13  O   UNL     1      33.684 -23.966 -19.590  0.00  0.00    -0.273 OA
ATOM     14  N   UNL     1      34.576 -22.069 -18.599  0.00  0.00    -0.301 N 
ATOM     15  C   UNL     1      33.800 -23.218 -18.621  0.00  0.00    +0.240 C 
ATOM     16  H   UNL     1      34.608 -21.531 -17.776  0.00  0.00    +0.150 HD
BRANCH  14  17
ATOM     17  C   UNL     1      35.339 -21.637 -19.745  0.00  0.00    +0.111 C 
BRANCH  17  18
ATOM     18  C   UNL     1      34.554 -20.684 -20.633  0.00  0.00    +0.109 C 
BRANCH  18  19
ATOM     19  N   UNL     1      35.404 -19.613 -21.097  0.00  0.00    -0.331 N 
ATOM     20  H   UNL     1      36.240 -19.438 -20.608  0.00  0.00    +0.147 HD
BRANCH  19  21
ATOM     21  C   UNL     1      35.109 -18.817 -22.193  0.00  0.00    +0.045 C 
ATOM     22  C   UNL     1      34.588 -19.377 -23.374  0.00  0.00    +0.017 C 
ATOM     23  C   UNL     1      35.323 -17.427 -22.154  0.00  0.00    +0.017 C 
ATOM     24  C   UNL     1      34.292 -18.576 -24.477  0.00  0.00    +0.038 C 
ATOM     25  C   UNL     1      35.028 -16.626 -23.257  0.00  0.00    +0.038 C 
ATOM     26  C   UNL     1      34.513 -17.200 -24.418  0.00  0.00    +0.139 C 
BRANCH  26  27
ATOM     27  O   UNL     1      34.223 -16.417 -25.493  0.00  0.00    -0.471 OA
ATOM     28  C   UNL     1      33.623 -15.150 -25.232  0.00  0.00    +0.252 C 
ENDBRANCH  26  27
ENDBRANCH  19  21
ENDBRANCH  18  19
ENDBRANCH  17  18
ENDBRANCH  14  17
ENDBRANCH   1  15
BRANCH   1  29
ATOM     29  C   UNL     1      31.730 -22.795 -17.282  0.00  0.00    +0.029 C 
BRANCH  29  30
ATOM     30  C   UNL     1      30.838 -23.300 -16.150  0.00  0.00    +0.002 C 
ATOM     31  C   UNL     1      31.239 -24.721 -15.735  0.00  0.00    +0.000 C 
ATOM     32  C   UNL     1      29.359 -23.248 -16.559  0.00  0.00    +0.000 C 
ATOM     33  C   UNL     1      30.327 -25.268 -14.639  0.00  0.00    +0.000 C 
ATOM     34  C   UNL     1      28.450 -23.797 -15.463  0.00  0.00    +0.000 C 
ATOM     35  C   UNL     1      28.859 -25.207 -15.047  0.00  0.00    +0.000 C 
ENDBRANCH  29  30
ENDBRANCH   1  29
TORSDOF 9
ENDMDL
MODEL 2
REMARK VINA RESULT:     -10.9      1.393      5.039
REMARK  Name = 6420159
REMARK  9 active torsions:
REMARK  status: ('A' for Active; 'I' for Inactive)
REMARK    1  A    between atoms: C_1  and  N_3
REMARK    2  A    between atoms: C_1  and  C_15
REMARK    3  A    between atoms: C_1  and  C_29
REMARK    4  A    between atoms: N_14  and  C_17
REMARK    5  A    between atoms: C_17  and  C_18
REMARK    6  A    between atoms: C_18  and  N_19
REMARK    7  A    between atoms: N_19  and  C_21
REMARK    8  A    between atoms: C_26  and  O_27
REMARK    9  A    between atoms: C_29  and  C_30
REMARK                            x       y       z     vdW  Elec       q    Type
REMARK                         _______ _______ _______ _____ _____    ______ ____
ROOT
ATOM      1  C   UNL     1      35.417 -22.725 -16.347  0.00  0.00    +0.151 C 
ENDROOT
BRANCH   1   3
ATOM      2  O   UNL     1      31.939 -23.748 -16.893  0.00  0.00    -0.414 OA
ATOM      3  N   UNL     1      34.121 -23.031 -16.914  0.00  0.00    -0.271 N 
ATOM      4  N   UNL     1      33.036 -23.801 -14.909  0.00  0.00    -0.356 NA
ATOM      5  C   UNL     1      33.061 -23.530 -16.176  0.00  0.00    +0.345 C 
ATOM      6  C   UNL     1      31.076 -24.225 -15.948  0.00  0.00    +0.175 C 
ATOM      7  C   UNL     1      31.751 -24.256 -14.736  0.00  0.00    +0.152 C 
ATOM      8  C   UNL     1      29.756 -24.618 -16.129  0.00  0.00    +0.040 C 
ATOM      9  C   UNL     1      31.075 -24.713 -13.596  0.00  0.00    +0.088 C 
ATOM     10  C   UNL     1      29.096 -25.071 -14.982  0.00  0.00    -0.001 C 
ATOM     11  C   UNL     1      29.740 -25.119 -13.739  0.00  0.00    -0.018 C 
ATOM     12  H   UNL     1      33.986 -22.876 -17.876  0.00  0.00    +0.153 HD
ENDBRANCH   1   3
BRANCH   1  15
ATOM     13  O   UNL     1      37.230 -21.297 -17.081  0.00  0.00    -0.273 OA
ATOM     14  N   UNL     1      35.678 -22.017 -18.644  0.00  0.00    -0.301 N 
ATOM     15  C   UNL     1      36.221 -21.936 -17.371  0.00  0.00    +0.240 C 
ATOM     16  H   UNL     1      34.865 -22.555 -18.783  0.00  0.00    +0.150 HD
BRANCH  14  17
ATOM     17  C   UNL     1      36.266 -21.337 -19.774  0.00  0.00    +0.111 C 
BRANCH  17  18
ATOM     18  C   UNL     1      35.223 -20.642 -20.634  0.00  0.00    +0.109 C 
BRANCH  18  19
ATOM     19  N   UNL     1      35.688 -19.334 -21.032  0.00  0.00    -0.331 N 
ATOM     20  H   UNL     1      36.361 -18.889 -20.467  0.00  0.00    +0.147 HD
BRANCH  19  21
ATOM     21  C   UNL     1      35.241 -18.669 -22.163  0.00  0.00    +0.045 C 
ATOM     22  C   UNL     1      35.375 -17.273 -22.280  0.00  0.00    +0.017 C 
ATOM     23  C   UNL     1      34.638 -19.372 -23.223  0.00  0.00    +0.017 C 
ATOM     24  C   UNL     1      34.924 -16.604 -23.418  0.00  0.00    +0.038 C 
ATOM     25  C   UNL     1      34.187 -18.702 -24.360  0.00  0.00    +0.038 C 
ATOM     26  C   UNL     1      34.329 -17.318 -24.457  0.00  0.00    +0.139 C 
BRANCH  26  27
ATOM     27  O   UNL     1      33.890 -16.666 -25.568  0.00  0.00    -0.471 OA
ATOM     28  C   UNL     1      33.587 -15.279 -25.430  0.00  0.00    +0.252 C 
ENDBRANCH  26  27
ENDBRANCH  19  21
ENDBRANCH  18  19
ENDBRANCH  17  18
ENDBRANCH  14  17
ENDBRANCH   1  15
BRANCH   1  29
ATOM     29  C   UNL     1      36.155 -24.014 -15.980  0.00  0.00    +0.029 C 
BRANCH  29  30
ATOM     30  C   UNL     1      37.057 -23.844 -14.760  0.00  0.00    +0.002 C 
ATOM     31  C   UNL     1      37.736 -25.172 -14.398  0.00  0.00    +0.000 C 
ATOM     32  C   UNL     1      36.260 -23.296 -13.568  0.00  0.00    +0.000 C 
ATOM     33  C   UNL     1      38.603 -25.040 -13.148  0.00  0.00    +0.000 C 
ATOM     34  C   UNL     1      37.128 -23.168 -12.320  0.00  0.00    +0.000 C 
ATOM     35  C   UNL     1      37.809 -24.488 -11.968  0.00  0.00    +0.000 C 
ENDBRANCH  29  30
ENDBRANCH   1  29
TORSDOF 9
ENDMDL
MODEL 3
REMARK VINA RESULT:     -10.4      8.606     12.825
REMARK  Name = 6420159
REMARK  9 active torsions:
REMARK  status: ('A' for Active; 'I' for Inactive)
REMARK    1  A    between atoms: C_1  and  N_3
REMARK    2  A    between atoms: C_1  and  C_15
REMARK    3  A    between atoms: C_1  and  C_29
REMARK    4  A    between atoms: N_14  and  C_17
REMARK    5  A    between atoms: C_17  and  C_18
REMARK    6  A    between atoms: C_18  and  N_19
REMARK    7  A    between atoms: N_19  and  C_21
REMARK    8  A    between atoms: C_26  and  O_27
REMARK    9  A    between atoms: C_29  and  C_30
REMARK                            x       y       z     vdW  Elec       q    Type
REMARK                         _______ _______ _______ _____ _____    ______ ____
ROOT
ATOM      1  C   UNL     1      33.048 -12.920 -25.217  0.00  0.00    +0.151 C 
ENDROOT
BRANCH   1   3
ATOM      2  O   UNL     1      33.412 -16.552 -25.562  0.00  0.00    -0.414 OA
ATOM      3  N   UNL     1      32.991 -14.297 -25.663  0.00  0.00    -0.271 N 
ATOM      4  N   UNL     1      34.255 -15.294 -23.874  0.00  0.00    -0.356 NA
ATOM      5  C   UNL     1      33.580 -15.346 -24.980  0.00  0.00    +0.345 C 
ATOM      6  C   UNL     1      34.073 -17.386 -24.705  0.00  0.00    +0.175 C 
ATOM      7  C   UNL     1      34.587 -16.613 -23.674  0.00  0.00    +0.152 C 
ATOM      8  C   UNL     1      34.225 -18.762 -24.813  0.00  0.00    +0.040 C 
ATOM      9  C   UNL     1      35.316 -17.241 -22.655  0.00  0.00    +0.088 C 
ATOM     10  C   UNL     1      34.955 -19.374 -23.788  0.00  0.00    -0.001 C 
ATOM     11  C   UNL     1      35.490 -18.630 -22.729  0.00  0.00    -0.018 C 
ATOM     12  H   UNL     1      32.509 -14.496 -26.497  0.00  0.00    +0.153 HD
ENDBRANCH   1   3
BRANCH   1  15
ATOM     13  O   UNL     1      34.152 -12.438 -27.319  0.00  0.00    -0.273 OA
ATOM     14  N   UNL     1      34.638 -11.117 -25.476  0.00  0.00    -0.301 N 
ATOM     15  C   UNL     1      33.989 -12.151 -26.134  0.00  0.00    +0.240 C 
ATOM     16  H   UNL     1      34.444 -10.961 -24.524  0.00  0.00    +0.150 HD
BRANCH  14  17
ATOM     17  C   UNL     1      35.587 -10.259 -26.144  0.00  0.00    +0.111 C 
BRANCH  17  18
ATOM     18  C   UNL     1      35.196  -8.792 -26.060  0.00  0.00    +0.109 C 
BRANCH  18  19
ATOM     19  N   UNL     1      34.539  -8.517 -24.805  0.00  0.00    -0.331 N 
ATOM     20  H   UNL     1      34.818  -9.029 -24.011  0.00  0.00    +0.147 HD
BRANCH  19  21
ATOM     21  C   UNL     1      33.535  -7.573 -24.653  0.00  0.00    +0.045 C 
ATOM     22  C   UNL     1      33.768  -6.379 -23.945  0.00  0.00    +0.017 C 
ATOM     23  C   UNL     1      32.256  -7.784 -25.199  0.00  0.00    +0.017 C 
ATOM     24  C   UNL     1      32.757  -5.430 -23.791  0.00  0.00    +0.038 C 
ATOM     25  C   UNL     1      31.245  -6.835 -25.045  0.00  0.00    +0.038 C 
ATOM     26  C   UNL     1      31.496  -5.658 -24.340  0.00  0.00    +0.139 C 
BRANCH  26  27
ATOM     27  O   UNL     1      30.510  -4.732 -24.191  0.00  0.00    -0.471 OA
ATOM     28  C   UNL     1      30.871  -3.363 -24.371  0.00  0.00    +0.252 C 
ENDBRANCH  26  27
ENDBRANCH  19  21
ENDBRANCH  18  19
ENDBRANCH  17  18
ENDBRANCH  14  17
ENDBRANCH   1  15
BRANCH   1  29
ATOM     29  C   UNL     1      33.546 -12.848 -23.773  0.00  0.00    +0.029 C 
BRANCH  29  30
ATOM     30  C   UNL     1      32.424 -12.548 -22.782  0.00  0.00    +0.002 C 
ATOM     31  C   UNL     1      32.287 -11.036 -22.559  0.00  0.00    +0.000 C 
ATOM     32  C   UNL     1      32.665 -13.275 -21.452  0.00  0.00    +0.000 C 
ATOM     33  C   UNL     1      31.205 -10.712 -21.531  0.00  0.00    +0.000 C 
ATOM     34  C   UNL     1      31.584 -12.948 -20.425  0.00  0.00    +0.000 C 
ATOM     35  C   UNL     1      31.445 -11.443 -20.214  0.00  0.00    +0.000 C 
ENDBRANCH  29  30
ENDBRANCH   1  29
TORSDOF 9
ENDMDL
MODEL 4
REMARK VINA RESULT:     -10.2      4.866     13.006
REMARK  Name = 6420159
REMARK  9 active torsions:
REMARK  status: ('A' for Active; 'I' for Inactive)
REMARK    1  A    between atoms: C_1  and  N_3
REMARK    2  A    between atoms: C_1  and  C_15
REMARK    3  A    between atoms: C_1  and  C_29
REMARK    4  A    between atoms: N_14  and  C_17
REMARK    5  A    between atoms: C_17  and  C_18
REMARK    6  A    between atoms: C_18  and  N_19
REMARK    7  A    between atoms: N_19  and  C_21
REMARK    8  A    between atoms: C_26  and  O_27
REMARK    9  A    between atoms: C_29  and  C_30
REMARK                            x       y       z     vdW  Elec       q    Type
REMARK                         _______ _______ _______ _____ _____    ______ ____
ROOT
ATOM      1  C   UNL     1      32.562 -13.009 -21.974  0.00  0.00    +0.151 C 
ENDROOT
BRANCH   1   3
ATOM      2  O   UNL     1      33.442 -12.892 -25.531  0.00  0.00    -0.414 OA
ATOM      3  N   UNL     1      32.727 -13.288 -23.385  0.00  0.00    -0.271 N 
ATOM      4  N   UNL     1      33.975 -11.321 -23.985  0.00  0.00    -0.356 NA
ATOM      5  C   UNL     1      33.400 -12.450 -24.256  0.00  0.00    +0.345 C 
ATOM      6  C   UNL     1      34.144 -11.904 -26.160  0.00  0.00    +0.175 C 
ATOM      7  C   UNL     1      34.469 -10.945 -25.212  0.00  0.00    +0.152 C 
ATOM      8  C   UNL     1      34.490 -11.836 -27.504  0.00  0.00    +0.040 C 
ATOM      9  C   UNL     1      35.198  -9.816 -25.611  0.00  0.00    +0.088 C 
ATOM     10  C   UNL     1      35.217 -10.704 -27.887  0.00  0.00    -0.001 C 
ATOM     11  C   UNL     1      35.565  -9.712 -26.961  0.00  0.00    -0.018 C 
ATOM     12  H   UNL     1      32.340 -14.119 -23.743  0.00  0.00    +0.153 HD
ENDBRANCH   1   3
BRANCH   1  15
ATOM     13  O   UNL     1      32.384 -14.590 -20.147  0.00  0.00    -0.273 OA
ATOM     14  N   UNL     1      34.012 -14.933 -21.762  0.00  0.00    -0.301 N 
ATOM     15  C   UNL     1      32.951 -14.252 -21.184  0.00  0.00    +0.240 C 
ATOM     16  H   UNL     1      34.403 -14.587 -22.596  0.00  0.00    +0.150 HD
BRANCH  14  17
ATOM     17  C   UNL     1      34.559 -16.135 -21.180  0.00  0.00    +0.111 C 
BRANCH  17  18
ATOM     18  C   UNL     1      35.315 -16.975 -22.198  0.00  0.00    +0.109 C 
BRANCH  18  19
ATOM     19  N   UNL     1      34.625 -18.219 -22.438  0.00  0.00    -0.331 N 
ATOM     20  H   UNL     1      34.101 -18.308 -23.267  0.00  0.00    +0.147 HD
BRANCH  19  21
ATOM     21  C   UNL     1      34.657 -19.298 -21.567  0.00  0.00    +0.045 C 
ATOM     22  C   UNL     1      35.880 -19.800 -21.085  0.00  0.00    +0.017 C 
ATOM     23  C   UNL     1      33.468 -19.919 -21.144  0.00  0.00    +0.017 C 
ATOM     24  C   UNL     1      35.912 -20.886 -20.210  0.00  0.00    +0.038 C 
ATOM     25  C   UNL     1      33.500 -21.006 -20.269  0.00  0.00    +0.038 C 
ATOM     26  C   UNL     1      34.722 -21.489 -19.803  0.00  0.00    +0.139 C 
BRANCH  26  27
ATOM     27  O   UNL     1      34.752 -22.548 -18.948  0.00  0.00    -0.471 OA
ATOM     28  C   UNL     1      33.511 -22.960 -18.379  0.00  0.00    +0.252 C 
ENDBRANCH  26  27
ENDBRANCH  19  21
ENDBRANCH  18  19
ENDBRANCH  17  18
ENDBRANCH  14  17
ENDBRANCH   1  15
BRANCH   1  29
ATOM     29  C   UNL     1      31.111 -12.629 -21.672  0.00  0.00    +0.029 C 
BRANCH  29  30
ATOM     30  C   UNL     1      30.977 -11.197 -21.161  0.00  0.00    +0.002 C 
ATOM     31  C   UNL     1      31.588 -10.204 -22.158  0.00  0.00    +0.000 C 
ATOM     32  C   UNL     1      31.627 -11.051 -19.778  0.00  0.00    +0.000 C 
ATOM     33  C   UNL     1      31.513  -8.768 -21.644  0.00  0.00    +0.000 C 
ATOM     34  C   UNL     1      31.553  -9.614 -19.268  0.00  0.00    +0.000 C 
ATOM     35  C   UNL     1      32.153  -8.630 -20.267  0.00  0.00    +0.000 C 
ENDBRANCH  29  30
ENDBRANCH   1  29
TORSDOF 9
ENDMDL
MODEL 5
REMARK VINA RESULT:     -10.2      8.858     15.883
REMARK  Name = 6420159
REMARK  9 active torsions:
REMARK  status: ('A' for Active; 'I' for Inactive)
REMARK    1  A    between atoms: C_1  and  N_3
REMARK    2  A    between atoms: C_1  and  C_15
REMARK    3  A    between atoms: C_1  and  C_29
REMARK    4  A    between atoms: N_14  and  C_17
REMARK    5  A    between atoms: C_17  and  C_18
REMARK    6  A    between atoms: C_18  and  N_19
REMARK    7  A    between atoms: N_19  and  C_21
REMARK    8  A    between atoms: C_26  and  O_27
REMARK    9  A    between atoms: C_29  and  C_30
REMARK                            x       y       z     vdW  Elec       q    Type
REMARK                         _______ _______ _______ _____ _____    ______ ____
ROOT
ATOM      1  C   UNL     1      34.050  -7.492 -24.729  0.00  0.00    +0.151 C 
ENDROOT
BRANCH   1   3
ATOM      2  O   UNL     1      32.705  -7.876 -21.340  0.00  0.00    -0.414 OA
ATOM      3  N   UNL     1      33.694  -7.319 -23.336  0.00  0.00    -0.271 N 
ATOM      4  N   UNL     1      32.405  -9.330 -23.053  0.00  0.00    -0.356 NA
ATOM      5  C   UNL     1      32.923  -8.222 -22.626  0.00  0.00    +0.345 C 
ATOM      6  C   UNL     1      31.940  -8.911 -20.883  0.00  0.00    +0.175 C 
ATOM      7  C   UNL     1      31.758  -9.799 -21.934  0.00  0.00    +0.152 C 
ATOM      8  C   UNL     1      31.419  -9.080 -19.607  0.00  0.00    +0.040 C 
ATOM      9  C   UNL     1      30.999 -10.957 -21.719  0.00  0.00    +0.088 C 
ATOM     10  C   UNL     1      30.664 -10.240 -19.408  0.00  0.00    -0.001 C 
ATOM     11  C   UNL     1      30.457 -11.162 -20.442  0.00  0.00    -0.018 C 
ATOM     12  H   UNL     1      34.018  -6.515 -22.870  0.00  0.00    +0.153 HD
ENDBRANCH   1   3
BRANCH   1  15
ATOM     13  O   UNL     1      35.860  -9.049 -24.325  0.00  0.00    -0.273 OA
ATOM     14  N   UNL     1      34.123  -9.698 -25.717  0.00  0.00    -0.301 N 
ATOM     15  C   UNL     1      34.789  -8.814 -24.880  0.00  0.00    +0.240 C 
ATOM     16  H   UNL     1      33.268  -9.422 -26.118  0.00  0.00    +0.150 HD
BRANCH  14  17
ATOM     17  C   UNL     1      34.644 -11.010 -26.017  0.00  0.00    +0.111 C 
BRANCH  17  18
ATOM     18  C   UNL     1      33.666 -12.115 -25.650  0.00  0.00    +0.109 C 
BRANCH  18  19
ATOM     19  N   UNL     1      33.547 -12.227 -24.216  0.00  0.00    -0.331 N 
ATOM     20  H   UNL     1      33.201 -11.452 -23.716  0.00  0.00    +0.147 HD
BRANCH  19  21
ATOM     21  C   UNL     1      33.893 -13.363 -23.501  0.00  0.00    +0.045 C 
ATOM     22  C   UNL     1      34.367 -14.513 -24.158  0.00  0.00    +0.017 C 
ATOM     23  C   UNL     1      33.777 -13.397 -22.099  0.00  0.00    +0.017 C 
ATOM     24  C   UNL     1      34.714 -15.657 -23.439  0.00  0.00    +0.038 C 
ATOM     25  C   UNL     1      34.123 -14.541 -21.380  0.00  0.00    +0.038 C 
ATOM     26  C   UNL     1      34.591 -15.671 -22.049  0.00  0.00    +0.139 C 
BRANCH  26  27
ATOM     27  O   UNL     1      34.931 -16.786 -21.347  0.00  0.00    -0.471 OA
ATOM     28  C   UNL     1      35.375 -17.916 -22.096  0.00  0.00    +0.252 C 
ENDBRANCH  26  27
ENDBRANCH  19  21
ENDBRANCH  18  19
ENDBRANCH  17  18
ENDBRANCH  14  17
ENDBRANCH   1  15
BRANCH   1  29
ATOM     29  C   UNL     1      34.937  -6.338 -25.199  0.00  0.00    +0.029 C 
BRANCH  29  30
ATOM     30  C   UNL     1      34.132  -5.089 -25.552  0.00  0.00    +0.002 C 
ATOM     31  C   UNL     1      32.680  -5.455 -25.886  0.00  0.00    +0.000 C 
ATOM     32  C   UNL     1      34.786  -4.333 -26.717  0.00  0.00    +0.000 C 
ATOM     33  C   UNL     1      31.868  -4.228 -26.293  0.00  0.00    +0.000 C 
ATOM     34  C   UNL     1      33.970  -3.109 -27.124  0.00  0.00    +0.000 C 
ATOM     35  C   UNL     1      32.525  -3.476 -27.446  0.00  0.00    +0.000 C 
ENDBRANCH  29  30
ENDBRANCH   1  29
TORSDOF 9
ENDMDL
MODEL 6
REMARK VINA RESULT:     -10.1      9.910     16.091
REMARK  Name = 6420159
REMARK  9 active torsions:
REMARK  status: ('A' for Active; 'I' for Inactive)
REMARK    1  A    between atoms: C_1  and  N_3
REMARK    2  A    between atoms: C_1  and  C_15
REMARK    3  A    between atoms: C_1  and  C_29
REMARK    4  A    between atoms: N_14  and  C_17
REMARK    5  A    between atoms: C_17  and  C_18
REMARK    6  A    between atoms: C_18  and  N_19
REMARK    7  A    between atoms: N_19  and  C_21
REMARK    8  A    between atoms: C_26  and  O_27
REMARK    9  A    between atoms: C_29  and  C_30
REMARK                            x       y       z     vdW  Elec       q    Type
REMARK                         _______ _______ _______ _____ _____    ______ ____
ROOT
ATOM      1  C   UNL     1      33.127  -7.427 -22.371  0.00  0.00    +0.151 C 
ENDROOT
BRANCH   1   3
ATOM      2  O   UNL     1      32.491  -9.692 -25.183  0.00  0.00    -0.414 OA
ATOM      3  N   UNL     1      32.521  -8.270 -23.380  0.00  0.00    -0.271 N 
ATOM      4  N   UNL     1      34.531  -8.983 -24.492  0.00  0.00    -0.356 NA
ATOM      5  C   UNL     1      33.245  -8.963 -24.334  0.00  0.00    +0.345 C 
ATOM      6  C   UNL     1      33.431 -10.257 -25.998  0.00  0.00    +0.175 C 
ATOM      7  C   UNL     1      34.678  -9.821 -25.572  0.00  0.00    +0.152 C 
ATOM      8  C   UNL     1      33.216 -11.117 -27.067  0.00  0.00    +0.040 C 
ATOM      9  C   UNL     1      35.820 -10.266 -26.253  0.00  0.00    +0.088 C 
ATOM     10  C   UNL     1      34.366 -11.551 -27.736  0.00  0.00    -0.001 C 
ATOM     11  C   UNL     1      35.643 -11.135 -27.339  0.00  0.00    -0.018 C 
ATOM     12  H   UNL     1      31.540  -8.355 -23.387  0.00  0.00    +0.153 HD
ENDBRANCH   1   3
BRANCH   1  15
ATOM     13  O   UNL     1      32.967  -7.325 -19.956  0.00  0.00    -0.273 OA
ATOM     14  N   UNL     1      31.858  -9.027 -21.074  0.00  0.00    -0.301 N 
ATOM     15  C   UNL     1      32.655  -7.895 -21.000  0.00  0.00    +0.240 C 
ATOM     16  H   UNL     1      31.661  -9.414 -21.957  0.00  0.00    +0.150 HD
BRANCH  14  17
ATOM     17  C   UNL     1      31.306  -9.654 -19.898  0.00  0.00    +0.111 C 
BRANCH  17  18
ATOM     18  C   UNL     1      31.584 -11.149 -19.859  0.00  0.00    +0.109 C 
BRANCH  18  19
ATOM     19  N   UNL     1      31.399 -11.730 -21.168  0.00  0.00    -0.331 N 
ATOM     20  H   UNL     1      30.579 -11.505 -21.664  0.00  0.00    +0.147 HD
BRANCH  19  21
ATOM     21  C   UNL     1      32.309 -12.588 -21.765  0.00  0.00    +0.045 C 
ATOM     22  C   UNL     1      32.846 -13.678 -21.056  0.00  0.00    +0.017 C 
ATOM     23  C   UNL     1      32.723 -12.390 -23.095  0.00  0.00    +0.017 C 
ATOM     24  C   UNL     1      33.764 -14.540 -21.656  0.00  0.00    +0.038 C 
ATOM     25  C   UNL     1      33.640 -13.252 -23.695  0.00  0.00    +0.038 C 
ATOM     26  C   UNL     1      34.161 -14.327 -22.976  0.00  0.00    +0.139 C 
BRANCH  26  27
ATOM     27  O   UNL     1      35.055 -15.168 -23.563  0.00  0.00    -0.471 OA
ATOM     28  C   UNL     1      35.027 -16.535 -23.154  0.00  0.00    +0.252 C 
ENDBRANCH  26  27
ENDBRANCH  19  21
ENDBRANCH  18  19
ENDBRANCH  17  18
ENDBRANCH  14  17
ENDBRANCH   1  15
BRANCH   1  29
ATOM     29  C   UNL     1      32.733  -5.966 -22.591  0.00  0.00    +0.029 C 
BRANCH  29  30
ATOM     30  C   UNL     1      32.786  -5.562 -24.063  0.00  0.00    +0.002 C 
ATOM     31  C   UNL     1      34.237  -5.516 -24.560  0.00  0.00    +0.000 C 
ATOM     32  C   UNL     1      32.092  -4.210 -24.280  0.00  0.00    +0.000 C 
ATOM     33  C   UNL     1      34.320  -5.063 -26.016  0.00  0.00    +0.000 C 
ATOM     34  C   UNL     1      32.180  -3.759 -25.735  0.00  0.00    +0.000 C 
ATOM     35  C   UNL     1      33.622  -3.724 -26.229  0.00  0.00    +0.000 C 
ENDBRANCH  29  30
ENDBRANCH   1  29
TORSDOF 9
ENDMDL
MODEL 7
REMARK VINA RESULT:     -10.0      5.079     13.318
REMARK  Name = 6420159
REMARK  9 active torsions:
REMARK  status: ('A' for Active; 'I' for Inactive)
REMARK    1  A    between atoms: C_1  and  N_3
REMARK    2  A    between atoms: C_1  and  C_15
REMARK    3  A    between atoms: C_1  and  C_29
REMARK    4  A    between atoms: N_14  and  C_17
REMARK    5  A    between atoms: C_17  and  C_18
REMARK    6  A    between atoms: C_18  and  N_19
REMARK    7  A    between atoms: N_19  and  C_21
REMARK    8  A    between atoms: C_26  and  O_27
REMARK    9  A    between atoms: C_29  and  C_30
REMARK                            x       y       z     vdW  Elec       q    Type
REMARK                         _______ _______ _______ _____ _____    ______ ____
ROOT
ATOM      1  C   UNL     1      33.599 -13.204 -23.829  0.00  0.00    +0.151 C 
ENDROOT
BRANCH   1   3
ATOM      2  O   UNL     1      34.869 -10.219 -25.537  0.00  0.00    -0.414 OA
ATOM      3  N   UNL     1      34.223 -12.277 -24.750  0.00  0.00    -0.271 N 
ATOM      4  N   UNL     1      33.719 -10.234 -23.584  0.00  0.00    -0.356 NA
ATOM      5  C   UNL     1      34.236 -10.906 -24.564  0.00  0.00    +0.345 C 
ATOM      6  C   UNL     1      34.737  -8.926 -25.117  0.00  0.00    +0.175 C 
ATOM      7  C   UNL     1      34.033  -8.939 -23.921  0.00  0.00    +0.152 C 
ATOM      8  C   UNL     1      35.208  -7.780 -25.745  0.00  0.00    +0.040 C 
ATOM      9  C   UNL     1      33.765  -7.722 -23.279  0.00  0.00    +0.088 C 
ATOM     10  C   UNL     1      34.932  -6.574 -25.092  0.00  0.00    -0.001 C 
ATOM     11  C   UNL     1      34.225  -6.543 -23.883  0.00  0.00    -0.018 C 
ATOM     12  H   UNL     1      34.661 -12.642 -25.552  0.00  0.00    +0.153 HD
ENDBRANCH   1   3
BRANCH   1  15
ATOM     13  O   UNL     1      33.594 -15.096 -25.341  0.00  0.00    -0.273 OA
ATOM     14  N   UNL     1      34.671 -15.305 -23.298  0.00  0.00    -0.301 N 
ATOM     15  C   UNL     1      33.942 -14.623 -24.261  0.00  0.00    +0.240 C 
ATOM     16  H   UNL     1      34.905 -14.844 -22.461  0.00  0.00    +0.150 HD
BRANCH  14  17
ATOM     17  C   UNL     1      35.098 -16.671 -23.485  0.00  0.00    +0.111 C 
BRANCH  17  18
ATOM     18  C   UNL     1      35.102 -17.456 -22.183  0.00  0.00    +0.109 C 
BRANCH  18  19
ATOM     19  N   UNL     1      34.565 -18.780 -22.391  0.00  0.00    -0.331 N 
ATOM     20  H   UNL     1      34.183 -18.994 -23.273  0.00  0.00    +0.147 HD
BRANCH  19  21
ATOM     21  C   UNL     1      34.557 -19.769 -21.419  0.00  0.00    +0.045 C 
ATOM     22  C   UNL     1      35.760 -20.282 -20.901  0.00  0.00    +0.017 C 
ATOM     23  C   UNL     1      33.345 -20.286 -20.926  0.00  0.00    +0.017 C 
ATOM     24  C   UNL     1      35.752 -21.278 -19.924  0.00  0.00    +0.038 C 
ATOM     25  C   UNL     1      33.336 -21.282 -19.949  0.00  0.00    +0.038 C 
ATOM     26  C   UNL     1      34.540 -21.778 -19.448  0.00  0.00    +0.139 C 
BRANCH  26  27
ATOM     27  O   UNL     1      34.531 -22.748 -18.494  0.00  0.00    -0.471 OA
ATOM     28  C   UNL     1      33.258 -23.244 -18.083  0.00  0.00    +0.252 C 
ENDBRANCH  26  27
ENDBRANCH  19  21
ENDBRANCH  18  19
ENDBRANCH  17  18
ENDBRANCH  14  17
ENDBRANCH   1  15
BRANCH   1  29
ATOM     29  C   UNL     1      32.082 -13.009 -23.824  0.00  0.00    +0.029 C 
BRANCH  29  30
ATOM     30  C   UNL     1      31.533 -12.728 -22.427  0.00  0.00    +0.002 C 
ATOM     31  C   UNL     1      31.111 -11.258 -22.296  0.00  0.00    +0.000 C 
ATOM     32  C   UNL     1      32.566 -13.096 -21.354  0.00  0.00    +0.000 C 
ATOM     33  C   UNL     1      30.607 -10.939 -20.890  0.00  0.00    +0.000 C 
ATOM     34  C   UNL     1      32.061 -12.773 -19.950  0.00  0.00    +0.000 C 
ATOM     35  C   UNL     1      31.634 -11.314 -19.827  0.00  0.00    +0.000 C 
ENDBRANCH  29  30
ENDBRANCH   1  29
TORSDOF 9
ENDMDL
MODEL 8
REMARK VINA RESULT:     -10.0      7.133     11.719
REMARK  Name = 6420159
REMARK  9 active torsions:
REMARK  status: ('A' for Active; 'I' for Inactive)
REMARK    1  A    between atoms: C_1  and  N_3
REMARK    2  A    between atoms: C_1  and  C_15
REMARK    3  A    between atoms: C_1  and  C_29
REMARK    4  A    between atoms: N_14  and  C_17
REMARK    5  A    between atoms: C_17  and  C_18
REMARK    6  A    between atoms: C_18  and  N_19
REMARK    7  A    between atoms: N_19  and  C_21
REMARK    8  A    between atoms: C_26  and  O_27
REMARK    9  A    between atoms: C_29  and  C_30
REMARK                            x       y       z     vdW  Elec       q    Type
REMARK                         _______ _______ _______ _____ _____    ______ ____
ROOT
ATOM      1  C   UNL     1      34.837 -15.643 -23.958  0.00  0.00    +0.151 C 
ENDROOT
BRANCH   1   3
ATOM      2  O   UNL     1      32.926 -14.183 -21.190  0.00  0.00    -0.414 OA
ATOM      3  N   UNL     1      34.167 -15.390 -22.699  0.00  0.00    -0.271 N 
ATOM      4  N   UNL     1      33.318 -13.193 -23.192  0.00  0.00    -0.356 NA
ATOM      5  C   UNL     1      33.480 -14.222 -22.420  0.00  0.00    +0.345 C 
ATOM      6  C   UNL     1      32.326 -12.956 -21.177  0.00  0.00    +0.175 C 
ATOM      7  C   UNL     1      32.568 -12.354 -22.404  0.00  0.00    +0.152 C 
ATOM      8  C   UNL     1      31.598 -12.381 -20.143  0.00  0.00    +0.040 C 
ATOM      9  C   UNL     1      32.051 -11.073 -22.643  0.00  0.00    +0.088 C 
ATOM     10  C   UNL     1      31.089 -11.103 -20.398  0.00  0.00    -0.001 C 
ATOM     11  C   UNL     1      31.310 -10.460 -21.622  0.00  0.00    -0.018 C 
ATOM     12  H   UNL     1      34.202 -16.087 -22.005  0.00  0.00    +0.153 HD
ENDBRANCH   1   3
BRANCH   1  15
ATOM     13  O   UNL     1      33.024 -15.997 -25.525  0.00  0.00    -0.273 OA
ATOM     14  N   UNL     1      34.164 -13.979 -25.579  0.00  0.00    -0.301 N 
ATOM     15  C   UNL     1      33.901 -15.251 -25.093  0.00  0.00    +0.240 C 
ATOM     16  H   UNL     1      34.888 -13.453 -25.169  0.00  0.00    +0.150 HD
BRANCH  14  17
ATOM     17  C   UNL     1      33.410 -13.401 -26.665  0.00  0.00    +0.111 C 
BRANCH  17  18
ATOM     18  C   UNL     1      33.696 -11.918 -26.839  0.00  0.00    +0.109 C 
BRANCH  18  19
ATOM     19  N   UNL     1      34.257 -11.367 -25.628  0.00  0.00    -0.331 N 
ATOM     20  H   UNL     1      34.702 -11.982 -25.000  0.00  0.00    +0.147 HD
BRANCH  19  21
ATOM     21  C   UNL     1      34.203 -10.022 -25.298  0.00  0.00    +0.045 C 
ATOM     22  C   UNL     1      35.286  -9.393 -24.655  0.00  0.00    +0.017 C 
ATOM     23  C   UNL     1      33.065  -9.250 -25.594  0.00  0.00    +0.017 C 
ATOM     24  C   UNL     1      35.231  -8.039 -24.322  0.00  0.00    +0.038 C 
ATOM     25  C   UNL     1      33.011  -7.897 -25.261  0.00  0.00    +0.038 C 
ATOM     26  C   UNL     1      34.094  -7.292 -24.624  0.00  0.00    +0.139 C 
BRANCH  26  27
ATOM     27  O   UNL     1      34.041  -5.971 -24.300  0.00  0.00    -0.471 OA
ATOM     28  C   UNL     1      32.816  -5.484 -23.753  0.00  0.00    +0.252 C 
ENDBRANCH  26  27
ENDBRANCH  19  21
ENDBRANCH  18  19
ENDBRANCH  17  18
ENDBRANCH  14  17
ENDBRANCH   1  15
BRANCH   1  29
ATOM     29  C   UNL     1      35.212 -17.122 -24.073  0.00  0.00    +0.029 C 
BRANCH  29  30
ATOM     30  C   UNL     1      35.185 -17.839 -22.725  0.00  0.00    +0.002 C 
ATOM     31  C   UNL     1      36.586 -18.339 -22.349  0.00  0.00    +0.000 C 
ATOM     32  C   UNL     1      34.179 -18.997 -22.746  0.00  0.00    +0.000 C 
ATOM     33  C   UNL     1      36.575 -19.106 -21.029  0.00  0.00    +0.000 C 
ATOM     34  C   UNL     1      34.173 -19.763 -21.426  0.00  0.00    +0.000 C 
ATOM     35  C   UNL     1      35.569 -20.252 -21.051  0.00  0.00    +0.000 C 
ENDBRANCH  29  30
ENDBRANCH   1  29
TORSDOF 9
ENDMDL
MODEL 9
REMARK VINA RESULT:     -10.0      2.690      8.481
REMARK  Name = 6420159
REMARK  9 active torsions:
REMARK  status: ('A' for Active; 'I' for Inactive)
REMARK    1  A    between atoms: C_1  and  N_3
REMARK    2  A    between atoms: C_1  and  C_15
REMARK    3  A    between atoms: C_1  and  C_29
REMARK    4  A    between atoms: N_14  and  C_17
REMARK    5  A    between atoms: C_17  and  C_18
REMARK    6  A    between atoms: C_18  and  N_19
REMARK    7  A    between atoms: N_19  and  C_21
REMARK    8  A    between atoms: C_26  and  O_27
REMARK    9  A    between atoms: C_29  and  C_30
REMARK                            x       y       z     vdW  Elec       q    Type
REMARK                         _______ _______ _______ _____ _____    ______ ____
ROOT
ATOM      1  C   UNL     1      35.131 -23.851 -16.207  0.00  0.00    +0.151 C 
ENDROOT
BRANCH   1   3
ATOM      2  O   UNL     1      33.372 -22.019 -18.851  0.00  0.00    -0.414 OA
ATOM      3  N   UNL     1      34.136 -23.271 -17.084  0.00  0.00    -0.271 N 
ATOM      4  N   UNL     1      35.619 -22.082 -18.559  0.00  0.00    -0.356 NA
ATOM      5  C   UNL     1      34.445 -22.457 -18.159  0.00  0.00    +0.345 C 
ATOM      6  C   UNL     1      33.945 -21.259 -19.830  0.00  0.00    +0.175 C 
ATOM      7  C   UNL     1      35.320 -21.300 -19.648  0.00  0.00    +0.152 C 
ATOM      8  C   UNL     1      33.302 -20.556 -20.841  0.00  0.00    +0.040 C 
ATOM      9  C   UNL     1      36.142 -20.591 -20.534  0.00  0.00    +0.088 C 
ATOM     10  C   UNL     1      34.136 -19.854 -21.717  0.00  0.00    -0.001 C 
ATOM     11  C   UNL     1      35.529 -19.869 -21.569  0.00  0.00    -0.018 C 
ATOM     12  H   UNL     1      33.188 -23.467 -16.905  0.00  0.00    +0.153 HD
ENDBRANCH   1   3
BRANCH   1  15
ATOM     13  O   UNL     1      34.751 -26.011 -15.179  0.00  0.00    -0.273 OA
ATOM     14  N   UNL     1      33.426 -24.222 -14.533  0.00  0.00    -0.301 N 
ATOM     15  C   UNL     1      34.439 -24.825 -15.263  0.00  0.00    +0.240 C 
ATOM     16  H   UNL     1      33.247 -23.263 -14.667  0.00  0.00    +0.150 HD
BRANCH  14  17
ATOM     17  C   UNL     1      32.624 -24.955 -13.583  0.00  0.00    +0.111 C 
BRANCH  17  18
ATOM     18  C   UNL     1      31.289 -25.387 -14.169  0.00  0.00    +0.109 C 
BRANCH  18  19
ATOM     19  N   UNL     1      30.329 -24.313 -14.080  0.00  0.00    -0.331 N 
ATOM     20  H   UNL     1      30.291 -23.791 -13.247  0.00  0.00    +0.147 HD
BRANCH  19  21
ATOM     21  C   UNL     1      29.455 -23.976 -15.102  0.00  0.00    +0.045 C 
ATOM     22  C   UNL     1      28.983 -24.952 -16.000  0.00  0.00    +0.017 C 
ATOM     23  C   UNL     1      29.018 -22.649 -15.270  0.00  0.00    +0.017 C 
ATOM     24  C   UNL     1      28.105 -24.612 -17.029  0.00  0.00    +0.038 C 
ATOM     25  C   UNL     1      28.140 -22.309 -16.300  0.00  0.00    +0.038 C 
ATOM     26  C   UNL     1      27.684 -23.290 -17.179  0.00  0.00    +0.139 C 
BRANCH  26  27
ATOM     27  O   UNL     1      26.826 -22.959 -18.182  0.00  0.00    -0.471 OA
ATOM     28  C   UNL     1      26.049 -21.775 -18.008  0.00  0.00    +0.252 C 
ENDBRANCH  26  27
ENDBRANCH  19  21
ENDBRANCH  18  19
ENDBRANCH  17  18
ENDBRANCH  14  17
ENDBRANCH   1  15
BRANCH   1  29
ATOM     29  C   UNL     1      35.837 -22.755 -15.406  0.00  0.00    +0.029 C 
BRANCH  29  30
ATOM     30  C   UNL     1      37.068 -23.274 -14.666  0.00  0.00    +0.002 C 
ATOM     31  C   UNL     1      37.679 -24.473 -15.402  0.00  0.00    +0.000 C 
ATOM     32  C   UNL     1      36.715 -23.645 -13.219  0.00  0.00    +0.000 C 
ATOM     33  C   UNL     1      38.881 -25.043 -14.653  0.00  0.00    +0.000 C 
ATOM     34  C   UNL     1      37.918 -24.216 -12.473  0.00  0.00    +0.000 C 
ATOM     35  C   UNL     1      38.528 -25.402 -13.213  0.00  0.00    +0.000 C 
ENDBRANCH  29  30
ENDBRANCH   1  29
TORSDOF 9
ENDMDL
