MODEL 1
REMARK VINA RESULT:     -12.2      0.000      0.000
REMARK  Name = 16750097
REMARK  3 active torsions:
REMARK  status: ('A' for Active; 'I' for Inactive)
REMARK    1  A    between atoms: N_3  and  C_10
REMARK    2  A    between atoms: N_3  and  C_23
REMARK    3  A    between atoms: C_23  and  C_24
REMARK                            x       y       z     vdW  Elec       q    Type
REMARK                         _______ _______ _______ _____ _____    ______ ____
ROOT
ATOM      1  O   UNL     1      33.557 -15.607 -26.324  0.00  0.00    -0.209 OA
ATOM      2  N   UNL     1      34.895 -19.351 -22.888  0.00  0.00    -0.305 N 
ATOM      3  N   UNL     1      35.351 -18.359 -20.953  0.00  0.00    -0.305 N 
ATOM      4  N   UNL     1      34.392 -13.873 -22.812  0.00  0.00    -0.275 N 
ATOM      5  N   UNL     1      33.726 -13.686 -25.089  0.00  0.00    -0.302 NA
ATOM      6  N   UNL     1      33.942 -11.809 -23.704  0.00  0.00    -0.320 N 
ATOM      7  C   UNL     1      34.704 -18.011 -23.109  0.00  0.00    +0.061 C 
ATOM      8  C   UNL     1      34.994 -17.414 -21.887  0.00  0.00    +0.061 C 
ATOM      9  C   UNL     1      35.281 -19.509 -21.586  0.00  0.00    +0.208 C 
ATOM     10  C   UNL     1      34.505 -15.265 -22.883  0.00  0.00    +0.064 C 
ATOM     11  C   UNL     1      34.219 -15.904 -24.099  0.00  0.00    +0.110 C 
ATOM     12  C   UNL     1      34.312 -17.296 -24.243  0.00  0.00    +0.030 C 
ATOM     13  C   UNL     1      34.896 -16.017 -21.763  0.00  0.00    +0.031 C 
ATOM     14  C   UNL     1      33.810 -15.057 -25.256  0.00  0.00    +0.208 C 
ATOM     15  C   UNL     1      34.008 -13.162 -23.925  0.00  0.00    +0.248 C 
ATOM     16  H   UNL     1      34.775 -20.071 -23.548  0.00  0.00    +0.150 HD
ATOM     17  H   UNL     1      35.605 -18.207 -20.014  0.00  0.00    +0.150 HD
ATOM     18  H   UNL     1      34.588 -13.404 -21.969  0.00  0.00    +0.156 HD
ATOM     19  H   UNL     1      34.161 -11.444 -22.816  0.00  0.00    +0.146 HD
ATOM     20  H   UNL     1      33.678 -11.204 -24.434  0.00  0.00    +0.146 HD
ENDROOT
BRANCH   9  21
ATOM     21  N   UNL     1      35.530 -20.758 -21.138  0.00  0.00    -0.263 NA
ATOM     22  H   UNL     1      35.258 -21.513 -21.710  0.00  0.00    +0.127 HD
BRANCH  21  23
ATOM     23  C   UNL     1      36.170 -21.067 -19.872  0.00  0.00    +0.098 C 
BRANCH  23  24
ATOM     24  C   UNL     1      35.235 -21.837 -18.981  0.00  0.00    -0.006 C 
ATOM     25  C   UNL     1      35.642 -22.351 -17.740  0.00  0.00    -0.003 C 
ATOM     26  C   UNL     1      34.713 -23.067 -16.948  0.00  0.00    -0.000 C 
ATOM     27  C   UNL     1      33.929 -22.027 -19.436  0.00  0.00    -0.003 C 
ATOM     28  C   UNL     1      36.952 -22.170 -17.267  0.00  0.00    -0.000 C 
ATOM     29  C   UNL     1      33.403 -23.249 -17.422  0.00  0.00    -0.000 C 
ATOM     30  C   UNL     1      33.015 -22.730 -18.658  0.00  0.00    -0.000 C 
ATOM     31  C   UNL     1      35.121 -23.581 -15.707  0.00  0.00    -0.000 C 
ATOM     32  C   UNL     1      37.340 -22.689 -16.031  0.00  0.00    -0.000 C 
ATOM     33  C   UNL     1      36.426 -23.392 -15.252  0.00  0.00    -0.000 C 
ENDBRANCH  23  24
ENDBRANCH  21  23
ENDBRANCH   9  21
TORSDOF 3
ENDMDL
MODEL 2
REMARK VINA RESULT:     -11.8      3.758     11.213
REMARK  Name = 16750097
REMARK  3 active torsions:
REMARK  status: ('A' for Active; 'I' for Inactive)
REMARK    1  A    between atoms: N_3  and  C_10
REMARK    2  A    between atoms: N_3  and  C_23
REMARK    3  A    between atoms: C_23  and  C_24
REMARK                            x       y       z     vdW  Elec       q    Type
REMARK                         _______ _______ _______ _____ _____    ______ ____
ROOT
ATOM      1  O   UNL     1      34.235 -19.406 -24.945  0.00  0.00    -0.209 OA
ATOM      2  N   UNL     1      33.709 -14.184 -25.193  0.00  0.00    -0.305 N 
ATOM      3  N   UNL     1      34.273 -13.354 -23.210  0.00  0.00    -0.305 N 
ATOM      4  N   UNL     1      35.240 -17.855 -21.392  0.00  0.00    -0.275 N 
ATOM      5  N   UNL     1      34.951 -19.753 -22.798  0.00  0.00    -0.302 NA
ATOM      6  N   UNL     1      35.677 -19.954 -20.579  0.00  0.00    -0.320 N 
ATOM      7  C   UNL     1      34.047 -15.269 -24.424  0.00  0.00    +0.061 C 
ATOM      8  C   UNL     1      34.396 -14.725 -23.192  0.00  0.00    +0.061 C 
ATOM      9  C   UNL     1      33.859 -13.064 -24.424  0.00  0.00    +0.208 C 
ATOM     10  C   UNL     1      34.843 -16.963 -22.392  0.00  0.00    +0.064 C 
ATOM     11  C   UNL     1      34.485 -17.474 -23.649  0.00  0.00    +0.110 C 
ATOM     12  C   UNL     1      34.077 -16.637 -24.699  0.00  0.00    +0.030 C 
ATOM     13  C   UNL     1      34.802 -15.579 -22.154  0.00  0.00    +0.031 C 
ATOM     14  C   UNL     1      34.546 -18.950 -23.849  0.00  0.00    +0.208 C 
ATOM     15  C   UNL     1      35.271 -19.205 -21.654  0.00  0.00    +0.248 C 
ATOM     16  H   UNL     1      33.411 -14.207 -26.130  0.00  0.00    +0.150 HD
ATOM     17  H   UNL     1      34.454 -12.727 -22.473  0.00  0.00    +0.150 HD
ATOM     18  H   UNL     1      35.495 -17.518 -20.503  0.00  0.00    +0.156 HD
ATOM     19  H   UNL     1      35.911 -19.512 -19.731  0.00  0.00    +0.146 HD
ATOM     20  H   UNL     1      35.735 -20.934 -20.656  0.00  0.00    +0.146 HD
ENDROOT
BRANCH   9  21
ATOM     21  N   UNL     1      33.578 -11.864 -24.977  0.00  0.00    -0.263 NA
ATOM     22  H   UNL     1      32.788 -11.802 -25.561  0.00  0.00    +0.127 HD
BRANCH  21  23
ATOM     23  C   UNL     1      34.360 -10.658 -24.769  0.00  0.00    +0.098 C 
BRANCH  23  24
ATOM     24  C   UNL     1      33.517  -9.585 -24.136  0.00  0.00    -0.006 C 
ATOM     25  C   UNL     1      33.758  -8.221 -24.360  0.00  0.00    -0.003 C 
ATOM     26  C   UNL     1      32.929  -7.259 -23.735  0.00  0.00    -0.000 C 
ATOM     27  C   UNL     1      32.473  -9.997 -23.307  0.00  0.00    -0.003 C 
ATOM     28  C   UNL     1      34.805  -7.788 -25.191  0.00  0.00    -0.000 C 
ATOM     29  C   UNL     1      31.883  -7.692 -22.903  0.00  0.00    -0.000 C 
ATOM     30  C   UNL     1      31.657  -9.053 -22.693  0.00  0.00    -0.000 C 
ATOM     31  C   UNL     1      33.169  -5.894 -23.959  0.00  0.00    -0.000 C 
ATOM     32  C   UNL     1      35.030  -6.427 -25.402  0.00  0.00    -0.000 C 
ATOM     33  C   UNL     1      34.213  -5.482 -24.787  0.00  0.00    -0.000 C 
ENDBRANCH  23  24
ENDBRANCH  21  23
ENDBRANCH   9  21
TORSDOF 3
ENDMDL
MODEL 3
REMARK VINA RESULT:     -11.7      4.919     10.400
REMARK  Name = 16750097
REMARK  3 active torsions:
REMARK  status: ('A' for Active; 'I' for Inactive)
REMARK    1  A    between atoms: N_3  and  C_10
REMARK    2  A    between atoms: N_3  and  C_23
REMARK    3  A    between atoms: C_23  and  C_24
REMARK                            x       y       z     vdW  Elec       q    Type
REMARK                         _______ _______ _______ _____ _____    ______ ____
ROOT
ATOM      1  O   UNL     1      35.191 -17.103 -21.064  0.00  0.00    -0.209 OA
ATOM      2  N   UNL     1      34.267 -12.442 -23.307  0.00  0.00    -0.305 N 
ATOM      3  N   UNL     1      33.727 -12.810 -25.430  0.00  0.00    -0.305 N 
ATOM      4  N   UNL     1      34.210 -17.707 -24.900  0.00  0.00    -0.275 N 
ATOM      5  N   UNL     1      34.838 -18.581 -22.777  0.00  0.00    -0.302 NA
ATOM      6  N   UNL     1      34.444 -19.972 -24.621  0.00  0.00    -0.320 N 
ATOM      7  C   UNL     1      34.320 -13.803 -23.468  0.00  0.00    +0.061 C 
ATOM      8  C   UNL     1      33.978 -14.008 -24.800  0.00  0.00    +0.061 C 
ATOM      9  C   UNL     1      33.909 -11.893 -24.507  0.00  0.00    +0.208 C 
ATOM     10  C   UNL     1      34.239 -16.385 -24.445  0.00  0.00    +0.064 C 
ATOM     11  C   UNL     1      34.579 -16.139 -23.106  0.00  0.00    +0.110 C 
ATOM     12  C   UNL     1      34.628 -14.838 -22.583  0.00  0.00    +0.030 C 
ATOM     13  C   UNL     1      33.934 -15.318 -25.306  0.00  0.00    +0.031 C 
ATOM     14  C   UNL     1      34.893 -17.309 -22.237  0.00  0.00    +0.208 C 
ATOM     15  C   UNL     1      34.513 -18.733 -24.034  0.00  0.00    +0.248 C 
ATOM     16  H   UNL     1      34.454 -11.947 -22.477  0.00  0.00    +0.150 HD
ATOM     17  H   UNL     1      33.467 -12.671 -26.370  0.00  0.00    +0.150 HD
ATOM     18  H   UNL     1      33.974 -17.903 -25.835  0.00  0.00    +0.156 HD
ATOM     19  H   UNL     1      34.197 -20.053 -25.570  0.00  0.00    +0.146 HD
ATOM     20  H   UNL     1      34.643 -20.778 -24.092  0.00  0.00    +0.146 HD
ENDROOT
BRANCH   9  21
ATOM     21  N   UNL     1      33.795 -10.550 -24.589  0.00  0.00    -0.263 NA
ATOM     22  H   UNL     1      34.609 -10.031 -24.782  0.00  0.00    +0.127 HD
BRANCH  21  23
ATOM     23  C   UNL     1      32.554  -9.817 -24.412  0.00  0.00    +0.098 C 
BRANCH  23  24
ATOM     24  C   UNL     1      32.593  -9.010 -23.144  0.00  0.00    -0.006 C 
ATOM     25  C   UNL     1      31.963  -9.443 -21.967  0.00  0.00    -0.003 C 
ATOM     26  C   UNL     1      32.037  -8.637 -20.805  0.00  0.00    -0.000 C 
ATOM     27  C   UNL     1      33.287  -7.800 -23.176  0.00  0.00    -0.003 C 
ATOM     28  C   UNL     1      31.260 -10.658 -21.915  0.00  0.00    -0.000 C 
ATOM     29  C   UNL     1      32.739  -7.421 -20.856  0.00  0.00    -0.000 C 
ATOM     30  C   UNL     1      33.360  -7.008 -22.035  0.00  0.00    -0.000 C 
ATOM     31  C   UNL     1      31.406  -9.069 -19.628  0.00  0.00    -0.000 C 
ATOM     32  C   UNL     1      30.638 -11.072 -20.736  0.00  0.00    -0.000 C 
ATOM     33  C   UNL     1      30.712 -10.279 -19.594  0.00  0.00    -0.000 C 
ENDBRANCH  23  24
ENDBRANCH  21  23
ENDBRANCH   9  21
TORSDOF 3
ENDMDL
MODEL 4
REMARK VINA RESULT:     -11.7      4.181     10.200
REMARK  Name = 16750097
REMARK  3 active torsions:
REMARK  status: ('A' for Active; 'I' for Inactive)
REMARK    1  A    between atoms: N_3  and  C_10
REMARK    2  A    between atoms: N_3  and  C_23
REMARK    3  A    between atoms: C_23  and  C_24
REMARK                            x       y       z     vdW  Elec       q    Type
REMARK                         _______ _______ _______ _____ _____    ______ ____
ROOT
ATOM      1  O   UNL     1      34.080 -18.362 -25.365  0.00  0.00    -0.209 OA
ATOM      2  N   UNL     1      33.770 -13.123 -25.118  0.00  0.00    -0.305 N 
ATOM      3  N   UNL     1      34.286 -12.514 -23.045  0.00  0.00    -0.305 N 
ATOM      4  N   UNL     1      35.002 -17.206 -21.644  0.00  0.00    -0.275 N 
ATOM      5  N   UNL     1      34.696 -18.946 -23.238  0.00  0.00    -0.302 NA
ATOM      6  N   UNL     1      35.325 -19.391 -21.026  0.00  0.00    -0.320 N 
ATOM      7  C   UNL     1      34.034 -14.290 -24.448  0.00  0.00    +0.061 C 
ATOM      8  C   UNL     1      34.355 -13.883 -23.157  0.00  0.00    +0.061 C 
ATOM      9  C   UNL     1      33.933 -12.090 -24.238  0.00  0.00    +0.208 C 
ATOM     10  C   UNL     1      34.681 -16.205 -22.565  0.00  0.00    +0.064 C 
ATOM     11  C   UNL     1      34.353 -16.576 -23.878  0.00  0.00    +0.110 C 
ATOM     12  C   UNL     1      34.021 -15.626 -24.855  0.00  0.00    +0.030 C 
ATOM     13  C   UNL     1      34.685 -14.851 -22.193  0.00  0.00    +0.031 C 
ATOM     14  C   UNL     1      34.365 -18.028 -24.219  0.00  0.00    +0.208 C 
ATOM     15  C   UNL     1      34.991 -18.525 -22.036  0.00  0.00    +0.248 C 
ATOM     16  H   UNL     1      33.508 -13.042 -26.063  0.00  0.00    +0.150 HD
ATOM     17  H   UNL     1      34.463 -11.969 -22.244  0.00  0.00    +0.150 HD
ATOM     18  H   UNL     1      35.236 -16.969 -20.718  0.00  0.00    +0.156 HD
ATOM     19  H   UNL     1      35.541 -19.043 -20.131  0.00  0.00    +0.146 HD
ATOM     20  H   UNL     1      35.347 -20.361 -21.196  0.00  0.00    +0.146 HD
ENDROOT
BRANCH   9  21
ATOM     21  N   UNL     1      33.722 -10.831 -24.680  0.00  0.00    -0.263 NA
ATOM     22  H   UNL     1      34.451 -10.391 -25.174  0.00  0.00    +0.127 HD
BRANCH  21  23
ATOM     23  C   UNL     1      32.494 -10.083 -24.479  0.00  0.00    +0.098 C 
BRANCH  23  24
ATOM     24  C   UNL     1      32.599  -9.215 -23.255  0.00  0.00    -0.006 C 
ATOM     25  C   UNL     1      31.974  -9.555 -22.045  0.00  0.00    -0.003 C 
ATOM     26  C   UNL     1      32.111  -8.696 -20.929  0.00  0.00    -0.000 C 
ATOM     27  C   UNL     1      33.348  -8.043 -23.364  0.00  0.00    -0.003 C 
ATOM     28  C   UNL     1      31.215 -10.730 -21.917  0.00  0.00    -0.000 C 
ATOM     29  C   UNL     1      32.869  -7.520 -21.057  0.00  0.00    -0.000 C 
ATOM     30  C   UNL     1      33.484  -7.198 -22.268  0.00  0.00    -0.000 C 
ATOM     31  C   UNL     1      31.487  -9.036 -19.719  0.00  0.00    -0.000 C 
ATOM     32  C   UNL     1      30.601 -11.052 -20.706  0.00  0.00    -0.000 C 
ATOM     33  C   UNL     1      30.737 -10.207 -19.609  0.00  0.00    -0.000 C 
ENDBRANCH  23  24
ENDBRANCH  21  23
ENDBRANCH   9  21
TORSDOF 3
ENDMDL
MODEL 5
REMARK VINA RESULT:     -11.6      2.879      9.646
REMARK  Name = 16750097
REMARK  3 active torsions:
REMARK  status: ('A' for Active; 'I' for Inactive)
REMARK    1  A    between atoms: N_3  and  C_10
REMARK    2  A    between atoms: N_3  and  C_23
REMARK    3  A    between atoms: C_23  and  C_24
REMARK                            x       y       z     vdW  Elec       q    Type
REMARK                         _______ _______ _______ _____ _____    ______ ____
ROOT
ATOM      1  O   UNL     1      32.763 -21.913 -20.072  0.00  0.00    -0.209 OA
ATOM      2  N   UNL     1      33.959 -18.255 -23.648  0.00  0.00    -0.305 N 
ATOM      3  N   UNL     1      36.066 -17.639 -23.305  0.00  0.00    -0.305 N 
ATOM      4  N   UNL     1      36.557 -20.765 -19.500  0.00  0.00    -0.275 N 
ATOM      5  N   UNL     1      34.703 -22.120 -18.873  0.00  0.00    -0.302 NA
ATOM      6  N   UNL     1      36.751 -22.223 -17.740  0.00  0.00    -0.320 N 
ATOM      7  C   UNL     1      34.390 -19.002 -22.582  0.00  0.00    +0.061 C 
ATOM      8  C   UNL     1      35.708 -18.600 -22.388  0.00  0.00    +0.061 C 
ATOM      9  C   UNL     1      34.995 -17.456 -24.045  0.00  0.00    +0.208 C 
ATOM     10  C   UNL     1      35.852 -20.156 -20.542  0.00  0.00    +0.064 C 
ATOM     11  C   UNL     1      34.521 -20.536 -20.770  0.00  0.00    +0.110 C 
ATOM     12  C   UNL     1      33.754 -19.967 -21.798  0.00  0.00    +0.030 C 
ATOM     13  C   UNL     1      36.459 -19.182 -21.353  0.00  0.00    +0.031 C 
ATOM     14  C   UNL     1      33.927 -21.574 -19.880  0.00  0.00    +0.208 C 
ATOM     15  C   UNL     1      35.938 -21.716 -18.722  0.00  0.00    +0.248 C 
ATOM     16  H   UNL     1      33.063 -18.287 -24.056  0.00  0.00    +0.150 HD
ATOM     17  H   UNL     1      36.936 -17.187 -23.389  0.00  0.00    +0.150 HD
ATOM     18  H   UNL     1      37.492 -20.514 -19.323  0.00  0.00    +0.156 HD
ATOM     19  H   UNL     1      37.676 -21.898 -17.651  0.00  0.00    +0.146 HD
ATOM     20  H   UNL     1      36.409 -22.910 -17.123  0.00  0.00    +0.146 HD
ENDROOT
BRANCH   9  21
ATOM     21  N   UNL     1      34.798 -16.623 -25.090  0.00  0.00    -0.263 NA
ATOM     22  H   UNL     1      35.546 -16.491 -25.717  0.00  0.00    +0.127 HD
BRANCH  21  23
ATOM     23  C   UNL     1      33.561 -15.909 -25.353  0.00  0.00    +0.098 C 
BRANCH  23  24
ATOM     24  C   UNL     1      33.566 -14.573 -24.662  0.00  0.00    -0.006 C 
ATOM     25  C   UNL     1      33.684 -13.368 -25.373  0.00  0.00    -0.003 C 
ATOM     26  C   UNL     1      33.682 -12.143 -24.664  0.00  0.00    -0.000 C 
ATOM     27  C   UNL     1      33.448 -14.571 -23.272  0.00  0.00    -0.003 C 
ATOM     28  C   UNL     1      33.804 -13.351 -26.772  0.00  0.00    -0.000 C 
ATOM     29  C   UNL     1      33.563 -12.160 -23.264  0.00  0.00    -0.000 C 
ATOM     30  C   UNL     1      33.446 -13.367 -22.575  0.00  0.00    -0.000 C 
ATOM     31  C   UNL     1      33.800 -10.938 -25.374  0.00  0.00    -0.000 C 
ATOM     32  C   UNL     1      33.921 -12.144 -27.462  0.00  0.00    -0.000 C 
ATOM     33  C   UNL     1      33.918 -10.940 -26.764  0.00  0.00    -0.000 C 
ENDBRANCH  23  24
ENDBRANCH  21  23
ENDBRANCH   9  21
TORSDOF 3
ENDMDL
MODEL 6
REMARK VINA RESULT:     -11.5      2.161      3.966
REMARK  Name = 16750097
REMARK  3 active torsions:
REMARK  status: ('A' for Active; 'I' for Inactive)
REMARK    1  A    between atoms: N_3  and  C_10
REMARK    2  A    between atoms: N_3  and  C_23
REMARK    3  A    between atoms: C_23  and  C_24
REMARK                            x       y       z     vdW  Elec       q    Type
REMARK                         _______ _______ _______ _____ _____    ______ ____
ROOT
ATOM      1  O   UNL     1      33.159 -11.943 -27.762  0.00  0.00    -0.209 OA
ATOM      2  N   UNL     1      33.998 -16.433 -25.167  0.00  0.00    -0.305 N 
ATOM      3  N   UNL     1      34.479 -15.916 -23.061  0.00  0.00    -0.305 N 
ATOM      4  N   UNL     1      34.032 -11.068 -23.953  0.00  0.00    -0.275 N 
ATOM      5  N   UNL     1      33.470 -10.347 -26.150  0.00  0.00    -0.302 NA
ATOM      6  N   UNL     1      33.818  -8.829 -24.400  0.00  0.00    -0.320 N 
ATOM      7  C   UNL     1      33.947 -15.064 -25.106  0.00  0.00    +0.061 C 
ATOM      8  C   UNL     1      34.250 -14.766 -23.781  0.00  0.00    +0.061 C 
ATOM      9  C   UNL     1      34.320 -16.896 -23.921  0.00  0.00    +0.208 C 
ATOM     10  C   UNL     1      34.010 -12.419 -24.312  0.00  0.00    +0.064 C 
ATOM     11  C   UNL     1      33.708 -12.760 -25.639  0.00  0.00    +0.110 C 
ATOM     12  C   UNL     1      33.669 -14.094 -26.070  0.00  0.00    +0.030 C 
ATOM     13  C   UNL     1      34.284 -13.423 -23.369  0.00  0.00    +0.031 C 
ATOM     14  C   UNL     1      33.425 -11.654 -26.599  0.00  0.00    +0.208 C 
ATOM     15  C   UNL     1      33.759 -10.106 -24.898  0.00  0.00    +0.248 C 
ATOM     16  H   UNL     1      33.833 -16.986 -25.965  0.00  0.00    +0.150 HD
ATOM     17  H   UNL     1      34.712 -15.988 -22.107  0.00  0.00    +0.150 HD
ATOM     18  H   UNL     1      34.241 -10.806 -23.027  0.00  0.00    +0.156 HD
ATOM     19  H   UNL     1      34.039  -8.680 -23.452  0.00  0.00    +0.146 HD
ATOM     20  H   UNL     1      33.641  -8.061 -24.990  0.00  0.00    +0.146 HD
ENDROOT
BRANCH   9  21
ATOM     21  N   UNL     1      34.428 -18.230 -23.741  0.00  0.00    -0.263 NA
ATOM     22  H   UNL     1      34.951 -18.741 -24.402  0.00  0.00    +0.127 HD
BRANCH  21  23
ATOM     23  C   UNL     1      33.829 -18.964 -22.641  0.00  0.00    +0.098 C 
BRANCH  23  24
ATOM     24  C   UNL     1      34.892 -19.497 -21.721  0.00  0.00    -0.006 C 
ATOM     25  C   UNL     1      34.615 -20.467 -20.745  0.00  0.00    -0.003 C 
ATOM     26  C   UNL     1      35.660 -20.928 -19.910  0.00  0.00    -0.000 C 
ATOM     27  C   UNL     1      36.183 -18.988 -21.871  0.00  0.00    -0.003 C 
ATOM     28  C   UNL     1      33.322 -20.991 -20.579  0.00  0.00    -0.000 C 
ATOM     29  C   UNL     1      36.953 -20.404 -20.075  0.00  0.00    -0.000 C 
ATOM     30  C   UNL     1      37.211 -19.440 -21.051  0.00  0.00    -0.000 C 
ATOM     31  C   UNL     1      35.383 -21.898 -18.934  0.00  0.00    -0.000 C 
ATOM     32  C   UNL     1      33.064 -21.955 -19.603  0.00  0.00    -0.000 C 
ATOM     33  C   UNL     1      34.093 -22.408 -18.783  0.00  0.00    -0.000 C 
ENDBRANCH  23  24
ENDBRANCH  21  23
ENDBRANCH   9  21
TORSDOF 3
ENDMDL
MODEL 7
REMARK VINA RESULT:     -11.5      3.941      9.777
REMARK  Name = 16750097
REMARK  3 active torsions:
REMARK  status: ('A' for Active; 'I' for Inactive)
REMARK    1  A    between atoms: N_3  and  C_10
REMARK    2  A    between atoms: N_3  and  C_23
REMARK    3  A    between atoms: C_23  and  C_24
REMARK                            x       y       z     vdW  Elec       q    Type
REMARK                         _______ _______ _______ _____ _____    ______ ____
ROOT
ATOM      1  O   UNL     1      37.570 -23.127 -14.722  0.00  0.00    -0.209 OA
ATOM      2  N   UNL     1      36.429 -21.063 -19.417  0.00  0.00    -0.305 N 
ATOM      3  N   UNL     1      34.310 -21.551 -19.872  0.00  0.00    -0.305 N 
ATOM      4  N   UNL     1      33.755 -23.978 -15.595  0.00  0.00    -0.275 N 
ATOM      5  N   UNL     1      35.604 -24.125 -14.104  0.00  0.00    -0.302 NA
ATOM      6  N   UNL     1      33.531 -25.097 -13.605  0.00  0.00    -0.320 N 
ATOM      7  C   UNL     1      35.979 -21.781 -18.339  0.00  0.00    +0.061 C 
ATOM      8  C   UNL     1      34.654 -22.073 -18.647  0.00  0.00    +0.061 C 
ATOM      9  C   UNL     1      35.396 -20.952 -20.306  0.00  0.00    +0.208 C 
ATOM     10  C   UNL     1      34.479 -23.239 -16.535  0.00  0.00    +0.064 C 
ATOM     11  C   UNL     1      35.818 -22.923 -16.260  0.00  0.00    +0.110 C 
ATOM     12  C   UNL     1      36.604 -22.185 -17.158  0.00  0.00    +0.030 C 
ATOM     13  C   UNL     1      33.884 -22.814 -17.734  0.00  0.00    +0.031 C 
ATOM     14  C   UNL     1      36.399 -23.399 -14.972  0.00  0.00    +0.208 C 
ATOM     15  C   UNL     1      34.363 -24.380 -14.428  0.00  0.00    +0.248 C 
ATOM     16  H   UNL     1      37.334 -20.693 -19.532  0.00  0.00    +0.150 HD
ATOM     17  H   UNL     1      33.438 -21.613 -20.326  0.00  0.00    +0.150 HD
ATOM     18  H   UNL     1      32.814 -24.210 -15.767  0.00  0.00    +0.156 HD
ATOM     19  H   UNL     1      32.602 -25.273 -13.878  0.00  0.00    +0.146 HD
ATOM     20  H   UNL     1      33.864 -25.436 -12.743  0.00  0.00    +0.146 HD
ENDROOT
BRANCH   9  21
ATOM     21  N   UNL     1      35.610 -20.278 -21.457  0.00  0.00    -0.263 NA
ATOM     22  H   UNL     1      35.744 -20.805 -22.278  0.00  0.00    +0.127 HD
BRANCH  21  23
ATOM     23  C   UNL     1      35.656 -18.831 -21.568  0.00  0.00    +0.098 C 
BRANCH  23  24
ATOM     24  C   UNL     1      35.004 -18.379 -22.845  0.00  0.00    -0.006 C 
ATOM     25  C   UNL     1      34.667 -17.035 -23.074  0.00  0.00    -0.003 C 
ATOM     26  C   UNL     1      34.054 -16.674 -24.298  0.00  0.00    -0.000 C 
ATOM     27  C   UNL     1      34.739 -19.353 -23.808  0.00  0.00    -0.003 C 
ATOM     28  C   UNL     1      34.925 -16.041 -22.116  0.00  0.00    -0.000 C 
ATOM     29  C   UNL     1      33.796 -17.668 -25.256  0.00  0.00    -0.000 C 
ATOM     30  C   UNL     1      34.137 -18.998 -25.011  0.00  0.00    -0.000 C 
ATOM     31  C   UNL     1      33.718 -15.330 -24.527  0.00  0.00    -0.000 C 
ATOM     32  C   UNL     1      34.584 -14.711 -22.360  0.00  0.00    -0.000 C 
ATOM     33  C   UNL     1      33.982 -14.356 -23.564  0.00  0.00    -0.000 C 
ENDBRANCH  23  24
ENDBRANCH  21  23
ENDBRANCH   9  21
TORSDOF 3
ENDMDL
MODEL 8
REMARK VINA RESULT:     -11.5      3.313      5.664
REMARK  Name = 16750097
REMARK  3 active torsions:
REMARK  status: ('A' for Active; 'I' for Inactive)
REMARK    1  A    between atoms: N_3  and  C_10
REMARK    2  A    between atoms: N_3  and  C_23
REMARK    3  A    between atoms: C_23  and  C_24
REMARK                            x       y       z     vdW  Elec       q    Type
REMARK                         _______ _______ _______ _____ _____    ______ ____
ROOT
ATOM      1  O   UNL     1      37.739 -19.024 -21.692  0.00  0.00    -0.209 OA
ATOM      2  N   UNL     1      34.952 -22.222 -18.591  0.00  0.00    -0.305 N 
ATOM      3  N   UNL     1      32.834 -22.127 -19.254  0.00  0.00    -0.305 N 
ATOM      4  N   UNL     1      33.905 -18.892 -22.843  0.00  0.00    -0.275 N 
ATOM      5  N   UNL     1      36.158 -18.175 -23.115  0.00  0.00    -0.302 NA
ATOM      6  N   UNL     1      34.435 -17.392 -24.495  0.00  0.00    -0.320 N 
ATOM      7  C   UNL     1      34.937 -21.344 -19.644  0.00  0.00    +0.061 C 
ATOM      8  C   UNL     1      33.604 -21.302 -20.041  0.00  0.00    +0.061 C 
ATOM      9  C   UNL     1      33.673 -22.663 -18.396  0.00  0.00    +0.208 C 
ATOM     10  C   UNL     1      34.223 -19.724 -21.766  0.00  0.00    +0.064 C 
ATOM     11  C   UNL     1      35.558 -19.794 -21.337  0.00  0.00    +0.110 C 
ATOM     12  C   UNL     1      35.949 -20.607 -20.263  0.00  0.00    +0.030 C 
ATOM     13  C   UNL     1      33.233 -20.481 -21.119  0.00  0.00    +0.031 C 
ATOM     14  C   UNL     1      36.569 -18.969 -22.059  0.00  0.00    +0.208 C 
ATOM     15  C   UNL     1      34.896 -18.162 -23.458  0.00  0.00    +0.248 C 
ATOM     16  H   UNL     1      35.742 -22.488 -18.069  0.00  0.00    +0.150 HD
ATOM     17  H   UNL     1      31.864 -22.282 -19.319  0.00  0.00    +0.150 HD
ATOM     18  H   UNL     1      32.976 -18.828 -23.160  0.00  0.00    +0.156 HD
ATOM     19  H   UNL     1      33.478 -17.404 -24.729  0.00  0.00    +0.146 HD
ATOM     20  H   UNL     1      35.060 -16.828 -25.005  0.00  0.00    +0.146 HD
ENDROOT
BRANCH   9  21
ATOM     21  N   UNL     1      33.444 -23.545 -17.399  0.00  0.00    -0.263 NA
ATOM     22  H   UNL     1      33.292 -24.486 -17.646  0.00  0.00    +0.127 HD
BRANCH  21  23
ATOM     23  C   UNL     1      33.406 -23.202 -15.988  0.00  0.00    +0.098 C 
BRANCH  23  24
ATOM     24  C   UNL     1      32.291 -23.936 -15.297  0.00  0.00    -0.006 C 
ATOM     25  C   UNL     1      30.947 -23.759 -15.658  0.00  0.00    -0.003 C 
ATOM     26  C   UNL     1      29.943 -24.480 -14.967  0.00  0.00    -0.000 C 
ATOM     27  C   UNL     1      32.642 -24.812 -14.268  0.00  0.00    -0.003 C 
ATOM     28  C   UNL     1      30.574 -22.882 -16.690  0.00  0.00    -0.000 C 
ATOM     29  C   UNL     1      30.315 -25.357 -13.935  0.00  0.00    -0.000 C 
ATOM     30  C   UNL     1      31.657 -25.521 -13.590  0.00  0.00    -0.000 C 
ATOM     31  C   UNL     1      28.598 -24.303 -15.329  0.00  0.00    -0.000 C 
ATOM     32  C   UNL     1      29.232 -22.718 -17.035  0.00  0.00    -0.000 C 
ATOM     33  C   UNL     1      28.246 -23.428 -16.356  0.00  0.00    -0.000 C 
ENDBRANCH  23  24
ENDBRANCH  21  23
ENDBRANCH   9  21
TORSDOF 3
ENDMDL
MODEL 9
REMARK VINA RESULT:     -11.5      1.293      2.662
REMARK  Name = 16750097
REMARK  3 active torsions:
REMARK  status: ('A' for Active; 'I' for Inactive)
REMARK    1  A    between atoms: N_3  and  C_10
REMARK    2  A    between atoms: N_3  and  C_23
REMARK    3  A    between atoms: C_23  and  C_24
REMARK                            x       y       z     vdW  Elec       q    Type
REMARK                         _______ _______ _______ _____ _____    ______ ____
ROOT
ATOM      1  O   UNL     1      34.372 -13.259 -22.124  0.00  0.00    -0.209 OA
ATOM      2  N   UNL     1      35.303 -18.314 -21.034  0.00  0.00    -0.305 N 
ATOM      3  N   UNL     1      34.996 -19.475 -22.903  0.00  0.00    -0.305 N 
ATOM      4  N   UNL     1      33.833 -15.402 -25.464  0.00  0.00    -0.275 N 
ATOM      5  N   UNL     1      33.830 -13.300 -24.349  0.00  0.00    -0.302 NA
ATOM      6  N   UNL     1      33.297 -13.496 -26.622  0.00  0.00    -0.320 N 
ATOM      7  C   UNL     1      34.948 -17.391 -21.984  0.00  0.00    +0.061 C 
ATOM      8  C   UNL     1      34.763 -18.140 -23.142  0.00  0.00    +0.061 C 
ATOM      9  C   UNL     1      35.317 -19.544 -21.630  0.00  0.00    +0.208 C 
ATOM     10  C   UNL     1      34.208 -16.096 -24.310  0.00  0.00    +0.064 C 
ATOM     11  C   UNL     1      34.405 -15.375 -23.122  0.00  0.00    +0.110 C 
ATOM     12  C   UNL     1      34.781 -16.006 -21.927  0.00  0.00    +0.030 C 
ATOM     13  C   UNL     1      34.387 -17.489 -24.329  0.00  0.00    +0.031 C 
ATOM     14  C   UNL     1      34.201 -13.898 -23.158  0.00  0.00    +0.208 C 
ATOM     15  C   UNL     1      33.666 -14.038 -25.416  0.00  0.00    +0.248 C 
ATOM     16  H   UNL     1      35.510 -18.125 -20.090  0.00  0.00    +0.150 HD
ATOM     17  H   UNL     1      34.935 -20.217 -23.546  0.00  0.00    +0.150 HD
ATOM     18  H   UNL     1      33.690 -15.888 -26.308  0.00  0.00    +0.156 HD
ATOM     19  H   UNL     1      33.181 -14.078 -27.407  0.00  0.00    +0.146 HD
ATOM     20  H   UNL     1      33.149 -12.526 -26.701  0.00  0.00    +0.146 HD
ENDROOT
BRANCH   9  21
ATOM     21  N   UNL     1      35.642 -20.617 -20.878  0.00  0.00    -0.263 NA
ATOM     22  H   UNL     1      36.598 -20.815 -20.749  0.00  0.00    +0.127 HD
BRANCH  21  23
ATOM     23  C   UNL     1      34.679 -21.500 -20.245  0.00  0.00    +0.098 C 
BRANCH  23  24
ATOM     24  C   UNL     1      35.166 -21.925 -18.887  0.00  0.00    -0.006 C 
ATOM     25  C   UNL     1      34.315 -22.522 -17.944  0.00  0.00    -0.003 C 
ATOM     26  C   UNL     1      34.834 -22.900 -16.682  0.00  0.00    -0.000 C 
ATOM     27  C   UNL     1      36.511 -21.702 -18.591  0.00  0.00    -0.003 C 
ATOM     28  C   UNL     1      32.958 -22.754 -18.224  0.00  0.00    -0.000 C 
ATOM     29  C   UNL     1      36.191 -22.667 -16.402  0.00  0.00    -0.000 C 
ATOM     30  C   UNL     1      37.023 -22.073 -17.352  0.00  0.00    -0.000 C 
ATOM     31  C   UNL     1      33.983 -23.497 -15.739  0.00  0.00    -0.000 C 
ATOM     32  C   UNL     1      32.126 -23.348 -17.274  0.00  0.00    -0.000 C 
ATOM     33  C   UNL     1      32.638 -23.719 -16.034  0.00  0.00    -0.000 C 
ENDBRANCH  23  24
ENDBRANCH  21  23
ENDBRANCH   9  21
TORSDOF 3
ENDMDL
