MODEL 1
REMARK VINA RESULT:     -12.3      0.000      0.000
REMARK  Name = 46926973
REMARK  4 active torsions:
REMARK  status: ('A' for Active; 'I' for Inactive)
REMARK    1  A    between atoms: C_4  and  C_17
REMARK    2  A    between atoms: C_6  and  C_13
REMARK    3  A    between atoms: C_17  and  C_19
REMARK    4  A    between atoms: C_21  and  C_26
REMARK                            x       y       z     vdW  Elec       q    Type
REMARK                         _______ _______ _______ _____ _____    ______ ____
ROOT
ATOM      1  O   UNL     1      36.535 -18.872 -23.005  0.00  0.00    -0.274 OA
ATOM      2  N   UNL     1      34.255 -19.290 -22.609  0.00  0.00    -0.269 N 
ATOM      3  N   UNL     1      33.088 -20.534 -20.969  0.00  0.00    -0.229 NA
ATOM      4  C   UNL     1      35.349 -18.738 -23.289  0.00  0.00    +0.232 C 
ATOM      5  C   UNL     1      34.268 -20.106 -21.470  0.00  0.00    +0.134 C 
ATOM      6  C   UNL     1      34.333 -21.689 -19.249  0.00  0.00    +0.038 C 
ATOM      7  C   UNL     1      35.503 -20.421 -20.925  0.00  0.00    +0.035 C 
ATOM      8  C   UNL     1      35.527 -21.230 -19.794  0.00  0.00    +0.006 C 
ATOM      9  C   UNL     1      33.151 -21.317 -19.869  0.00  0.00    +0.102 C 
ATOM     10  H   UNL     1      33.367 -19.078 -22.976  0.00  0.00    +0.156 HD
ENDROOT
BRANCH   6  13
ATOM     11  N   UNL     1      35.492 -22.618 -17.405  0.00  0.00    -0.241 NA
ATOM     12  N   UNL     1      33.192 -23.987 -16.568  0.00  0.00    -0.239 NA
ATOM     13  C   UNL     1      34.325 -22.530 -18.075  0.00  0.00    +0.102 C 
ATOM     14  C   UNL     1      33.196 -23.202 -17.664  0.00  0.00    +0.118 C 
ATOM     15  C   UNL     1      35.488 -23.401 -16.309  0.00  0.00    +0.119 C 
ATOM     16  C   UNL     1      34.359 -24.075 -15.898  0.00  0.00    +0.120 C 
ENDBRANCH   6  13
BRANCH   4  17
ATOM     17  C   UNL     1      34.887 -17.910 -24.478  0.00  0.00    +0.113 C 
BRANCH  17  19
ATOM     18  N   UNL     1      33.280 -14.491 -24.730  0.00  0.00    -0.244 NA
ATOM     19  C   UNL     1      34.415 -16.530 -24.099  0.00  0.00    +0.006 C 
ATOM     20  C   UNL     1      34.207 -14.736 -22.510  0.00  0.00    -0.004 C 
ATOM     21  C   UNL     1      33.531 -14.023 -23.487  0.00  0.00    +0.077 C 
ATOM     22  C   UNL     1      34.653 -16.014 -22.831  0.00  0.00    -0.005 C 
ATOM     23  C   UNL     1      33.729 -15.735 -25.005  0.00  0.00    +0.095 C 
ATOM     24  C   UNL     1      34.465 -14.185 -21.150  0.00  0.00    +0.033 C 
BRANCH  21  26
ATOM     25  N   UNL     1      32.061 -10.107 -22.784  0.00  0.00    -0.248 NA
ATOM     26  C   UNL     1      33.030 -12.688 -23.247  0.00  0.00    +0.020 C 
ATOM     27  C   UNL     1      32.043 -12.473 -22.291  0.00  0.00    +0.016 C 
ATOM     28  C   UNL     1      33.532 -11.613 -23.972  0.00  0.00    +0.022 C 
ATOM     29  C   UNL     1      31.596 -11.175 -22.100  0.00  0.00    +0.059 C 
ATOM     30  C   UNL     1      33.019 -10.354 -23.706  0.00  0.00    +0.098 C 
ATOM     31  C   UNL     1      30.538 -10.908 -21.082  0.00  0.00    +0.052 C 
ENDBRANCH  21  26
ENDBRANCH  17  19
ENDBRANCH   4  17
TORSDOF 4
ENDMDL
MODEL 2
REMARK VINA RESULT:     -12.2      0.317      1.257
REMARK  Name = 46926973
REMARK  4 active torsions:
REMARK  status: ('A' for Active; 'I' for Inactive)
REMARK    1  A    between atoms: C_4  and  C_17
REMARK    2  A    between atoms: C_6  and  C_13
REMARK    3  A    between atoms: C_17  and  C_19
REMARK    4  A    between atoms: C_21  and  C_26
REMARK                            x       y       z     vdW  Elec       q    Type
REMARK                         _______ _______ _______ _____ _____    ______ ____
ROOT
ATOM      1  O   UNL     1      36.482 -18.787 -23.059  0.00  0.00    -0.274 OA
ATOM      2  N   UNL     1      34.210 -19.248 -22.665  0.00  0.00    -0.269 N 
ATOM      3  N   UNL     1      33.064 -20.515 -21.028  0.00  0.00    -0.229 NA
ATOM      4  C   UNL     1      35.294 -18.675 -23.344  0.00  0.00    +0.232 C 
ATOM      5  C   UNL     1      34.237 -20.064 -21.527  0.00  0.00    +0.134 C 
ATOM      6  C   UNL     1      34.330 -21.648 -19.307  0.00  0.00    +0.038 C 
ATOM      7  C   UNL     1      35.477 -20.357 -20.981  0.00  0.00    +0.035 C 
ATOM      8  C   UNL     1      35.515 -21.166 -19.851  0.00  0.00    +0.006 C 
ATOM      9  C   UNL     1      33.142 -21.298 -19.928  0.00  0.00    +0.102 C 
ATOM     10  H   UNL     1      33.318 -19.053 -23.034  0.00  0.00    +0.156 HD
ENDROOT
BRANCH   6  13
ATOM     11  N   UNL     1      35.502 -22.551 -17.459  0.00  0.00    -0.241 NA
ATOM     12  N   UNL     1      33.232 -23.974 -16.633  0.00  0.00    -0.239 NA
ATOM     13  C   UNL     1      34.337 -22.490 -18.134  0.00  0.00    +0.102 C 
ATOM     14  C   UNL     1      33.221 -23.189 -17.728  0.00  0.00    +0.118 C 
ATOM     15  C   UNL     1      35.511 -23.335 -16.363  0.00  0.00    +0.119 C 
ATOM     16  C   UNL     1      34.397 -24.035 -15.958  0.00  0.00    +0.120 C 
ENDBRANCH   6  13
BRANCH   4  17
ATOM     17  C   UNL     1      34.817 -17.855 -24.533  0.00  0.00    +0.113 C 
BRANCH  17  19
ATOM     18  N   UNL     1      33.286 -14.403 -24.806  0.00  0.00    -0.244 NA
ATOM     19  C   UNL     1      34.371 -16.465 -24.161  0.00  0.00    +0.006 C 
ATOM     20  C   UNL     1      34.187 -14.664 -22.577  0.00  0.00    -0.004 C 
ATOM     21  C   UNL     1      33.535 -13.938 -23.561  0.00  0.00    +0.077 C 
ATOM     22  C   UNL     1      34.609 -15.951 -22.891  0.00  0.00    -0.005 C 
ATOM     23  C   UNL     1      33.711 -15.657 -25.074  0.00  0.00    +0.095 C 
ATOM     24  C   UNL     1      34.444 -14.115 -21.216  0.00  0.00    +0.033 C 
BRANCH  21  26
ATOM     25  N   UNL     1      32.142  -9.990 -22.879  0.00  0.00    -0.248 NA
ATOM     26  C   UNL     1      33.060 -12.592 -23.328  0.00  0.00    +0.020 C 
ATOM     27  C   UNL     1      33.571 -11.533 -24.072  0.00  0.00    +0.016 C 
ATOM     28  C   UNL     1      32.091 -12.352 -22.361  0.00  0.00    +0.022 C 
ATOM     29  C   UNL     1      33.083 -10.263 -23.810  0.00  0.00    +0.059 C 
ATOM     30  C   UNL     1      31.669 -11.045 -22.177  0.00  0.00    +0.098 C 
ATOM     31  C   UNL     1      33.609  -9.102 -24.588  0.00  0.00    +0.052 C 
ENDBRANCH  21  26
ENDBRANCH  17  19
ENDBRANCH   4  17
TORSDOF 4
ENDMDL
MODEL 3
REMARK VINA RESULT:     -11.7      1.704     10.750
REMARK  Name = 46926973
REMARK  4 active torsions:
REMARK  status: ('A' for Active; 'I' for Inactive)
REMARK    1  A    between atoms: C_4  and  C_17
REMARK    2  A    between atoms: C_6  and  C_13
REMARK    3  A    between atoms: C_17  and  C_19
REMARK    4  A    between atoms: C_21  and  C_26
REMARK                            x       y       z     vdW  Elec       q    Type
REMARK                         _______ _______ _______ _____ _____    ______ ____
ROOT
ATOM      1  O   UNL     1      35.228 -16.983 -21.959  0.00  0.00    -0.274 OA
ATOM      2  N   UNL     1      34.445 -16.863 -24.174  0.00  0.00    -0.269 N 
ATOM      3  N   UNL     1      33.718 -15.081 -25.550  0.00  0.00    -0.229 NA
ATOM      4  C   UNL     1      34.932 -17.508 -23.029  0.00  0.00    +0.232 C 
ATOM      5  C   UNL     1      34.190 -15.497 -24.353  0.00  0.00    +0.134 C 
ATOM      6  C   UNL     1      33.709 -12.830 -24.667  0.00  0.00    +0.038 C 
ATOM      7  C   UNL     1      34.443 -14.654 -23.282  0.00  0.00    +0.035 C 
ATOM      8  C   UNL     1      34.194 -13.297 -23.450  0.00  0.00    +0.006 C 
ATOM      9  C   UNL     1      33.489 -13.754 -25.675  0.00  0.00    +0.102 C 
ATOM     10  H   UNL     1      34.259 -17.441 -24.948  0.00  0.00    +0.156 HD
ENDROOT
BRANCH   6  13
ATOM     11  N   UNL     1      33.066 -10.732 -23.780  0.00  0.00    -0.241 NA
ATOM     12  N   UNL     1      33.308  -9.521 -26.297  0.00  0.00    -0.239 NA
ATOM     13  C   UNL     1      33.441 -11.426 -24.872  0.00  0.00    +0.102 C 
ATOM     14  C   UNL     1      33.560 -10.831 -26.109  0.00  0.00    +0.118 C 
ATOM     15  C   UNL     1      32.815  -9.421 -23.968  0.00  0.00    +0.119 C 
ATOM     16  C   UNL     1      32.933  -8.826 -25.204  0.00  0.00    +0.120 C 
ENDBRANCH   6  13
BRANCH   4  17
ATOM     17  C   UNL     1      35.065 -19.004 -23.264  0.00  0.00    +0.113 C 
BRANCH  17  19
ATOM     18  N   UNL     1      36.081 -21.029 -20.230  0.00  0.00    -0.244 NA
ATOM     19  C   UNL     1      34.964 -19.820 -22.001  0.00  0.00    +0.006 C 
ATOM     20  C   UNL     1      33.668 -20.880 -20.275  0.00  0.00    -0.004 C 
ATOM     21  C   UNL     1      34.862 -21.304 -19.714  0.00  0.00    +0.077 C 
ATOM     22  C   UNL     1      33.730 -20.124 -21.441  0.00  0.00    -0.005 C 
ATOM     23  C   UNL     1      36.101 -20.293 -21.363  0.00  0.00    +0.095 C 
ATOM     24  C   UNL     1      32.342 -21.206 -19.676  0.00  0.00    +0.033 C 
BRANCH  21  26
ATOM     25  N   UNL     1      34.969 -23.624 -16.165  0.00  0.00    -0.248 NA
ATOM     26  C   UNL     1      34.898 -22.095 -18.504  0.00  0.00    +0.020 C 
ATOM     27  C   UNL     1      36.047 -22.120 -17.721  0.00  0.00    +0.016 C 
ATOM     28  C   UNL     1      33.785 -22.834 -18.119  0.00  0.00    +0.022 C 
ATOM     29  C   UNL     1      36.031 -22.894 -16.571  0.00  0.00    +0.059 C 
ATOM     30  C   UNL     1      33.871 -23.575 -16.952  0.00  0.00    +0.098 C 
ATOM     31  C   UNL     1      37.247 -22.944 -15.706  0.00  0.00    +0.052 C 
ENDBRANCH  21  26
ENDBRANCH  17  19
ENDBRANCH   4  17
TORSDOF 4
ENDMDL
MODEL 4
REMARK VINA RESULT:     -11.3      1.650     10.546
REMARK  Name = 46926973
REMARK  4 active torsions:
REMARK  status: ('A' for Active; 'I' for Inactive)
REMARK    1  A    between atoms: C_4  and  C_17
REMARK    2  A    between atoms: C_6  and  C_13
REMARK    3  A    between atoms: C_17  and  C_19
REMARK    4  A    between atoms: C_21  and  C_26
REMARK                            x       y       z     vdW  Elec       q    Type
REMARK                         _______ _______ _______ _____ _____    ______ ____
ROOT
ATOM      1  O   UNL     1      35.011 -17.409 -21.463  0.00  0.00    -0.274 OA
ATOM      2  N   UNL     1      34.540 -17.359 -23.767  0.00  0.00    -0.269 N 
ATOM      3  N   UNL     1      34.008 -15.624 -25.283  0.00  0.00    -0.229 NA
ATOM      4  C   UNL     1      34.865 -17.967 -22.546  0.00  0.00    +0.232 C 
ATOM      5  C   UNL     1      34.312 -16.001 -24.021  0.00  0.00    +0.134 C 
ATOM      6  C   UNL     1      33.878 -13.347 -24.480  0.00  0.00    +0.038 C 
ATOM      7  C   UNL     1      34.415 -15.125 -22.952  0.00  0.00    +0.035 C 
ATOM      8  C   UNL     1      34.191 -13.774 -23.195  0.00  0.00    +0.006 C 
ATOM      9  C   UNL     1      33.798 -14.302 -25.480  0.00  0.00    +0.102 C 
ATOM     10  H   UNL     1      34.462 -17.962 -24.541  0.00  0.00    +0.156 HD
ENDROOT
BRANCH   6  13
ATOM     11  N   UNL     1      33.771 -11.580 -26.053  0.00  0.00    -0.241 NA
ATOM     12  N   UNL     1      33.079  -9.749 -24.045  0.00  0.00    -0.239 NA
ATOM     13  C   UNL     1      33.640 -11.951 -24.763  0.00  0.00    +0.102 C 
ATOM     14  C   UNL     1      33.300 -11.051 -23.777  0.00  0.00    +0.118 C 
ATOM     15  C   UNL     1      33.549 -10.278 -26.320  0.00  0.00    +0.119 C 
ATOM     16  C   UNL     1      33.210  -9.379 -25.335  0.00  0.00    +0.120 C 
ENDBRANCH   6  13
BRANCH   4  17
ATOM     17  C   UNL     1      35.029 -19.469 -22.715  0.00  0.00    +0.113 C 
BRANCH  17  19
ATOM     18  N   UNL     1      32.889 -21.217 -20.126  0.00  0.00    -0.244 NA
ATOM     19  C   UNL     1      34.638 -20.256 -21.491  0.00  0.00    +0.006 C 
ATOM     20  C   UNL     1      35.209 -21.461 -19.489  0.00  0.00    -0.004 C 
ATOM     21  C   UNL     1      33.853 -21.671 -19.294  0.00  0.00    +0.077 C 
ATOM     22  C   UNL     1      35.600 -20.739 -20.612  0.00  0.00    -0.005 C 
ATOM     23  C   UNL     1      33.307 -20.520 -21.205  0.00  0.00    +0.095 C 
ATOM     24  C   UNL     1      36.242 -21.977 -18.547  0.00  0.00    +0.033 C 
BRANCH  21  26
ATOM     25  N   UNL     1      32.380 -23.836 -15.957  0.00  0.00    -0.248 NA
ATOM     26  C   UNL     1      33.351 -22.409 -18.157  0.00  0.00    +0.020 C 
ATOM     27  C   UNL     1      31.986 -22.435 -17.889  0.00  0.00    +0.016 C 
ATOM     28  C   UNL     1      34.230 -23.095 -17.326  0.00  0.00    +0.022 C 
ATOM     29  C   UNL     1      31.556 -23.157 -16.786  0.00  0.00    +0.059 C 
ATOM     30  C   UNL     1      33.699 -23.787 -16.249  0.00  0.00    +0.098 C 
ATOM     31  C   UNL     1      30.098 -23.207 -16.468  0.00  0.00    +0.052 C 
ENDBRANCH  21  26
ENDBRANCH  17  19
ENDBRANCH   4  17
TORSDOF 4
ENDMDL
MODEL 5
REMARK VINA RESULT:     -11.3      2.130     10.335
REMARK  Name = 46926973
REMARK  4 active torsions:
REMARK  status: ('A' for Active; 'I' for Inactive)
REMARK    1  A    between atoms: C_4  and  C_17
REMARK    2  A    between atoms: C_6  and  C_13
REMARK    3  A    between atoms: C_17  and  C_19
REMARK    4  A    between atoms: C_21  and  C_26
REMARK                            x       y       z     vdW  Elec       q    Type
REMARK                         _______ _______ _______ _____ _____    ______ ____
ROOT
ATOM      1  O   UNL     1      36.199 -19.338 -20.206  0.00  0.00    -0.274 OA
ATOM      2  N   UNL     1      35.017 -19.874 -22.167  0.00  0.00    -0.269 N 
ATOM      3  N   UNL     1      34.100 -18.580 -23.922  0.00  0.00    -0.229 NA
ATOM      4  C   UNL     1      35.690 -20.152 -20.970  0.00  0.00    +0.232 C 
ATOM      5  C   UNL     1      34.776 -18.624 -22.752  0.00  0.00    +0.134 C 
ATOM      6  C   UNL     1      34.329 -16.173 -23.864  0.00  0.00    +0.038 C 
ATOM      7  C   UNL     1      35.253 -17.506 -22.088  0.00  0.00    +0.035 C 
ATOM      8  C   UNL     1      35.020 -16.261 -22.660  0.00  0.00    +0.006 C 
ATOM      9  C   UNL     1      33.893 -17.351 -24.449  0.00  0.00    +0.102 C 
ATOM     10  H   UNL     1      34.670 -20.654 -22.658  0.00  0.00    +0.156 HD
ENDROOT
BRANCH   6  13
ATOM     11  N   UNL     1      33.677 -14.933 -25.772  0.00  0.00    -0.241 NA
ATOM     12  N   UNL     1      33.978 -12.516 -24.382  0.00  0.00    -0.239 NA
ATOM     13  C   UNL     1      34.071 -14.895 -24.483  0.00  0.00    +0.102 C 
ATOM     14  C   UNL     1      34.219 -13.707 -23.801  0.00  0.00    +0.118 C 
ATOM     15  C   UNL     1      33.435 -13.741 -26.353  0.00  0.00    +0.119 C 
ATOM     16  C   UNL     1      33.583 -12.554 -25.671  0.00  0.00    +0.120 C 
ENDBRANCH   6  13
BRANCH   4  17
ATOM     17  C   UNL     1      35.729 -21.649 -20.705  0.00  0.00    +0.113 C 
BRANCH  17  19
ATOM     18  N   UNL     1      32.577 -22.510 -18.791  0.00  0.00    -0.244 NA
ATOM     19  C   UNL     1      34.821 -22.082 -19.583  0.00  0.00    +0.006 C 
ATOM     20  C   UNL     1      34.473 -22.838 -17.326  0.00  0.00    -0.004 C 
ATOM     21  C   UNL     1      33.115 -22.854 -17.599  0.00  0.00    +0.077 C 
ATOM     22  C   UNL     1      35.335 -22.443 -18.343  0.00  0.00    -0.005 C 
ATOM     23  C   UNL     1      33.446 -22.132 -19.754  0.00  0.00    +0.095 C 
ATOM     24  C   UNL     1      35.027 -23.224 -15.997  0.00  0.00    +0.033 C 
BRANCH  21  26
ATOM     25  N   UNL     1      30.258 -24.012 -14.684  0.00  0.00    -0.248 NA
ATOM     26  C   UNL     1      32.141 -23.248 -16.605  0.00  0.00    +0.020 C 
ATOM     27  C   UNL     1      30.806 -22.886 -16.753  0.00  0.00    +0.016 C 
ATOM     28  C   UNL     1      32.535 -23.992 -15.498  0.00  0.00    +0.022 C 
ATOM     29  C   UNL     1      29.913 -23.290 -15.773  0.00  0.00    +0.059 C 
ATOM     30  C   UNL     1      31.564 -24.345 -14.575  0.00  0.00    +0.098 C 
ATOM     31  C   UNL     1      28.472 -22.919 -15.899  0.00  0.00    +0.052 C 
ENDBRANCH  21  26
ENDBRANCH  17  19
ENDBRANCH   4  17
TORSDOF 4
ENDMDL
MODEL 6
REMARK VINA RESULT:     -11.3      2.071     10.768
REMARK  Name = 46926973
REMARK  4 active torsions:
REMARK  status: ('A' for Active; 'I' for Inactive)
REMARK    1  A    between atoms: C_4  and  C_17
REMARK    2  A    between atoms: C_6  and  C_13
REMARK    3  A    between atoms: C_17  and  C_19
REMARK    4  A    between atoms: C_21  and  C_26
REMARK                            x       y       z     vdW  Elec       q    Type
REMARK                         _______ _______ _______ _____ _____    ______ ____
ROOT
ATOM      1  O   UNL     1      36.256 -19.323 -20.239  0.00  0.00    -0.274 OA
ATOM      2  N   UNL     1      35.165 -19.847 -22.255  0.00  0.00    -0.269 N 
ATOM      3  N   UNL     1      34.248 -18.539 -24.000  0.00  0.00    -0.229 NA
ATOM      4  C   UNL     1      35.810 -20.134 -21.045  0.00  0.00    +0.232 C 
ATOM      5  C   UNL     1      34.886 -18.591 -22.809  0.00  0.00    +0.134 C 
ATOM      6  C   UNL     1      34.364 -16.128 -23.859  0.00  0.00    +0.038 C 
ATOM      7  C   UNL     1      35.289 -17.475 -22.094  0.00  0.00    +0.035 C 
ATOM      8  C   UNL     1      35.018 -16.223 -22.635  0.00  0.00    +0.006 C 
ATOM      9  C   UNL     1      34.002 -17.305 -24.495  0.00  0.00    +0.102 C 
ATOM     10  H   UNL     1      34.870 -20.625 -22.782  0.00  0.00    +0.156 HD
ENDROOT
BRANCH   6  13
ATOM     11  N   UNL     1      33.635 -14.864 -25.723  0.00  0.00    -0.241 NA
ATOM     12  N   UNL     1      33.943 -12.468 -24.300  0.00  0.00    -0.239 NA
ATOM     13  C   UNL     1      34.068 -14.843 -24.447  0.00  0.00    +0.102 C 
ATOM     14  C   UNL     1      34.219 -13.665 -23.748  0.00  0.00    +0.118 C 
ATOM     15  C   UNL     1      33.358 -13.666 -26.275  0.00  0.00    +0.119 C 
ATOM     16  C   UNL     1      33.510 -12.489 -25.576  0.00  0.00    +0.120 C 
ENDBRANCH   6  13
BRANCH   4  17
ATOM     17  C   UNL     1      35.909 -21.636 -20.825  0.00  0.00    +0.113 C 
BRANCH  17  19
ATOM     18  N   UNL     1      33.813 -22.993 -17.979  0.00  0.00    -0.244 NA
ATOM     19  C   UNL     1      35.502 -22.066 -19.440  0.00  0.00    +0.006 C 
ATOM     20  C   UNL     1      35.973 -22.355 -17.099  0.00  0.00    -0.004 C 
ATOM     21  C   UNL     1      34.693 -22.865 -16.960  0.00  0.00    +0.077 C 
ATOM     22  C   UNL     1      36.377 -21.950 -18.367  0.00  0.00    -0.005 C 
ATOM     23  C   UNL     1      34.241 -22.589 -19.195  0.00  0.00    +0.095 C 
ATOM     24  C   UNL     1      36.914 -22.229 -15.950  0.00  0.00    +0.033 C 
BRANCH  21  26
ATOM     25  N   UNL     1      33.198 -24.171 -13.211  0.00  0.00    -0.248 NA
ATOM     26  C   UNL     1      34.183 -23.310 -15.682  0.00  0.00    +0.020 C 
ATOM     27  C   UNL     1      35.053 -23.810 -14.719  0.00  0.00    +0.016 C 
ATOM     28  C   UNL     1      32.821 -23.240 -15.411  0.00  0.00    +0.022 C 
ATOM     29  C   UNL     1      34.514 -24.224 -13.510  0.00  0.00    +0.059 C 
ATOM     30  C   UNL     1      32.383 -23.680 -14.172  0.00  0.00    +0.098 C 
ATOM     31  C   UNL     1      35.419 -24.767 -12.454  0.00  0.00    +0.052 C 
ENDBRANCH  21  26
ENDBRANCH  17  19
ENDBRANCH   4  17
TORSDOF 4
ENDMDL
MODEL 7
REMARK VINA RESULT:     -11.1      2.240     10.360
REMARK  Name = 46926973
REMARK  4 active torsions:
REMARK  status: ('A' for Active; 'I' for Inactive)
REMARK    1  A    between atoms: C_4  and  C_17
REMARK    2  A    between atoms: C_6  and  C_13
REMARK    3  A    between atoms: C_17  and  C_19
REMARK    4  A    between atoms: C_21  and  C_26
REMARK                            x       y       z     vdW  Elec       q    Type
REMARK                         _______ _______ _______ _____ _____    ______ ____
ROOT
ATOM      1  O   UNL     1      36.689 -19.596 -19.864  0.00  0.00    -0.274 OA
ATOM      2  N   UNL     1      35.255 -20.231 -21.616  0.00  0.00    -0.269 N 
ATOM      3  N   UNL     1      34.174 -19.040 -23.350  0.00  0.00    -0.229 NA
ATOM      4  C   UNL     1      36.062 -20.444 -20.490  0.00  0.00    +0.232 C 
ATOM      5  C   UNL     1      34.988 -19.022 -22.270  0.00  0.00    +0.134 C 
ATOM      6  C   UNL     1      34.492 -16.649 -23.522  0.00  0.00    +0.038 C 
ATOM      7  C   UNL     1      35.582 -17.877 -21.765  0.00  0.00    +0.035 C 
ATOM      8  C   UNL     1      35.324 -16.672 -22.407  0.00  0.00    +0.006 C 
ATOM      9  C   UNL     1      33.947 -17.849 -23.949  0.00  0.00    +0.102 C 
ATOM     10  H   UNL     1      34.823 -21.031 -21.995  0.00  0.00    +0.156 HD
ENDROOT
BRANCH   6  13
ATOM     11  N   UNL     1      34.434 -14.282 -23.514  0.00  0.00    -0.241 NA
ATOM     12  N   UNL     1      33.457 -14.234 -26.142  0.00  0.00    -0.239 NA
ATOM     13  C   UNL     1      34.205 -15.413 -24.211  0.00  0.00    +0.102 C 
ATOM     14  C   UNL     1      33.725 -15.389 -25.502  0.00  0.00    +0.118 C 
ATOM     15  C   UNL     1      34.167 -13.127 -24.154  0.00  0.00    +0.119 C 
ATOM     16  C   UNL     1      33.686 -13.103 -25.445  0.00  0.00    +0.120 C 
ENDBRANCH   6  13
BRANCH   4  17
ATOM     17  C   UNL     1      36.081 -21.916 -20.107  0.00  0.00    +0.113 C 
BRANCH  17  19
ATOM     18  N   UNL     1      32.659 -22.750 -18.716  0.00  0.00    -0.244 NA
ATOM     19  C   UNL     1      34.997 -22.295 -19.131  0.00  0.00    +0.006 C 
ATOM     20  C   UNL     1      34.268 -22.880 -16.915  0.00  0.00    -0.004 C 
ATOM     21  C   UNL     1      32.982 -22.975 -17.422  0.00  0.00    +0.077 C 
ATOM     22  C   UNL     1      35.289 -22.533 -17.793  0.00  0.00    -0.005 C 
ATOM     23  C   UNL     1      33.678 -22.415 -19.538  0.00  0.00    +0.095 C 
ATOM     24  C   UNL     1      34.583 -23.134 -15.480  0.00  0.00    +0.033 C 
BRANCH  21  26
ATOM     25  N   UNL     1      29.678 -24.011 -14.971  0.00  0.00    -0.248 NA
ATOM     26  C   UNL     1      31.856 -23.328 -16.587  0.00  0.00    +0.020 C 
ATOM     27  C   UNL     1      32.039 -24.145 -15.476  0.00  0.00    +0.016 C 
ATOM     28  C   UNL     1      30.585 -22.852 -16.890  0.00  0.00    +0.022 C 
ATOM     29  C   UNL     1      30.928 -24.454 -14.708  0.00  0.00    +0.059 C 
ATOM     30  C   UNL     1      29.539 -23.220 -16.059  0.00  0.00    +0.098 C 
ATOM     31  C   UNL     1      31.087 -25.329 -13.509  0.00  0.00    +0.052 C 
ENDBRANCH  21  26
ENDBRANCH  17  19
ENDBRANCH   4  17
TORSDOF 4
ENDMDL
MODEL 8
REMARK VINA RESULT:     -11.0      1.388      2.343
REMARK  Name = 46926973
REMARK  4 active torsions:
REMARK  status: ('A' for Active; 'I' for Inactive)
REMARK    1  A    between atoms: C_4  and  C_17
REMARK    2  A    between atoms: C_6  and  C_13
REMARK    3  A    between atoms: C_17  and  C_19
REMARK    4  A    between atoms: C_21  and  C_26
REMARK                            x       y       z     vdW  Elec       q    Type
REMARK                         _______ _______ _______ _____ _____    ______ ____
ROOT
ATOM      1  O   UNL     1      33.760 -20.006 -22.391  0.00  0.00    -0.274 OA
ATOM      2  N   UNL     1      35.866 -19.927 -21.347  0.00  0.00    -0.269 N 
ATOM      3  N   UNL     1      36.742 -20.890 -19.372  0.00  0.00    -0.229 NA
ATOM      4  C   UNL     1      34.925 -19.623 -22.339  0.00  0.00    +0.232 C 
ATOM      5  C   UNL     1      35.693 -20.724 -20.208  0.00  0.00    +0.134 C 
ATOM      6  C   UNL     1      35.321 -22.287 -18.003  0.00  0.00    +0.038 C 
ATOM      7  C   UNL     1      34.447 -21.298 -20.014  0.00  0.00    +0.035 C 
ATOM      8  C   UNL     1      34.265 -22.092 -18.887  0.00  0.00    +0.006 C 
ATOM      9  C   UNL     1      36.528 -21.669 -18.287  0.00  0.00    +0.102 C 
ATOM     10  H   UNL     1      36.760 -19.532 -21.464  0.00  0.00    +0.156 HD
ENDROOT
BRANCH   6  13
ATOM     11  N   UNL     1      33.984 -23.749 -16.706  0.00  0.00    -0.241 NA
ATOM     12  N   UNL     1      36.006 -23.989 -14.778  0.00  0.00    -0.239 NA
ATOM     13  C   UNL     1      35.163 -23.106 -16.824  0.00  0.00    +0.102 C 
ATOM     14  C   UNL     1      36.156 -23.224 -15.877  0.00  0.00    +0.118 C 
ATOM     15  C   UNL     1      33.834 -24.514 -15.607  0.00  0.00    +0.119 C 
ATOM     16  C   UNL     1      34.827 -24.632 -14.659  0.00  0.00    +0.120 C 
ENDBRANCH   6  13
BRANCH   4  17
ATOM     17  C   UNL     1      35.531 -18.721 -23.404  0.00  0.00    +0.113 C 
BRANCH  17  19
ATOM     18  N   UNL     1      34.139 -15.384 -24.526  0.00  0.00    -0.244 NA
ATOM     19  C   UNL     1      35.019 -17.305 -23.352  0.00  0.00    +0.006 C 
ATOM     20  C   UNL     1      34.472 -15.306 -22.132  0.00  0.00    -0.004 C 
ATOM     21  C   UNL     1      34.084 -14.743 -23.336  0.00  0.00    +0.077 C 
ATOM     22  C   UNL     1      34.947 -16.613 -22.149  0.00  0.00    -0.005 C 
ATOM     23  C   UNL     1      34.607 -16.651 -24.502  0.00  0.00    +0.095 C 
ATOM     24  C   UNL     1      34.397 -14.565 -20.841  0.00  0.00    +0.033 C 
BRANCH  21  26
ATOM     25  N   UNL     1      32.599 -10.777 -23.578  0.00  0.00    -0.248 NA
ATOM     26  C   UNL     1      33.578 -13.390 -23.419  0.00  0.00    +0.020 C 
ATOM     27  C   UNL     1      34.117 -12.498 -24.339  0.00  0.00    +0.016 C 
ATOM     28  C   UNL     1      32.549 -12.978 -22.579  0.00  0.00    +0.022 C 
ATOM     29  C   UNL     1      33.596 -11.214 -24.378  0.00  0.00    +0.059 C 
ATOM     30  C   UNL     1      32.100 -11.672 -22.697  0.00  0.00    +0.098 C 
ATOM     31  C   UNL     1      34.151 -10.229 -25.353  0.00  0.00    +0.052 C 
ENDBRANCH  21  26
ENDBRANCH  17  19
ENDBRANCH   4  17
TORSDOF 4
ENDMDL
MODEL 9
REMARK VINA RESULT:     -10.9      2.811     11.466
REMARK  Name = 46926973
REMARK  4 active torsions:
REMARK  status: ('A' for Active; 'I' for Inactive)
REMARK    1  A    between atoms: C_4  and  C_17
REMARK    2  A    between atoms: C_6  and  C_13
REMARK    3  A    between atoms: C_17  and  C_19
REMARK    4  A    between atoms: C_21  and  C_26
REMARK                            x       y       z     vdW  Elec       q    Type
REMARK                         _______ _______ _______ _____ _____    ______ ____
ROOT
ATOM      1  O   UNL     1      32.907 -13.726 -23.705  0.00  0.00    -0.274 OA
ATOM      2  N   UNL     1      33.864 -12.615 -25.543  0.00  0.00    -0.269 N 
ATOM      3  N   UNL     1      34.119 -10.334 -26.117  0.00  0.00    -0.229 NA
ATOM      4  C   UNL     1      33.485 -13.732 -24.787  0.00  0.00    +0.232 C 
ATOM      5  C   UNL     1      33.671 -11.261 -25.241  0.00  0.00    +0.134 C 
ATOM      6  C   UNL     1      33.281  -8.634 -24.615  0.00  0.00    +0.038 C 
ATOM      7  C   UNL     1      33.030 -10.958 -24.050  0.00  0.00    +0.035 C 
ATOM      8  C   UNL     1      32.834  -9.617 -23.740  0.00  0.00    +0.006 C 
ATOM      9  C   UNL     1      33.911  -9.041 -25.781  0.00  0.00    +0.102 C 
ATOM     10  H   UNL     1      34.324 -12.805 -26.393  0.00  0.00    +0.156 HD
ENDROOT
BRANCH   6  13
ATOM     11  N   UNL     1      33.110  -6.401 -25.381  0.00  0.00    -0.241 NA
ATOM     12  N   UNL     1      32.731  -5.465 -22.765  0.00  0.00    -0.239 NA
ATOM     13  C   UNL     1      33.093  -7.233 -24.321  0.00  0.00    +0.102 C 
ATOM     14  C   UNL     1      32.906  -6.774 -23.036  0.00  0.00    +0.118 C 
ATOM     15  C   UNL     1      32.934  -5.092 -25.110  0.00  0.00    +0.119 C 
ATOM     16  C   UNL     1      32.748  -4.632 -23.825  0.00  0.00    +0.120 C 
ENDBRANCH   6  13
BRANCH   4  17
ATOM     17  C   UNL     1      33.891 -15.022 -25.483  0.00  0.00    +0.113 C 
BRANCH  17  19
ATOM     18  N   UNL     1      34.972 -16.791 -22.315  0.00  0.00    -0.244 NA
ATOM     19  C   UNL     1      34.262 -16.127 -24.529  0.00  0.00    +0.006 C 
ATOM     20  C   UNL     1      34.600 -18.456 -24.030  0.00  0.00    -0.004 C 
ATOM     21  C   UNL     1      34.949 -18.073 -22.745  0.00  0.00    +0.077 C 
ATOM     22  C   UNL     1      34.251 -17.457 -24.933  0.00  0.00    -0.005 C 
ATOM     23  C   UNL     1      34.627 -15.849 -23.221  0.00  0.00    +0.095 C 
ATOM     24  C   UNL     1      34.588 -19.881 -24.465  0.00  0.00    +0.033 C 
BRANCH  21  26
ATOM     25  N   UNL     1      36.058 -20.906 -19.789  0.00  0.00    -0.248 NA
ATOM     26  C   UNL     1      35.327 -19.039 -21.737  0.00  0.00    +0.020 C 
ATOM     27  C   UNL     1      34.376 -19.905 -21.208  0.00  0.00    +0.016 C 
ATOM     28  C   UNL     1      36.643 -19.106 -21.293  0.00  0.00    +0.022 C 
ATOM     29  C   UNL     1      34.790 -20.812 -20.245  0.00  0.00    +0.059 C 
ATOM     30  C   UNL     1      36.955 -20.048 -20.326  0.00  0.00    +0.098 C 
ATOM     31  C   UNL     1      33.796 -21.757 -19.655  0.00  0.00    +0.052 C 
ENDBRANCH  21  26
ENDBRANCH  17  19
ENDBRANCH   4  17
TORSDOF 4
ENDMDL
