MODEL 1
REMARK VINA RESULT:     -11.9      0.000      0.000
REMARK  Name = 24748573
REMARK  3 active torsions:
REMARK  status: ('A' for Active; 'I' for Inactive)
REMARK    1  A    between atoms: N_2  and  C_18
REMARK    2  A    between atoms: C_13  and  C_25
REMARK    3  A    between atoms: C_25  and  O_26
REMARK                            x       y       z     vdW  Elec       q    Type
REMARK                         _______ _______ _______ _____ _____    ______ ____
ROOT
ATOM      1  N   UNL     1      34.350 -23.272 -17.024  0.00  0.00    -0.391 NA
ATOM      2  N   UNL     1      32.623 -22.647 -18.488  0.00  0.00    -0.288 N 
ATOM      3  N   UNL     1      30.135 -24.122 -14.350  0.00  0.00    -0.243 NA
ATOM      4  C   UNL     1      33.896 -24.099 -14.799  0.00  0.00    +0.098 C 
ATOM      5  C   UNL     1      32.490 -23.954 -15.036  0.00  0.00    +0.011 C 
ATOM      6  C   UNL     1      32.053 -23.464 -16.280  0.00  0.00    +0.044 C 
ATOM      7  C   UNL     1      34.780 -23.738 -15.842  0.00  0.00    +0.119 C 
ATOM      8  C   UNL     1      33.021 -23.145 -17.221  0.00  0.00    +0.183 C 
ATOM      9  C   UNL     1      34.452 -24.581 -13.588  0.00  0.00    -0.015 C 
ATOM     10  C   UNL     1      36.152 -23.868 -15.644  0.00  0.00    +0.035 C 
ATOM     11  C   UNL     1      30.686 -23.308 -16.549  0.00  0.00    +0.024 C 
ATOM     12  C   UNL     1      31.464 -24.260 -14.122  0.00  0.00    +0.095 C 
ATOM     13  C   UNL     1      36.681 -24.344 -14.446  0.00  0.00    +0.077 C 
ATOM     14  C   UNL     1      35.829 -24.701 -13.414  0.00  0.00    +0.003 C 
ATOM     15  C   UNL     1      29.781 -23.648 -15.561  0.00  0.00    +0.099 C 
ATOM     16  H   UNL     1      31.746 -22.980 -18.788  0.00  0.00    +0.155 HD
ENDROOT
BRANCH   2  18
ATOM     17 CL   UNL     1      36.956 -20.788 -20.493  0.00  0.00    -0.082 Cl
ATOM     18  C   UNL     1      33.238 -21.773 -19.397  0.00  0.00    +0.051 C 
ATOM     19  C   UNL     1      34.629 -21.719 -19.481  0.00  0.00    +0.026 C 
ATOM     20  C   UNL     1      32.457 -20.959 -20.219  0.00  0.00    +0.015 C 
ATOM     21  C   UNL     1      35.240 -20.853 -20.388  0.00  0.00    +0.059 C 
ATOM     22  C   UNL     1      33.069 -20.092 -21.125  0.00  0.00    +0.002 C 
ATOM     23  C   UNL     1      34.460 -20.040 -21.209  0.00  0.00    +0.011 C 
ENDBRANCH   2  18
BRANCH  13  25
ATOM     24  O   UNL     1      38.706 -24.634 -13.204  0.00  0.00    -0.245 OA
ATOM     25  C   UNL     1      38.120 -24.463 -14.279  0.00  0.00    +0.338 C 
BRANCH  25  26
ATOM     26  O   UNL     1      38.791 -24.367 -15.460  0.00  0.00    -0.477 OA
ATOM     27  H   UNL     1      38.360 -24.587 -16.263  0.00  0.00    +0.295 HD
ENDBRANCH  25  26
ENDBRANCH  13  25
TORSDOF 3
ENDMDL
MODEL 2
REMARK VINA RESULT:     -11.7      1.114      1.700
REMARK  Name = 24748573
REMARK  3 active torsions:
REMARK  status: ('A' for Active; 'I' for Inactive)
REMARK    1  A    between atoms: N_2  and  C_18
REMARK    2  A    between atoms: C_13  and  C_25
REMARK    3  A    between atoms: C_25  and  O_26
REMARK                            x       y       z     vdW  Elec       q    Type
REMARK                         _______ _______ _______ _____ _____    ______ ____
ROOT
ATOM      1  N   UNL     1      34.763 -23.390 -16.489  0.00  0.00    -0.391 NA
ATOM      2  N   UNL     1      33.414 -22.777 -18.310  0.00  0.00    -0.288 N 
ATOM      3  N   UNL     1      30.048 -23.822 -14.696  0.00  0.00    -0.243 NA
ATOM      4  C   UNL     1      33.815 -24.034 -14.361  0.00  0.00    +0.098 C 
ATOM      5  C   UNL     1      32.499 -23.830 -14.890  0.00  0.00    +0.011 C 
ATOM      6  C   UNL     1      32.355 -23.405 -16.223  0.00  0.00    +0.044 C 
ATOM      7  C   UNL     1      34.913 -23.795 -15.218  0.00  0.00    +0.119 C 
ATOM      8  C   UNL     1      33.513 -23.206 -16.962  0.00  0.00    +0.183 C 
ATOM      9  C   UNL     1      34.080 -24.460 -13.036  0.00  0.00    -0.015 C 
ATOM     10  C   UNL     1      36.205 -23.985 -14.735  0.00  0.00    +0.035 C 
ATOM     11  C   UNL     1      31.085 -23.194 -16.776  0.00  0.00    +0.024 C 
ATOM     12  C   UNL     1      31.290 -24.016 -14.191  0.00  0.00    +0.095 C 
ATOM     13  C   UNL     1      36.448 -24.405 -13.428  0.00  0.00    +0.077 C 
ATOM     14  C   UNL     1      35.383 -24.642 -12.576  0.00  0.00    +0.003 C 
ATOM     15  C   UNL     1      29.978 -23.416 -15.978  0.00  0.00    +0.099 C 
ATOM     16  H   UNL     1      32.595 -23.082 -18.764  0.00  0.00    +0.155 HD
ENDROOT
BRANCH   2  18
ATOM     17 CL   UNL     1      33.884 -19.459 -22.186  0.00  0.00    -0.082 Cl
ATOM     18  C   UNL     1      34.256 -22.002 -19.121  0.00  0.00    +0.051 C 
ATOM     19  C   UNL     1      33.714 -21.210 -20.134  0.00  0.00    +0.026 C 
ATOM     20  C   UNL     1      35.636 -22.021 -18.914  0.00  0.00    +0.015 C 
ATOM     21  C   UNL     1      34.552 -20.437 -20.938  0.00  0.00    +0.059 C 
ATOM     22  C   UNL     1      36.473 -21.248 -19.718  0.00  0.00    +0.002 C 
ATOM     23  C   UNL     1      35.931 -20.456 -20.730  0.00  0.00    +0.011 C 
ENDBRANCH   2  18
BRANCH  13  25
ATOM     24  O   UNL     1      38.812 -24.665 -13.686  0.00  0.00    -0.245 OA
ATOM     25  C   UNL     1      37.813 -24.589 -12.963  0.00  0.00    +0.338 C 
BRANCH  25  26
ATOM     26  O   UNL     1      37.894 -24.672 -11.606  0.00  0.00    -0.477 OA
ATOM     27  H   UNL     1      37.702 -23.921 -11.079  0.00  0.00    +0.295 HD
ENDBRANCH  25  26
ENDBRANCH  13  25
TORSDOF 3
ENDMDL
MODEL 3
REMARK VINA RESULT:     -10.3      3.268      6.028
REMARK  Name = 24748573
REMARK  3 active torsions:
REMARK  status: ('A' for Active; 'I' for Inactive)
REMARK    1  A    between atoms: N_2  and  C_18
REMARK    2  A    between atoms: C_13  and  C_25
REMARK    3  A    between atoms: C_25  and  O_26
REMARK                            x       y       z     vdW  Elec       q    Type
REMARK                         _______ _______ _______ _____ _____    ______ ____
ROOT
ATOM      1  N   UNL     1      33.824 -23.761 -15.868  0.00  0.00    -0.391 NA
ATOM      2  N   UNL     1      32.615 -24.921 -14.222  0.00  0.00    -0.288 N 
ATOM      3  N   UNL     1      36.895 -23.693 -11.844  0.00  0.00    -0.243 NA
ATOM      4  C   UNL     1      36.021 -22.853 -15.433  0.00  0.00    +0.098 C 
ATOM      5  C   UNL     1      35.958 -23.355 -14.092  0.00  0.00    +0.011 C 
ATOM      6  C   UNL     1      34.811 -24.054 -13.675  0.00  0.00    +0.044 C 
ATOM      7  C   UNL     1      34.912 -23.092 -16.277  0.00  0.00    +0.119 C 
ATOM      8  C   UNL     1      33.790 -24.222 -14.600  0.00  0.00    +0.183 C 
ATOM      9  C   UNL     1      37.123 -22.137 -15.961  0.00  0.00    -0.015 C 
ATOM     10  C   UNL     1      34.943 -22.619 -17.586  0.00  0.00    +0.035 C 
ATOM     11  C   UNL     1      34.712 -24.559 -12.372  0.00  0.00    +0.024 C 
ATOM     12  C   UNL     1      36.959 -23.217 -13.111  0.00  0.00    +0.095 C 
ATOM     13  C   UNL     1      36.035 -21.915 -18.090  0.00  0.00    +0.077 C 
ATOM     14  C   UNL     1      37.129 -21.673 -17.275  0.00  0.00    +0.003 C 
ATOM     15  C   UNL     1      35.771 -24.353 -11.508  0.00  0.00    +0.099 C 
ATOM     16  H   UNL     1      32.767 -25.612 -13.537  0.00  0.00    +0.155 HD
ENDROOT
BRANCH   2  18
ATOM     17 CL   UNL     1      29.077 -22.398 -16.937  0.00  0.00    -0.082 Cl
ATOM     18  C   UNL     1      31.279 -24.818 -14.636  0.00  0.00    +0.051 C 
ATOM     19  C   UNL     1      30.887 -23.778 -15.480  0.00  0.00    +0.026 C 
ATOM     20  C   UNL     1      30.341 -25.757 -14.205  0.00  0.00    +0.015 C 
ATOM     21  C   UNL     1      29.560 -23.679 -15.895  0.00  0.00    +0.059 C 
ATOM     22  C   UNL     1      29.013 -25.657 -14.620  0.00  0.00    +0.002 C 
ATOM     23  C   UNL     1      28.623 -24.618 -15.465  0.00  0.00    +0.011 C 
ENDBRANCH   2  18
BRANCH  13  25
ATOM     24  O   UNL     1      36.557 -20.395 -19.861  0.00  0.00    -0.245 OA
ATOM     25  C   UNL     1      36.026 -21.437 -19.462  0.00  0.00    +0.338 C 
BRANCH  25  26
ATOM     26  O   UNL     1      35.355 -22.274 -20.301  0.00  0.00    -0.477 OA
ATOM     27  H   UNL     1      35.525 -22.248 -21.223  0.00  0.00    +0.295 HD
ENDBRANCH  25  26
ENDBRANCH  13  25
TORSDOF 3
ENDMDL
MODEL 4
REMARK VINA RESULT:     -10.1      2.730      6.103
REMARK  Name = 24748573
REMARK  3 active torsions:
REMARK  status: ('A' for Active; 'I' for Inactive)
REMARK    1  A    between atoms: N_2  and  C_18
REMARK    2  A    between atoms: C_13  and  C_25
REMARK    3  A    between atoms: C_25  and  O_26
REMARK                            x       y       z     vdW  Elec       q    Type
REMARK                         _______ _______ _______ _____ _____    ______ ____
ROOT
ATOM      1  N   UNL     1      34.894 -23.350 -15.948  0.00  0.00    -0.391 NA
ATOM      2  N   UNL     1      34.774 -24.366 -13.834  0.00  0.00    -0.288 N 
ATOM      3  N   UNL     1      29.961 -24.325 -15.355  0.00  0.00    -0.243 NA
ATOM      4  C   UNL     1      32.924 -22.989 -17.301  0.00  0.00    +0.098 C 
ATOM      5  C   UNL     1      32.117 -23.586 -16.278  0.00  0.00    +0.011 C 
ATOM      6  C   UNL     1      32.735 -24.053 -15.104  0.00  0.00    +0.044 C 
ATOM      7  C   UNL     1      34.316 -22.901 -17.073  0.00  0.00    +0.119 C 
ATOM      8  C   UNL     1      34.111 -23.907 -15.001  0.00  0.00    +0.183 C 
ATOM      9  C   UNL     1      32.412 -22.484 -18.522  0.00  0.00    -0.015 C 
ATOM     10  C   UNL     1      35.128 -22.325 -18.046  0.00  0.00    +0.035 C 
ATOM     11  C   UNL     1      31.979 -24.642 -14.081  0.00  0.00    +0.024 C 
ATOM     12  C   UNL     1      30.720 -23.760 -16.325  0.00  0.00    +0.095 C 
ATOM     13  C   UNL     1      34.608 -21.833 -19.242  0.00  0.00    +0.077 C 
ATOM     14  C   UNL     1      33.246 -21.913 -19.481  0.00  0.00    +0.003 C 
ATOM     15  C   UNL     1      30.612 -24.751 -14.256  0.00  0.00    +0.099 C 
ATOM     16  H   UNL     1      34.220 -24.326 -13.021  0.00  0.00    +0.155 HD
ENDROOT
BRANCH   2  18
ATOM     17 CL   UNL     1      39.564 -24.960 -15.556  0.00  0.00    -0.082 Cl
ATOM     18  C   UNL     1      36.067 -24.864 -13.615  0.00  0.00    +0.051 C 
ATOM     19  C   UNL     1      37.057 -24.687 -14.583  0.00  0.00    +0.026 C 
ATOM     20  C   UNL     1      36.365 -25.532 -12.427  0.00  0.00    +0.015 C 
ATOM     21  C   UNL     1      38.343 -25.179 -14.363  0.00  0.00    +0.059 C 
ATOM     22  C   UNL     1      37.652 -26.024 -12.208  0.00  0.00    +0.002 C 
ATOM     23  C   UNL     1      38.641 -25.847 -13.175  0.00  0.00    +0.011 C 
ENDBRANCH   2  18
BRANCH  13  25
ATOM     24  O   UNL     1      36.703 -21.458 -20.334  0.00  0.00    -0.245 OA
ATOM     25  C   UNL     1      35.491 -21.242 -20.234  0.00  0.00    +0.338 C 
BRANCH  25  26
ATOM     26  O   UNL     1      34.835 -20.397 -21.077  0.00  0.00    -0.477 OA
ATOM     27  H   UNL     1      33.904 -20.450 -21.163  0.00  0.00    +0.295 HD
ENDBRANCH  25  26
ENDBRANCH  13  25
TORSDOF 3
ENDMDL
MODEL 5
REMARK VINA RESULT:     -10.1      3.560      6.721
REMARK  Name = 24748573
REMARK  3 active torsions:
REMARK  status: ('A' for Active; 'I' for Inactive)
REMARK    1  A    between atoms: N_2  and  C_18
REMARK    2  A    between atoms: C_13  and  C_25
REMARK    3  A    between atoms: C_25  and  O_26
REMARK                            x       y       z     vdW  Elec       q    Type
REMARK                         _______ _______ _______ _____ _____    ______ ____
ROOT
ATOM      1  N   UNL     1      33.520 -23.278 -17.282  0.00  0.00    -0.391 NA
ATOM      2  N   UNL     1      33.076 -24.645 -15.425  0.00  0.00    -0.288 N 
ATOM      3  N   UNL     1      37.972 -23.538 -14.884  0.00  0.00    -0.243 NA
ATOM      4  C   UNL     1      35.715 -22.351 -17.686  0.00  0.00    +0.098 C 
ATOM      5  C   UNL     1      36.200 -22.994 -16.500  0.00  0.00    +0.011 C 
ATOM      6  C   UNL     1      35.315 -23.771 -15.731  0.00  0.00    +0.044 C 
ATOM      7  C   UNL     1      34.355 -22.534 -18.023  0.00  0.00    +0.119 C 
ATOM      8  C   UNL     1      34.002 -23.872 -16.171  0.00  0.00    +0.183 C 
ATOM      9  C   UNL     1      36.514 -21.546 -18.536  0.00  0.00    -0.015 C 
ATOM     10  C   UNL     1      33.852 -21.924 -19.170  0.00  0.00    +0.035 C 
ATOM     11  C   UNL     1      35.752 -24.414 -14.566  0.00  0.00    +0.024 C 
ATOM     12  C   UNL     1      37.517 -22.928 -16.006  0.00  0.00    +0.095 C 
ATOM     13  C   UNL     1      34.652 -21.135 -19.995  0.00  0.00    +0.077 C 
ATOM     14  C   UNL     1      35.987 -20.946 -19.677  0.00  0.00    +0.003 C 
ATOM     15  C   UNL     1      37.075 -24.267 -14.193  0.00  0.00    +0.099 C 
ATOM     16  H   UNL     1      33.486 -25.399 -14.943  0.00  0.00    +0.155 HD
ENDROOT
BRANCH   2  18
ATOM     17 CL   UNL     1      28.623 -22.603 -16.927  0.00  0.00    -0.082 Cl
ATOM     18  C   UNL     1      31.689 -24.542 -15.241  0.00  0.00    +0.051 C 
ATOM     19  C   UNL     1      30.934 -23.718 -16.076  0.00  0.00    +0.026 C 
ATOM     20  C   UNL     1      31.064 -25.268 -14.227  0.00  0.00    +0.015 C 
ATOM     21  C   UNL     1      29.555 -23.619 -15.897  0.00  0.00    +0.059 C 
ATOM     22  C   UNL     1      29.684 -25.168 -14.047  0.00  0.00    +0.002 C 
ATOM     23  C   UNL     1      28.930 -24.344 -14.883  0.00  0.00    +0.011 C 
ENDBRANCH   2  18
BRANCH  13  25
ATOM     24  O   UNL     1      34.734 -20.107 -22.153  0.00  0.00    -0.245 OA
ATOM     25  C   UNL     1      34.088 -20.514 -21.182  0.00  0.00    +0.338 C 
BRANCH  25  26
ATOM     26  O   UNL     1      32.731 -20.420 -21.125  0.00  0.00    -0.477 OA
ATOM     27  H   UNL     1      32.252 -20.104 -21.866  0.00  0.00    +0.295 HD
ENDBRANCH  25  26
ENDBRANCH  13  25
TORSDOF 3
ENDMDL
MODEL 6
REMARK VINA RESULT:      -9.9      3.547      6.822
REMARK  Name = 24748573
REMARK  3 active torsions:
REMARK  status: ('A' for Active; 'I' for Inactive)
REMARK    1  A    between atoms: N_2  and  C_18
REMARK    2  A    between atoms: C_13  and  C_25
REMARK    3  A    between atoms: C_25  and  O_26
REMARK                            x       y       z     vdW  Elec       q    Type
REMARK                         _______ _______ _______ _____ _____    ______ ____
ROOT
ATOM      1  N   UNL     1      34.123 -24.134 -15.599  0.00  0.00    -0.391 NA
ATOM      2  N   UNL     1      36.394 -23.830 -16.114  0.00  0.00    -0.288 N 
ATOM      3  N   UNL     1      34.041 -21.368 -19.840  0.00  0.00    -0.243 NA
ATOM      4  C   UNL     1      32.370 -23.207 -16.981  0.00  0.00    +0.098 C 
ATOM      5  C   UNL     1      33.359 -22.651 -17.856  0.00  0.00    +0.011 C 
ATOM      6  C   UNL     1      34.720 -22.857 -17.570  0.00  0.00    +0.044 C 
ATOM      7  C   UNL     1      32.821 -23.943 -15.862  0.00  0.00    +0.119 C 
ATOM      8  C   UNL     1      35.034 -23.599 -16.440  0.00  0.00    +0.183 C 
ATOM      9  C   UNL     1      30.973 -23.064 -17.169  0.00  0.00    -0.015 C 
ATOM     10  C   UNL     1      31.886 -24.498 -14.992  0.00  0.00    +0.035 C 
ATOM     11  C   UNL     1      35.716 -22.329 -18.402  0.00  0.00    +0.024 C 
ATOM     12  C   UNL     1      33.102 -21.892 -19.015  0.00  0.00    +0.095 C 
ATOM     13  C   UNL     1      30.515 -24.347 -15.192  0.00  0.00    +0.077 C 
ATOM     14  C   UNL     1      30.057 -23.628 -16.284  0.00  0.00    +0.003 C 
ATOM     15  C   UNL     1      35.326 -21.602 -19.511  0.00  0.00    +0.099 C 
ATOM     16  H   UNL     1      36.990 -23.865 -16.898  0.00  0.00    +0.155 HD
ENDROOT
BRANCH   2  18
ATOM     17 CL   UNL     1      36.699 -22.754 -11.114  0.00  0.00    -0.082 Cl
ATOM     18  C   UNL     1      37.056 -24.019 -14.892  0.00  0.00    +0.051 C 
ATOM     19  C   UNL     1      36.603 -23.366 -13.745  0.00  0.00    +0.026 C 
ATOM     20  C   UNL     1      38.165 -24.864 -14.821  0.00  0.00    +0.015 C 
ATOM     21  C   UNL     1      37.258 -23.558 -12.529  0.00  0.00    +0.059 C 
ATOM     22  C   UNL     1      38.820 -25.054 -13.605  0.00  0.00    +0.002 C 
ATOM     23  C   UNL     1      38.366 -24.402 -12.459  0.00  0.00    +0.011 C 
ENDBRANCH   2  18
BRANCH  13  25
ATOM     24  O   UNL     1      28.441 -25.350 -14.546  0.00  0.00    -0.245 OA
ATOM     25  C   UNL     1      29.571 -24.941 -14.259  0.00  0.00    +0.338 C 
BRANCH  25  26
ATOM     26  O   UNL     1      30.065 -25.010 -12.992  0.00  0.00    -0.477 OA
ATOM     27  H   UNL     1      30.989 -25.076 -12.853  0.00  0.00    +0.295 HD
ENDBRANCH  25  26
ENDBRANCH  13  25
TORSDOF 3
ENDMDL
MODEL 7
REMARK VINA RESULT:      -9.6      2.922      5.364
REMARK  Name = 24748573
REMARK  3 active torsions:
REMARK  status: ('A' for Active; 'I' for Inactive)
REMARK    1  A    between atoms: N_2  and  C_18
REMARK    2  A    between atoms: C_13  and  C_25
REMARK    3  A    between atoms: C_25  and  O_26
REMARK                            x       y       z     vdW  Elec       q    Type
REMARK                         _______ _______ _______ _____ _____    ______ ____
ROOT
ATOM      1  N   UNL     1      33.451 -23.405 -15.331  0.00  0.00    -0.391 NA
ATOM      2  N   UNL     1      31.807 -22.741 -16.872  0.00  0.00    -0.288 N 
ATOM      3  N   UNL     1      36.115 -21.907 -19.368  0.00  0.00    -0.243 NA
ATOM      4  C   UNL     1      35.808 -23.283 -15.852  0.00  0.00    +0.098 C 
ATOM      5  C   UNL     1      35.490 -22.760 -17.148  0.00  0.00    +0.011 C 
ATOM      6  C   UNL     1      34.141 -22.575 -17.500  0.00  0.00    +0.044 C 
ATOM      7  C   UNL     1      34.734 -23.587 -14.984  0.00  0.00    +0.119 C 
ATOM      8  C   UNL     1      33.179 -22.912 -16.558  0.00  0.00    +0.183 C 
ATOM      9  C   UNL     1      37.127 -23.511 -15.389  0.00  0.00    -0.015 C 
ATOM     10  C   UNL     1      35.008 -24.095 -13.717  0.00  0.00    +0.035 C 
ATOM     11  C   UNL     1      33.791 -22.067 -18.758  0.00  0.00    +0.024 C 
ATOM     12  C   UNL     1      36.420 -22.400 -18.143  0.00  0.00    +0.095 C 
ATOM     13  C   UNL     1      36.313 -24.313 -13.278  0.00  0.00    +0.077 C 
ATOM     14  C   UNL     1      37.376 -24.020 -14.117  0.00  0.00    +0.003 C 
ATOM     15  C   UNL     1      34.806 -21.752 -19.643  0.00  0.00    +0.099 C 
ATOM     16  H   UNL     1      31.632 -22.004 -17.501  0.00  0.00    +0.155 HD
ENDROOT
BRANCH   2  18
ATOM     17 CL   UNL     1      26.744 -22.642 -16.093  0.00  0.00    -0.082 Cl
ATOM     18  C   UNL     1      30.650 -23.420 -16.460  0.00  0.00    +0.051 C 
ATOM     19  C   UNL     1      29.417 -22.768 -16.477  0.00  0.00    +0.026 C 
ATOM     20  C   UNL     1      30.733 -24.746 -16.036  0.00  0.00    +0.015 C 
ATOM     21  C   UNL     1      28.266 -23.444 -16.071  0.00  0.00    +0.059 C 
ATOM     22  C   UNL     1      29.582 -25.421 -15.630  0.00  0.00    +0.002 C 
ATOM     23  C   UNL     1      28.349 -24.770 -15.648  0.00  0.00    +0.011 C 
ENDBRANCH   2  18
BRANCH  13  25
ATOM     24  O   UNL     1      36.884 -24.183 -10.959  0.00  0.00    -0.245 OA
ATOM     25  C   UNL     1      36.556 -24.847 -11.948  0.00  0.00    +0.338 C 
BRANCH  25  26
ATOM     26  O   UNL     1      36.381 -26.196 -11.888  0.00  0.00    -0.477 OA
ATOM     27  H   UNL     1      36.703 -26.741 -12.579  0.00  0.00    +0.295 HD
ENDBRANCH  25  26
ENDBRANCH  13  25
TORSDOF 3
ENDMDL
MODEL 8
REMARK VINA RESULT:      -9.4     12.640     15.416
REMARK  Name = 24748573
REMARK  3 active torsions:
REMARK  status: ('A' for Active; 'I' for Inactive)
REMARK    1  A    between atoms: N_2  and  C_18
REMARK    2  A    between atoms: C_13  and  C_25
REMARK    3  A    between atoms: C_25  and  O_26
REMARK                            x       y       z     vdW  Elec       q    Type
REMARK                         _______ _______ _______ _____ _____    ______ ____
ROOT
ATOM      1  N   UNL     1      32.718  -9.924 -23.971  0.00  0.00    -0.391 NA
ATOM      2  N   UNL     1      32.288  -7.739 -23.224  0.00  0.00    -0.288 N 
ATOM      3  N   UNL     1      31.251 -10.557 -19.166  0.00  0.00    -0.243 NA
ATOM      4  C   UNL     1      32.431 -11.842 -22.529  0.00  0.00    +0.098 C 
ATOM      5  C   UNL     1      32.017 -10.975 -21.465  0.00  0.00    +0.011 C 
ATOM      6  C   UNL     1      31.966  -9.588 -21.693  0.00  0.00    +0.044 C 
ATOM      7  C   UNL     1      32.771 -11.248 -23.766  0.00  0.00    +0.119 C 
ATOM      8  C   UNL     1      32.325  -9.130 -22.952  0.00  0.00    +0.183 C 
ATOM      9  C   UNL     1      32.520 -13.251 -22.416  0.00  0.00    -0.015 C 
ATOM     10  C   UNL     1      33.176 -12.063 -24.821  0.00  0.00    +0.035 C 
ATOM     11  C   UNL     1      31.567  -8.709 -20.677  0.00  0.00    +0.024 C 
ATOM     12  C   UNL     1      31.642 -11.380 -20.170  0.00  0.00    +0.095 C 
ATOM     13  C   UNL     1      33.257 -13.448 -24.692  0.00  0.00    +0.077 C 
ATOM     14  C   UNL     1      32.929 -14.044 -23.486  0.00  0.00    +0.003 C 
ATOM     15  C   UNL     1      31.223  -9.240 -19.448  0.00  0.00    +0.099 C 
ATOM     16  H   UNL     1      31.608  -7.251 -22.706  0.00  0.00    +0.155 HD
ENDROOT
BRANCH   2  18
ATOM     17 CL   UNL     1      32.327  -4.063 -26.793  0.00  0.00    -0.082 Cl
ATOM     18  C   UNL     1      33.035  -6.923 -24.088  0.00  0.00    +0.051 C 
ATOM     19  C   UNL     1      32.385  -6.007 -24.917  0.00  0.00    +0.026 C 
ATOM     20  C   UNL     1      34.426  -7.026 -24.117  0.00  0.00    +0.015 C 
ATOM     21  C   UNL     1      33.127  -5.194 -25.773  0.00  0.00    +0.059 C 
ATOM     22  C   UNL     1      35.167  -6.213 -24.974  0.00  0.00    +0.002 C 
ATOM     23  C   UNL     1      34.518  -5.296 -25.801  0.00  0.00    +0.011 C 
ENDBRANCH   2  18
BRANCH  13  25
ATOM     24  O   UNL     1      33.762 -15.496 -25.821  0.00  0.00    -0.245 OA
ATOM     25  C   UNL     1      33.687 -14.262 -25.817  0.00  0.00    +0.338 C 
BRANCH  25  26
ATOM     26  O   UNL     1      34.010 -13.514 -26.908  0.00  0.00    -0.477 OA
ATOM     27  H   UNL     1      34.381 -12.661 -26.797  0.00  0.00    +0.295 HD
ENDBRANCH  25  26
ENDBRANCH  13  25
TORSDOF 3
ENDMDL
MODEL 9
REMARK VINA RESULT:      -9.3      9.963     13.947
REMARK  Name = 24748573
REMARK  3 active torsions:
REMARK  status: ('A' for Active; 'I' for Inactive)
REMARK    1  A    between atoms: N_2  and  C_18
REMARK    2  A    between atoms: C_13  and  C_25
REMARK    3  A    between atoms: C_25  and  O_26
REMARK                            x       y       z     vdW  Elec       q    Type
REMARK                         _______ _______ _______ _____ _____    ______ ____
ROOT
ATOM      1  N   UNL     1      32.979 -12.914 -23.185  0.00  0.00    -0.391 NA
ATOM      2  N   UNL     1      33.876 -14.373 -24.792  0.00  0.00    -0.288 N 
ATOM      3  N   UNL     1      34.432  -9.835 -26.932  0.00  0.00    -0.243 NA
ATOM      4  C   UNL     1      32.909 -10.523 -23.533  0.00  0.00    +0.098 C 
ATOM      5  C   UNL     1      33.526 -10.697 -24.815  0.00  0.00    +0.011 C 
ATOM      6  C   UNL     1      33.855 -11.994 -25.247  0.00  0.00    +0.044 C 
ATOM      7  C   UNL     1      32.661 -11.682 -22.761  0.00  0.00    +0.119 C 
ATOM      8  C   UNL     1      33.559 -13.049 -24.396  0.00  0.00    +0.183 C 
ATOM      9  C   UNL     1      32.534  -9.268 -22.995  0.00  0.00    -0.015 C 
ATOM     10  C   UNL     1      32.061 -11.549 -21.511  0.00  0.00    +0.035 C 
ATOM     11  C   UNL     1      34.459 -12.202 -26.494  0.00  0.00    +0.024 C 
ATOM     12  C   UNL     1      33.849  -9.667 -25.721  0.00  0.00    +0.095 C 
ATOM     13  C   UNL     1      31.699 -10.305 -20.998  0.00  0.00    +0.077 C 
ATOM     14  C   UNL     1      31.936  -9.161 -21.741  0.00  0.00    +0.003 C 
ATOM     15  C   UNL     1      34.722 -11.102 -27.288  0.00  0.00    +0.099 C 
ATOM     16  H   UNL     1      33.847 -14.514 -25.766  0.00  0.00    +0.155 HD
ENDROOT
BRANCH   2  18
ATOM     17 CL   UNL     1      34.377 -19.471 -24.680  0.00  0.00    -0.082 Cl
ATOM     18  C   UNL     1      34.221 -15.522 -24.065  0.00  0.00    +0.051 C 
ATOM     19  C   UNL     1      34.134 -16.779 -24.664  0.00  0.00    +0.026 C 
ATOM     20  C   UNL     1      34.654 -15.407 -22.743  0.00  0.00    +0.015 C 
ATOM     21  C   UNL     1      34.482 -17.921 -23.942  0.00  0.00    +0.059 C 
ATOM     22  C   UNL     1      35.000 -16.549 -22.022  0.00  0.00    +0.002 C 
ATOM     23  C   UNL     1      34.915 -17.806 -22.621  0.00  0.00    +0.011 C 
ENDBRANCH   2  18
BRANCH  13  25
ATOM     24  O   UNL     1      29.868 -10.322 -19.458  0.00  0.00    -0.245 OA
ATOM     25  C   UNL     1      31.077 -10.209 -19.687  0.00  0.00    +0.338 C 
BRANCH  25  26
ATOM     26  O   UNL     1      31.982  -9.978 -18.697  0.00  0.00    -0.477 OA
ATOM     27  H   UNL     1      32.849  -9.695 -18.911  0.00  0.00    +0.295 HD
ENDBRANCH  25  26
ENDBRANCH  13  25
TORSDOF 3
ENDMDL
